#------------------------------------------------------------------------------
#$Date: 2018-02-22 09:11:00 +0200 (Thu, 22 Feb 2018) $
#$Revision: 206576 $
#$URL: file:///home/coder/svn-repositories/cod/cif/2/02/10/2021030.cif $
#------------------------------------------------------------------------------
#
# This file is available in the Crystallography Open Database (COD),
# http://www.crystallography.net/. The original data for this entry
# were provided by IUCr Journals, http://journals.iucr.org/.
#
# The file may be used within the scientific community so long as
# proper attribution is given to the journal article from which the
# data were obtained.
#
data_2021030
loop_
_publ_author_name
'Borjas Nevarez, Rosendo'
'Balasekaran, Samundeeswari Mariappan'
'Kim, Eunja'
'Weck, Philippe'
'Poineau, Frederic'
_publ_section_title
;
 Zirconium tetrachloride revisited
;
_journal_coeditor_code           YO3045
_journal_issue                   3
_journal_name_full               'Acta Crystallographica Section C'
_journal_page_first
;
;
_journal_paper_doi               10.1107/S205322961800219X
_journal_volume                  74
_journal_year                    2018
_chemical_formula_moiety         Cl4Zr
_chemical_formula_sum            'Cl4 Zr'
_chemical_formula_weight         233.02
_chemical_name_common            'Zirconium tetrachloride'
_chemical_name_systematic
;
Zirconium tetrachloride
;
_space_group_crystal_system      orthorhombic
_space_group_IT_number           29
_space_group_name_Hall           'P 2c -2ac'
_space_group_name_H-M_alt        'P c a 21'
_symmetry_space_group_name_Hall  'P 2c -2ac'
_symmetry_space_group_name_H-M   'P c a 21'
_atom_sites_solution_hydrogens   notdet
_atom_sites_solution_primary     heavy
_atom_sites_solution_secondary   difmap
_cell_angle_alpha                90
_cell_angle_beta                 90
_cell_angle_gamma                90
_cell_formula_units_Z            4
_cell_length_a                   6.253(5)
_cell_length_b                   7.383(6)
_cell_length_c                   12.017(9)
_cell_measurement_reflns_used    1861
_cell_measurement_temperature    250.(2)
_cell_measurement_theta_max      25.8051
_cell_measurement_theta_min      2.7598
_cell_volume                     554.8(8)
_computing_cell_refinement
;
APEX3 (Bruker, 2016)
;
_computing_data_collection
;
BIS (Bruker, 2016)
;
_computing_data_reduction
;
SAINT (Bruker, 2015)
;
_computing_molecular_graphics
;
shelXle (H\"ubschle <i>et al.</i>,  2011)
;
_computing_publication_material
;
APEX3 (Bruker, 2016)
;
_computing_structure_refinement  'SHELXL2014 (Sheldrick, 2015b)'
_computing_structure_solution    'SHELXT2014 (Sheldrick, 2015a)'
_diffrn_ambient_temperature      250.(2)
_diffrn_detector_area_resol_mean 8.3333
_diffrn_measured_fraction_theta_full 0.992
_diffrn_measured_fraction_theta_max 0.992
_diffrn_measurement_device_type  'Bruker D8 QUEST'
_diffrn_measurement_method       '\f and \w scans'
_diffrn_radiation_monochromator  'curved graphite'
_diffrn_radiation_type           'Mo K\a'
_diffrn_radiation_wavelength     0.71073
_diffrn_reflns_av_R_equivalents  0.0627
_diffrn_reflns_av_unetI/netI     0.0407
_diffrn_reflns_limit_h_max       7
_diffrn_reflns_limit_h_min       -7
_diffrn_reflns_limit_k_max       8
_diffrn_reflns_limit_k_min       -8
_diffrn_reflns_limit_l_max       14
_diffrn_reflns_limit_l_min       -14
_diffrn_reflns_number            5285
_diffrn_reflns_theta_full        24.70
_diffrn_reflns_theta_max         24.70
_diffrn_reflns_theta_min         4.27
_diffrn_source                   'sealed tube'
_diffrn_source_type              'Siemens KFFMo2K-90'
_exptl_absorpt_coefficient_mu    3.736
_exptl_absorpt_correction_T_max  0.81
_exptl_absorpt_correction_T_min  0.63
_exptl_absorpt_correction_type   numerical
_exptl_absorpt_process_details
;
(SADABS; Krause <i>et al.</i>,  2015)
;
_exptl_crystal_colour            'translucent colourless'
_exptl_crystal_density_diffrn    2.790
_exptl_crystal_density_method    'not measured'
_exptl_crystal_description       'rectangualr plate'
_exptl_crystal_F_000             432
_exptl_crystal_size_max          0.09
_exptl_crystal_size_mid          0.08
_exptl_crystal_size_min          0.06
_refine_diff_density_max         2.129
_refine_diff_density_min         -0.477
_refine_ls_abs_structure_details
;
Flack <i>x</i> determined using 351 quotients [(I+)-(I-)]/[(I+)+(I-)]
(Parsons <i>et al.</i>,  2013)
;
_refine_ls_abs_structure_Flack   0.01(15)
_refine_ls_extinction_method     none
_refine_ls_goodness_of_fit_ref   1.045
_refine_ls_hydrogen_treatment    undef
_refine_ls_matrix_type           full
_refine_ls_number_parameters     46
_refine_ls_number_reflns         934
_refine_ls_number_restraints     1
_refine_ls_restrained_S_all      1.045
_refine_ls_R_factor_all          0.0494
_refine_ls_R_factor_gt           0.0382
_refine_ls_shift/su_max          0.000
_refine_ls_shift/su_mean         0.000
_refine_ls_structure_factor_coef Fsqd
_refine_ls_weighting_details
'w=1/[\s^2^(Fo^2^)+(0.0566P)^2^] where P=(Fo^2^+2Fc^2^)/3'
_refine_ls_weighting_scheme      calc
_refine_ls_wR_factor_gt          0.0874
_refine_ls_wR_factor_ref         0.0957
_reflns_number_gt                815
_reflns_number_total             934
_reflns_threshold_expression     'I > 2\s(I)'
_cod_data_source_file            yo3045sup1.cif
_cod_data_source_block           SMB_ZrCl4_b_250K
_cod_original_cell_volume        554.8(7)
_cod_original_formula_sum        'Zr Cl4'
_cod_database_code               2021030
_publcif_datablock.id            {859555ee-c301-44a0-86d9-d21d6f71eb72}
_shelx_res_file
;


    SMB_ZrCl4_b_0m_a.res created by SHELXL-2014/7


TITL SMB_ZrCl4_b_0m_a.res in Pca2(1)
REM Old TITL SMB_ZrCl4_b_0m in Pca2(1)
REM SHELXT solution in Pca2(1)
REM R1 0.074,  Rweak 0.004,  Alpha 0.003,  Orientation as input
REM Flack x = -0.006 ( 0.157 ) from Parsons' quotients
REM Formula found by SHELXT:  Cl4 Zr
CELL  0.71073   6.2531   7.3830  12.0167   90.000   90.000   90.000
ZERR    4.000   0.0048   0.0056   0.0091    0.000    0.000    0.000
LATT -1
SYMM -X, -Y, 1/2+Z
SYMM 1/2+X, -Y, Z
SYMM 1/2-X, Y, 1/2+Z
SFAC CL ZR
UNIT 16 4
TEMP -22.960
SIZE 0.058 0.072 0.094
L.S. 10
OMIT -4 50
OMIT 5 4 8
OMIT 0 8 4
OMIT 5 3 -5
OMIT 0   0  -2
OMIT 0   0   2
OMIT 6   1  -3
OMIT 1   1  10
OMIT 5   6  -3
OMIT 2   1 -13
OMIT 3   7   3
OMIT 2   1   0
OMIT 0   0   4
OMIT 1   2   0
SHEL 6.5 0.85
BOND $H
LIST 4
ACTA
FMAP 2
PLAN 20
WGHT    0.056600
FVAR       0.46524
ZR1   2    0.423588    0.334945    0.500347    11.00000    0.02100    0.02894 =
         0.02821    0.00067   -0.00016   -0.00030
CL2   1    0.093776    0.390186    0.387586    11.00000    0.02388    0.03725 =
         0.02962   -0.00623   -0.00198    0.00213
CL3   1    0.281984    0.132931    0.627374    11.00000    0.03961    0.04146 =
         0.04135    0.00636    0.00536   -0.00601
CL1   1    0.571702    0.137468    0.372053    11.00000    0.04094    0.03972 =
         0.03797   -0.01036    0.00328    0.00594
CL4   1    0.750421    0.392712    0.615018    11.00000    0.02635    0.03745 =
         0.03247    0.00694   -0.00522   -0.00357
HKLF 4

REM  SMB_ZrCl4_b_0m_a.res in Pca2(1)
REM R1 =  0.0382 for     815 Fo > 4sig(Fo)  and  0.0494 for all     934 data
REM     46 parameters refined using      1 restraints

END

WGHT      0.0566      0.0000

REM Highest difference peak  2.129,  deepest hole -0.477,  1-sigma level  0.162
Q1    1   0.7313  0.3346  0.5019  11.00000  0.05    2.13
Q2    1   0.0994  0.3513  0.5024  11.00000  0.05    0.88
Q3    1   0.5617  0.1304  0.6335  11.00000  0.05    0.83
Q4    1   0.5809  0.6034  0.6090  11.00000  0.05    0.83
Q5    1   0.3927  0.3731  0.3903  11.00000  0.05    0.78
Q6    1   0.2871  0.1410  0.3655  11.00000  0.05    0.73
Q7    1   0.2549  0.5965  0.3956  11.00000  0.05    0.72
Q8    1   0.8684  0.1380  0.3796  11.00000  0.05    0.58
Q9    1   0.4456  0.3880  0.6122  11.00000  0.05    0.55
Q10   1   0.0465  0.4005  0.3956  11.00000  0.05    0.43
Q11   1   0.2265  0.1222  0.6207  11.00000  0.05    0.42
Q12   1   0.4195 -0.1108  0.4999  11.00000  0.05    0.38
Q13   1   0.6122  0.2689  0.6778  11.00000  0.05    0.36
Q14   1   0.0114  0.1347  0.6108  11.00000  0.05    0.36
Q15   1   0.7437  0.2643  0.3995  11.00000  0.05    0.35
Q16   1   0.8243  0.0687  0.2789  11.00000  0.05    0.34
Q17   1   0.1494  0.1073  0.7036  11.00000  0.05    0.30
Q18   1   0.6070  0.1881  0.7530  11.00000  0.05    0.30
Q19   1   0.4884  0.1355  0.4430  11.00000  0.05    0.28
Q20   1   0.8767  0.1473  0.6472  11.00000  0.05    0.27
;
_shelx_res_checksum              95653
_shelx_hkl_file
;
  -1   0   0   -0.90    3.30
   1   0   0   -0.50    2.40
   1   0   0    5.60    4.10
  -1   0   0   -2.00    2.50
  -2   0   0   74.59   10.60
   2   0   0   81.89   12.10
   2   0   0   79.29    8.60
  -2   0   0   77.39   10.40
  -3   0   0   -6.50    6.20
   3   0   0   12.80    5.90
   3   0   0   -7.00    6.80
  -3   0   0    3.70    6.80
   4   0   0    9.00    7.40
  -4   0   0    1.10    8.80
   4   0   0    2.10    9.00
  -4   0   0    1.90    7.80
  -5   0   0   -8.30    7.80
   5   0   0    0.80   11.60
  -5   0   0   -1.90    9.10
   6   0   0 2503.25  113.99
  -6   0   0 2461.65  103.89
  -6   0   0 2592.34   98.99
  -7   0   0   -9.90   12.50
   7   0   0   13.70   21.00
   0  -1   0 1799.52   52.59
   0   1   0 1993.40   51.39
   0  -1   0 1831.32   51.39
   0   1   0 1892.51   51.59
   1   1   0  719.73   28.20
   1  -1   0  661.23   27.70
  -1  -1   0  740.53   25.80
  -1   1   0  700.83   28.00
  -1   1   0  730.83   26.90
  -1  -1   0  698.63   28.80
   2  -1   0   65.19   11.70
   2   1   0   53.09   11.20
  -2  -1   0   55.09   11.70
   2  -1   0   71.79   11.30
  -2   1   0   61.49    8.00
  -2   1   0   52.89    9.60
  -2  -1   0   61.59   10.60
  -3   1   0 1516.05   57.39
  -3  -1   0 1541.65   60.29
   3  -1   0 1352.06   59.39
  -3   1   0 1548.15   50.99
   3   1   0 1503.35   62.99
  -3  -1   0 1471.75   56.89
   3  -1   0 1489.75   54.89
   4  -1   0   60.59   17.00
  -4  -1   0   46.00   13.50
   4  -1   0   61.99   13.40
  -4   1   0   51.39   14.40
   4   1   0   41.30   15.70
  -4  -1   0   34.10   13.80
  -4   1   0   51.59   11.90
   5  -1   0  114.69   24.20
  -5  -1   0   94.79   20.70
  -5   1   0   78.49   18.90
   5   1   0   75.59   20.90
  -5  -1   0   83.89   19.30
   5  -1   0   83.49   17.20
  -5   1   0   94.39   17.70
   6  -1   0  386.46   42.60
  -6  -1   0  352.26   36.20
  -6   1   0  395.66   38.00
  -6  -1   0  400.06   37.50
   6   1   0  382.26   42.10
   7   1   0   -6.90   16.10
  -7  -1   0   32.60   18.70
   7  -1   0  -17.70   17.90
  -7   1   0    6.80   14.00
  -7  -1   0    8.60   17.90
   0  -2   0  606.04   27.90
   0   2   0  625.84   26.30
   0  -2   0  597.44   25.70
   0   2   0  643.74   25.60
  -1  -2   0   -3.20    6.00
   1   2   0    1.30    5.80
  -1   2   0    2.90    5.10
   1  -2   0   10.10    3.80
  -1  -2   0   10.20    5.60
   1  -2   0    0.80    6.90
  -1   2   0    8.30    6.30
   1   2   0   13.00    4.80
  -2  -2   0  228.68   17.90
   2   2   0  277.37   22.50
  -2   2   0  247.18   19.10
  -2   2   0  239.18   20.80
  -2  -2   0  229.88   21.90
   2  -2   0  282.07   22.80
   3  -2   0 9999.00  265.17
  -3  -2   0 9652.23  267.17
  -3  -2   0 9569.84  258.47
   3   2   0 9795.62  267.47
  -3   2   0 9365.06  261.37
  -3   2   0 9659.93  242.78
   3  -2   0 9628.24  261.57
   4  -2   0   46.10   14.80
  -4  -2   0   53.79   16.60
   4   2   0   46.50   16.70
  -4  -2   0   28.30   12.70
  -4   2   0   42.90   13.70
  -4   2   0   55.09   11.10
   4  -2   0   31.30   15.70
  -5  -2   0   65.19   17.50
   5  -2   0   78.09   21.70
   5   2   0  121.79   25.10
  -5   2   0  153.58   25.00
   5  -2   0  109.89   21.00
  -5  -2   0   87.59   21.70
   6  -2   0   70.59   24.30
  -6   2   0   87.39   23.10
   6   2   0   62.39   22.20
  -6  -2   0  106.99   25.70
  -6  -2   0   75.39   21.10
  -7  -2   0    3.30   14.20
   7   2   0  -13.70   15.20
  -7   2   0    1.00   16.00
  -7  -2   0   26.30   20.90
   7  -2   0   24.10   23.00
   0  -3   0 1199.98   45.70
   0  -3   0 1178.98   49.20
   0   3   0 1256.67   46.50
   0   3   0 1219.58   46.90
   1   3   0   -0.90    4.80
  -1   3   0   -1.00    7.50
  -1  -3   0   -1.10    6.50
   1  -3   0    9.70   10.00
   1  -3   0   -6.80    4.60
  -1  -3   0    1.60    7.80
  -1   3   0   -3.80    5.00
   1   3   0   -2.10    7.70
  -2  -3   0  468.55   23.20
  -2  -3   0  458.85   33.00
  -2   3   0  524.15   32.70
   2   3   0  502.25   32.20
   2   3   0  501.45   26.20
  -2   3   0  472.25   29.40
   2  -3   0  482.55   33.90
  -3   3   0  196.48   21.10
  -3  -3   0  158.98   22.60
  -3   3   0  259.57   26.20
   3  -3   0  151.58   21.70
   3   3   0  161.98   23.80
  -3  -3   0  140.59   18.40
  -4  -3   0  210.98   24.50
  -4  -3   0  120.49   24.20
   4  -3   0  174.28   25.60
   4   3   0  194.68   28.90
   4  -3   0  214.68   26.90
  -4   3   0  176.38   21.90
   5  -3   0   43.00   17.60
  -5   3   0   57.49   18.10
   5   3   0   48.00   20.30
  -5  -3   0   61.09   19.60
  -5  -3   0   53.69   17.50
   5  -3   0   82.59   21.90
   6  -3   0  382.56   44.30
  -6   3   0  440.56   41.40
   6  -3   0  404.16   41.60
  -6  -3   0  522.55   43.40
   6   3   0  367.06   45.70
  -6  -3   0  384.16   42.30
  -7  -3   0    0.90   13.20
   7  -3   0   20.10   22.50
  -7  -3   0  -12.20   18.60
   7   3   0   -6.20   20.50
  -7   3   0   -2.20   14.70
   0   4   0 7012.80  198.88
   0   4   0 7463.25  200.78
   0  -4   0 7103.69  197.68
   0  -4   0 7213.58  205.08
  -1   4   0  335.57   26.70
   1   4   0  303.37   25.90
  -1  -4   0  318.87   27.60
   1  -4   0  284.37   19.80
  -1  -4   0  270.37   23.90
   1  -4   0  330.67   29.80
  -1   4   0  310.27   24.80
   1   4   0  290.87   22.40
   2  -4   0  -15.40    8.80
  -2   4   0   -4.40    7.10
  -2  -4   0   -4.00    6.70
   2   4   0   -5.10    6.40
  -2  -4   0  -16.50    7.70
  -2   4   0    1.70   10.30
   2   4   0   -9.20    9.00
  -3  -4   0  512.05   25.20
  -3   4   0  521.95   38.40
   3   4   0  502.75   31.50
   3  -4   0  467.75   39.70
  -3   4   0  574.74   37.20
   3   4   0  514.75   39.30
  -3  -4   0  528.65   40.80
  -4  -4   0    3.70   10.90
   4  -4   0  -12.10   11.30
  -4  -4   0   10.10   14.90
   4   4   0   -3.50   14.00
  -4   4   0   11.60   11.50
   4  -4   0   13.40   15.10
   5  -4   0  263.17   35.20
  -5  -4   0  194.68   33.90
   5   4   0  241.18   39.70
  -5   4   0  240.78   29.60
  -5  -4   0  262.77   31.40
   5  -4   0  247.88   35.20
  -6  -4   0  809.32   64.39
   6  -4   0  906.51   64.29
  -6   4   0  651.13   51.09
   6   4   0  838.02   67.29
  -6  -4   0  757.22   55.19
   6  -4   0  876.51   63.79
   7   4   0   32.00   26.80
  -7  -4   0  -10.60   21.20
  -7   4   0    4.80   18.00
   7  -4   0  -29.00   20.00
  -7  -4   0   16.90   19.90
   0  -5   0   -2.90   10.20
   0   5   0    5.50   10.10
   0   5   0   18.30   11.30
   0  -5   0   -0.90    8.30
   1   5   0  268.07   25.10
   1   5   0  291.97   28.80
  -1   5   0  295.87   27.90
  -1  -5   0  296.27   27.20
  -1  -5   0  356.26   31.20
  -1   5   0  306.67   28.70
   1  -5   0  260.87   30.40
   1  -5   0  279.77   22.60
   2  -5   0  146.19   14.30
  -2  -5   0  129.79   18.60
   2   5   0  138.09   24.70
  -2   5   0  183.08   23.30
  -2   5   0  181.78   24.50
  -2  -5   0  139.49   25.60
   2  -5   0  166.68   27.90
   2   5   0  110.59   18.60
  -3  -5   0  172.48   30.80
   3   5   0  210.18   30.10
   3   5   0  212.28   23.20
   3  -5   0  221.88   32.30
  -3   5   0  166.18   27.80
  -3   5   0  176.38   24.00
   4  -5   0   11.80   17.20
  -4   5   0   10.40   13.40
   4   5   0    2.30   16.70
  -4   5   0   13.00   15.80
  -4  -5   0   23.30   15.70
   4   5   0    3.20   10.70
   5  -5   0  120.89   30.30
  -5  -5   0   93.39   28.20
   5  -5   0   68.69   25.90
  -5   5   0   61.29   21.40
   5   5   0  102.79   28.90
   5   5   0  107.69   22.90
   6  -5   0   -8.90   18.50
  -6   5   0   11.70   17.10
  -6  -5   0   -6.90   22.10
   6  -5   0  -18.10   18.70
   6   5   0   18.40   25.00
   6   5   0   -4.70   14.70
   0  -6   0  476.35   36.30
   0   6   0  573.44   41.10
   0  -6   0  418.46   38.90
   0   6   0  526.05   38.50
  -1  -6   0   35.10   16.60
   1   6   0   49.50   18.20
  -1   6   0   42.10   17.20
   1  -6   0    6.50   16.00
  -1  -6   0   61.99   18.90
   1   6   0   59.09   17.20
   1  -6   0   70.49   16.50
  -1   6   0   55.09   16.80
  -2  -6   0  302.57   34.90
  -2   6   0  263.67   30.70
   2  -6   0  245.28   38.90
   2   6   0  259.77   27.60
  -2  -6   0  275.17   29.40
  -2   6   0  288.87   32.20
   2   6   0  287.97   34.00
   3   6   0  773.12   56.29
   3   6   0  755.02   46.20
  -3   6   0  670.73   49.70
  -3   6   0  707.33   51.29
  -3  -6   0  727.83   55.19
   3  -6   0  812.62   61.39
   4  -6   0   45.60   25.70
   4   6   0   85.49   28.20
  -4  -6   0   39.90   22.20
  -4   6   0   48.20   21.60
   4   6   0   59.79   19.20
  -4   6   0   49.80   20.20
   5  -6   0    2.30   21.70
  -5   6   0   34.10   21.10
  -5  -6   0  -13.60   18.10
   5   6   0  -10.00   12.80
   5  -6   0    9.80   21.40
   5   6   0   -2.10   21.60
   0   7   0    5.60   12.50
   0   7   0    1.30   14.90
   0  -7   0   28.10   19.80
   0  -7   0    7.40   14.80
   1   7   0   81.19   21.60
  -1   7   0   75.29   23.90
   1   7   0   70.79   23.60
   1  -7   0   25.90   20.40
  -1  -7   0   82.59   24.10
  -1   7   0   83.29   23.20
  -1  -7   0   71.89   23.50
   2  -7   0   28.00   22.70
  -2   7   0   57.09   22.30
  -2   7   0   64.59   22.20
  -2  -7   0   68.89   23.90
   2   7   0   48.10   23.20
  -2  -7   0   61.59   21.00
   2   7   0   60.09   19.70
  -3   7   0    3.60   17.90
   3  -7   0   53.39   24.90
   3   7   0   32.60   17.20
  -3   7   0   13.10   18.70
  -3  -7   0    4.60   16.40
   3   7   0   -7.20   19.50
   4   7   0   16.80   18.70
   4   7   0   -3.10   19.90
  -4   7   0   39.00   23.70
   4  -7   0   41.80   27.80
  -4   7   0   29.70   22.10
  -4  -7   0   25.20   22.50
  -5   7   0  117.19   33.00
   5   7   0  188.28   32.20
   5  -7   0  121.39   38.80
  -5  -7   0  116.59   34.80
   5   7   0   98.79   36.20
   0   8   0   77.29   25.60
   0  -8   0   93.09   31.50
  -1   8   0   60.59   25.50
  -1  -8   0   41.70   24.30
   1  -8   0  108.49   34.40
  -1  -8   0   48.90   23.80
   1   8   0   49.60   21.40
   2  -8   0   33.20   27.40
  -2   8   0   52.79   24.60
  -2  -8   0   42.30   23.70
   2   8   0   20.50   17.10
   3  -8   0  115.89   40.80
  -3  -8   0   58.59   28.00
   3   8   0   73.79   24.40
  -3   8   0  104.49   33.20
   0  -9   0   26.60   28.70
   0   9   0   41.40   23.80
  -1   9   0    7.00   24.80
  -1  -9   0    5.50   25.80
   1  -9   0   20.20   32.00
   1   9   0    7.20   21.00
   0   0   1    1.10    1.70
   0   0   1    5.00    2.20
  -1   0  -1    1.80    2.60
  -1   0   1    7.10    3.90
  -1   0   1    4.30    3.70
   1   0   1    1.80    4.30
   1   0   1    6.10    3.80
   1   0  -1   -2.10    2.70
  -1   0  -1    3.60    3.90
  -1   0   1    4.30    4.60
   2   0   1 1469.25   53.69
  -2   0   1 1448.46   50.39
  -2   0  -1 1451.95   50.49
  -2   0  -1 1491.65   48.50
   2   0  -1 1480.45   53.69
   2   0   1 1490.95   46.20
   2   0  -1 1438.46   44.60
  -2   0   1 1525.95   49.50
  -3   0   1   -4.20    6.20
  -3   0   1    8.70    7.70
   3   0  -1    5.80    5.30
  -3   0  -1   -8.50    4.70
   3   0   1    2.30    6.10
   3   0   1   16.20    9.40
  -3   0  -1    7.10    8.20
   3   0  -1   -2.90    7.10
  -4   0   1  173.38   20.80
  -4   0  -1  203.88   21.30
  -4   0  -1  242.58   22.00
   4   0  -1  185.98   24.30
   4   0   1  248.68   26.70
  -4   0   1  240.58   21.90
   4   0   1  225.88   17.50
   4   0  -1  194.68   16.60
  -5   0   1    2.90    9.30
  -5   0  -1    6.90   10.10
   5   0   1   -6.80   10.90
  -5   0  -1   -1.40    8.10
  -5   0   1    3.70    9.60
   5   0  -1   -7.60    9.20
  -6   0  -1  145.29   26.50
  -6   0   1  177.88   29.50
  -6   0  -1  183.18   29.00
  -6   0   1  136.39   24.40
   6   0   1  187.98   33.90
   6   0  -1  133.19   30.20
  -7   0   1    6.10   14.10
   7   0  -1  -29.00   17.40
   7   0   1   -2.80   19.30
  -7   0  -1   -2.50   13.60
   0   1  -1    3.60    2.80
   0  -1  -1   -4.70    2.60
   0   1   1    1.60    2.30
   0  -1   1    6.20    4.70
   0  -1  -1   -2.20    3.40
   0  -1   1    3.10    3.70
   0   1   1   -1.70    4.10
  -1   1   1 2422.36   72.79
   1   1  -1 2430.96   68.59
  -1   1   1 2417.36   67.99
  -1  -1  -1 2411.16   64.69
  -1  -1  -1 2380.86   71.19
   1  -1   1 2350.06   66.79
   1  -1   1 2337.07   71.09
  -1  -1   1 2395.86   71.39
  -1  -1   1 2286.27   61.79
   1   1   1 2375.96   71.59
  -1   1  -1 2546.55   68.79
   1   1   1 2344.67   64.89
  -1   1  -1 2435.56   64.99
  -1  -1   1 2362.86   68.99
   1  -1  -1 2421.56   70.99
  -2   1   1  131.79    9.90
   2   1  -1  133.49   14.40
   2  -1   1  163.58   15.50
  -2   1   1  166.38   14.70
  -2   1   1  140.99   16.90
  -2  -1  -1  174.58   17.00
  -2  -1  -1  158.78   13.40
   2  -1   1  164.78   15.50
   2  -1  -1  155.68   14.90
  -2   1  -1  142.69   13.70
  -2  -1   1  145.69   14.30
  -2   1  -1  139.59   11.70
  -2  -1   1  154.18   16.20
   2   1   1  157.78   16.60
   2   1   1  147.59    9.60
  -3   1   1   79.49   14.40
   3  -1   1   82.49   14.50
  -3  -1  -1  105.59   14.10
   3  -1   1   99.19   16.90
  -3   1   1   87.79   11.50
   3   1  -1   86.09   15.60
  -3  -1  -1   88.09   16.80
  -3   1  -1   87.49   13.70
  -3  -1   1   96.49   16.00
   3   1   1   77.89   18.00
   3   1   1   94.69    9.20
   3  -1  -1  100.29   18.40
   3  -1  -1   96.49   14.90
  -3  -1   1   98.39   16.80
  -3   1  -1   80.09   14.20
   4  -1   1  488.35   35.60
  -4  -1  -1  457.45   33.70
  -4  -1  -1  449.06   30.60
  -4   1   1  459.15   27.20
   4  -1   1  470.25   29.70
   4   1  -1  416.66   34.10
  -4   1   1  424.06   31.90
  -4   1  -1  463.55   28.90
  -4   1  -1  434.26   31.00
   4  -1  -1  464.75   36.30
   4  -1  -1  454.45   28.80
  -4  -1   1  453.15   32.40
  -4  -1   1  454.25   32.50
   4   1   1  501.55   37.80
   5  -1   1  161.48   28.40
  -5   1   1  139.99   23.90
   5  -1   1  146.29   20.00
  -5  -1  -1  151.18   23.70
  -5   1   1  134.29   18.90
   5   1  -1  137.79   27.00
  -5  -1  -1  153.98   25.70
   5  -1  -1  163.98   28.30
  -5  -1   1  185.88   24.20
   5  -1  -1  162.18   21.30
  -5  -1   1  171.68   23.90
  -5   1  -1  174.78   21.80
   5   1   1  113.29   24.50
  -5   1  -1  100.19   20.20
  -6  -1  -1   31.60   15.40
  -6   1   1   71.79   21.20
  -6  -1  -1   35.70   17.40
   6  -1   1   20.30   17.60
   6   1  -1   68.49   24.50
  -6   1  -1   50.39   17.80
   6  -1  -1   86.99   26.70
   6   1   1   61.89   22.10
  -6   1  -1   27.30   16.00
  -6  -1   1   48.70   18.00
  -6  -1   1   59.79   20.40
   7   1  -1  274.67   45.10
  -7   1   1  347.67   40.50
  -7  -1  -1  341.57   39.10
  -7  -1  -1  349.27   41.10
   7  -1   1  293.47   47.60
   7   1   1  226.78   42.80
  -7  -1   1  325.57   39.10
  -7   1  -1  359.26   40.20
  -7  -1   1  383.96   41.90
   7  -1  -1  306.77   45.20
   0   2   1    3.20    5.10
   0  -2  -1    2.20    5.00
   0   2  -1   -2.50    3.70
   0   2   1    4.10    4.10
   0   2  -1   -3.80    3.90
   0  -2  -1    2.80    5.90
   0  -2   1    0.30    5.80
   0  -2   1    0.90    5.50
   1  -2   1  637.04   24.40
   1   2  -1  626.14   27.00
  -1  -2  -1  613.34   30.40
  -1  -2  -1  560.24   25.30
   1  -2   1  647.14   32.00
  -1   2   1  606.84   26.80
  -1   2   1  589.64   30.40
   1   2  -1  610.74   25.80
   1   2   1  665.03   23.60
   1   2   1  654.33   31.40
  -1   2  -1  615.44   28.10
  -1   2  -1  590.54   26.10
  -1  -2   1  614.14   25.60
   1  -2  -1  620.44   31.70
  -1  -2   1  582.04   30.60
  -2   2   1  399.16   27.90
   2  -2   1  352.76   26.10
  -2  -2  -1  397.96   27.50
   2   2  -1  389.76   25.30
  -2   2   1  394.66   24.00
  -2  -2  -1  384.96   17.60
  -2  -2  -1  331.47   20.90
   2   2   1  341.07   26.30
  -2   2  -1  381.76   17.90
  -2   2  -1  395.06   24.40
  -2   2  -1  382.06   23.80
  -2  -2   1  344.37   26.60
  -2  -2   1  396.96   24.50
   2  -2  -1  395.86   27.20
   3  -2   1  146.69   19.50
  -3  -2  -1  164.38   17.80
  -3  -2  -1  139.39   20.30
   3   2  -1  143.29   19.90
  -3   2   1  157.88   18.10
  -3   2   1  169.88   21.90
   3  -2   1  136.09   21.30
  -3   2  -1  175.78   14.50
  -3  -2   1  165.78   18.70
   3   2   1  138.39   23.20
   3  -2  -1  178.58   21.20
  -3   2  -1  149.88   17.30
  -3  -2   1  142.59   19.90
   4   2  -1  245.58   28.20
  -4   2   1  245.78   17.10
   4  -2   1  212.58   24.80
   4  -2   1  274.97   26.20
  -4   2   1  216.78   22.90
  -4  -2  -1  215.78   22.70
  -4  -2  -1  256.47   27.50
   4   2   1  191.68   28.30
  -4   2  -1  241.78   24.60
  -4   2  -1  225.88   19.80
  -4  -2   1  216.18   23.80
   4  -2  -1  196.48   22.90
   4  -2  -1  209.48   28.20
  -4  -2   1  250.27   27.10
  -5  -2  -1  409.16   33.20
   5  -2   1  363.66   36.30
   5   2  -1  304.07   34.70
  -5  -2  -1  332.47   35.20
   5  -2   1  350.06   32.50
  -5   2   1  370.96   34.20
   5  -2  -1  331.37   32.20
  -5   2  -1  339.27   31.70
   5  -2  -1  341.97   37.20
  -5  -2   1  408.86   37.40
  -5  -2   1  358.36   34.00
  -5   2  -1  358.16   27.10
   5   2   1  383.36   40.00
  -6   2   1    5.00   12.30
   6  -2   1   13.10   23.20
   6  -2   1    5.70   15.20
  -6  -2  -1   -1.80   14.30
  -6  -2  -1   12.30   14.00
   6   2  -1    9.00   16.70
  -6   2  -1   -4.50   10.80
  -6  -2   1   -3.90   10.80
  -6  -2   1   32.90   19.40
   6   2   1   -7.80   17.00
   6  -2  -1   38.10   18.80
  -7  -2  -1   -7.10   13.50
  -7  -2  -1   -2.40   16.30
  -7   2   1   43.30   20.10
   7  -2   1   63.69   27.10
   7   2  -1   19.40   19.90
  -7  -2   1   46.00   21.30
  -7  -2   1   35.40   21.20
  -7   2  -1   20.40   16.60
   7  -2  -1   70.49   29.00
   7   2   1   39.00   26.40
   0  -3  -1   -1.20    7.60
   0  -3   1   -5.30    6.30
   0   3   1   14.10    8.70
   0   3   1  -13.50    4.30
   0   3  -1   -2.20    5.40
   0  -3   1   -9.10    6.00
   0   3  -1    0.50    5.40
   0  -3  -1    2.60    6.80
  -1  -3  -1   35.60    9.90
   1   3  -1   23.80    8.30
   1  -3   1   24.10    7.50
   1  -3   1    6.30    8.60
  -1  -3  -1   15.70    9.30
  -1   3   1   23.30    8.30
   1   3  -1    6.90    6.50
  -1   3   1   33.90   11.80
   1  -3  -1   24.30    6.10
  -1   3  -1   24.50    9.30
  -1   3  -1   16.10    8.30
   1  -3  -1   37.70   12.20
   1   3   1   24.30    7.40
  -1  -3   1   19.10    9.90
  -1  -3   1   31.80    9.50
   1   3   1   23.10   10.90
   2   3  -1 1053.79   48.40
  -2   3   1 1121.69   47.00
  -2   3   1 1038.50   50.99
   2  -3   1 1125.79   53.89
  -2  -3  -1 1115.19   41.10
   2   3  -1 1138.99   44.50
  -2  -3  -1 1095.69   52.59
  -2  -3   1 1058.99   39.30
  -2   3  -1 1084.89   46.90
   2   3   1 1051.69   51.49
  -2   3  -1 1040.10   47.00
  -2  -3   1 1054.19   53.09
   2   3   1 1083.09   40.90
   2  -3  -1 1085.29   52.89
  -2   3  -1 1056.89   36.70
   3   3  -1   53.29   16.30
  -3   3   1   48.80   12.70
   3  -3   1   32.60   14.40
  -3  -3  -1   17.50   12.00
   3  -3   1   33.30   12.70
  -3  -3  -1   44.30   12.20
  -3   3   1   39.40   15.20
   3   3   1   34.30   14.30
   3  -3  -1   78.89   18.50
  -3   3  -1   37.10    8.30
  -3  -3   1   42.80   13.00
  -3  -3   1   35.20   15.50
  -3   3  -1   51.49   13.20
  -4   3   1 1213.58   59.29
   4  -3   1 1321.77   65.59
   4  -3   1 1221.78   61.49
  -4  -3  -1 1097.89   64.89
   4   3  -1 1197.98   65.39
  -4   3   1 1302.07   68.19
  -4  -3  -1 1225.68   57.79
   4  -3  -1 1316.87   64.29
  -4   3  -1 1206.38   58.69
  -4  -3   1 1263.87   61.59
  -4   3  -1 1238.58   46.50
   4   3   1 1134.19   66.59
  -4  -3   1 1292.67   67.09
   5   3  -1   16.10   18.90
  -5   3   1   45.40   16.30
  -5  -3  -1   24.00   16.30
   5  -3   1   39.00   18.60
   5  -3   1   56.19   19.50
  -5  -3  -1   57.19   17.10
  -5   3  -1   58.69   16.90
   5  -3  -1   44.30   17.60
  -5  -3   1   39.40   15.90
   5   3   1   26.60   20.00
  -5  -3   1   49.30   20.00
   5  -3  -1   54.49   21.00
  -6  -3  -1   48.10   22.80
   6  -3   1   13.60   17.90
  -6   3   1   55.69   20.40
   6  -3   1   46.80   21.40
  -6  -3  -1   44.10   17.60
   6   3  -1   36.40   25.50
  -6  -3   1   53.79   22.50
   6   3   1   46.30   26.20
   6  -3  -1   28.30   21.10
  -6   3  -1   30.30   16.20
  -6  -3   1   43.30   19.20
   6  -3  -1   35.70   21.10
  -7   3   1   -6.10   15.10
  -7  -3  -1    4.10   17.70
   7   3  -1   40.80   25.40
  -7  -3  -1   -5.00   18.10
   7  -3   1   28.60   22.60
   7   3   1    3.00   25.00
   7  -3  -1   -2.30   22.60
  -7  -3   1   13.10   21.40
  -7  -3   1   12.20   17.70
  -7   3  -1   43.40   19.70
   0  -4   1   -8.80    9.60
   0   4   1   -3.40    7.30
   0   4   1   -4.80    8.60
   0  -4  -1    0.40    9.60
   0  -4  -1   -5.00    8.50
   0   4  -1   -7.60    7.20
   0  -4   1  -13.70    7.20
   0   4  -1    1.50    7.70
   1  -4   1  915.81   49.20
  -1   4   1  883.41   46.40
  -1   4   1  858.71   43.00
   1   4  -1  811.92   40.70
  -1  -4  -1  871.31   43.40
  -1  -4  -1  844.72   44.50
   1   4  -1  931.51   42.80
   1  -4   1  827.52   37.70
   1   4   1  874.11   39.50
  -1  -4   1  854.91   41.80
   1   4   1  913.61   47.10
  -1   4  -1  875.41   44.70
  -1  -4   1  943.91   47.80
   1  -4  -1  872.11   35.50
  -1   4  -1  910.61   41.60
   1  -4  -1  850.01   48.60
   2  -4   1  263.47   29.40
  -2   4   1  295.77   28.20
  -2  -4  -1  281.97   29.10
   2   4  -1  299.87   26.90
  -2   4   1  295.57   25.80
   2  -4   1  277.97   19.20
   2   4  -1  271.47   22.80
  -2  -4  -1  318.97   23.80
  -2  -4   1  291.37   22.20
   2   4   1  326.47   22.20
   2  -4  -1  315.67   31.10
  -2   4  -1  281.97   25.50
  -2   4  -1  323.17   26.50
  -2  -4   1  321.77   30.60
   2   4   1  324.77   30.20
  -3  -4  -1   13.80    8.10
   3   4  -1   15.40   12.70
   3  -4   1   21.20   15.50
  -3   4   1   15.30   13.70
  -3   4   1   12.60    9.80
  -3  -4  -1   22.60   14.80
   3   4  -1   10.30    8.40
   3   4   1   18.70    9.50
  -3   4  -1    2.20    7.90
   3   4   1    6.30   13.00
  -3   4  -1    4.50   10.20
   3  -4  -1    7.90   12.80
  -3  -4   1    8.70   12.40
  -3   4  -1    1.00    6.20
  -4  -4  -1   37.40   14.40
   4  -4   1   42.30   19.40
   4  -4   1   42.00   16.60
   4   4  -1   18.00   14.30
  -4   4   1   62.29   17.60
  -4   4   1   44.80   20.50
  -4  -4  -1    9.00   15.70
  -4  -4   1   22.20   13.80
   4  -4  -1   34.90   18.10
  -4  -4   1   19.80   16.40
  -4   4  -1   39.70   14.60
   4   4   1   41.80   18.70
  -5  -4  -1  260.37   30.80
   5  -4   1  269.77   36.10
  -5  -4  -1  165.28   33.10
  -5   4   1  201.48   28.60
   5  -4   1  266.27   34.30
   5   4  -1  237.68   35.20
   5  -4  -1  184.38   33.50
   5  -4  -1  241.98   33.90
  -5   4  -1  242.68   29.70
  -5  -4   1  284.97   33.40
  -5  -4   1  223.98   37.80
   5   4   1  253.67   41.10
   6  -4   1   52.29   23.00
  -6   4   1   38.00   20.00
   6  -4   1   65.09   26.50
  -6  -4  -1   45.20   24.80
  -6  -4  -1   47.20   20.60
   6   4  -1   34.70   25.40
   6  -4  -1   50.29   25.10
  -6  -4   1   71.69   23.10
  -6  -4   1   54.39   24.00
   6  -4  -1   31.00   23.00
  -6   4  -1   51.49   19.90
   6   4   1   40.60   24.90
   7  -4   1  106.69   31.70
   7   4  -1   79.69   35.20
  -7  -4  -1  139.39   38.50
  -7  -4  -1   91.99   27.20
  -7  -4   1   39.50   21.50
   7  -4  -1  106.29   36.40
   7   4   1  136.89   40.00
  -7  -4   1  103.49   34.40
   0  -5   1   -6.50    8.20
   0  -5  -1   -3.30    9.90
   0   5   1   12.60    9.80
   0   5  -1   -2.10    8.80
   0  -5   1  -16.20    8.50
   0   5  -1   -1.80    7.50
   0  -5  -1    2.30    9.00
   0   5   1   -3.00   10.00
   1   5  -1  843.12   46.60
   1   5  -1  972.80   48.90
  -1   5   1 1011.90   54.19
   1  -5   1 1039.80   45.20
  -1  -5  -1 1012.70   51.29
   1  -5   1  951.90   56.09
  -1   5   1  956.90   50.39
  -1  -5  -1  952.80   52.19
  -1  -5   1  842.12   47.20
  -1  -5   1 1025.90   54.79
   1  -5  -1  942.81   42.30
   1  -5  -1 1067.39   59.19
   1   5   1  959.20   46.70
   1   5   1  941.21   52.79
  -1   5  -1  962.00   47.50
  -1   5  -1  889.11   50.49
   2  -5   1  325.37   35.40
  -2  -5  -1  304.97   27.30
   2  -5   1  291.27   21.40
   2   5  -1  291.77   26.10
   2   5  -1  325.27   30.50
  -2   5   1  329.37   32.00
  -2   5   1  325.97   29.00
  -2  -5  -1  334.87   32.30
   2   5   1  355.16   26.90
  -2   5  -1  362.26   32.10
  -2  -5   1  262.47   24.80
   2   5   1  262.17   30.10
  -2  -5   1  341.97   33.40
   2  -5  -1  292.57   34.20
  -2   5  -1  341.17   30.10
  -3  -5  -1   17.60   15.30
  -3   5   1    9.70   10.30
  -3   5   1   -7.20   12.50
   3  -5   1   -2.40   13.30
   3   5  -1   17.50   13.80
   3   5  -1    9.00   11.60
   3  -5  -1   17.80   17.10
  -3   5  -1   -9.40    8.60
   3   5   1    8.00   14.40
  -3  -5   1   -2.30   12.10
   3   5   1   44.40   13.30
  -3   5  -1   36.30   15.40
  -4  -5  -1   78.89   23.70
   4   5  -1   96.79   20.80
   4  -5   1  131.39   30.80
  -4   5   1  116.59   23.20
   4   5  -1  108.99   26.60
   4  -5   1  125.99   25.30
  -4   5   1  149.09   30.50
   4  -5  -1  146.99   30.70
  -4  -5   1   90.89   25.50
   4   5   1   66.19   22.10
  -4   5  -1   72.99   20.50
   4   5   1  118.89   20.90
  -5   5   1  117.19   25.70
   5  -5   1  173.68   35.60
  -5  -5  -1  138.49   31.90
   5  -5   1  105.89   28.20
   5   5  -1  148.59   26.10
   5   5  -1   74.09   27.40
  -5  -5   1  131.49   33.00
   5  -5  -1   99.59   29.10
   5   5   1  111.29   22.30
  -5   5  -1  105.19   25.40
   5   5   1  139.09   35.50
   5  -5  -1  188.98   36.90
  -6  -5  -1   -1.70   23.90
   6  -5   1   -0.20   18.40
   6   5  -1   20.60   24.30
   6  -5   1   28.50   21.90
  -6   5   1    4.00   17.40
   6   5  -1   11.00   16.10
   6  -5  -1   10.00   22.10
  -6   5  -1    6.90   14.20
   6   5   1   35.80   18.30
   6  -5  -1   15.40   21.50
   6   5   1   14.90   22.10
  -6  -5   1   11.80   23.70
   0  -6   1   11.50   13.20
   0   6  -1  -20.40    8.70
   0   6   1   -0.20   12.30
   0  -6  -1   -2.40   11.50
   0   6   1    3.90   10.50
   0  -6  -1   -7.30   12.60
   0   6  -1    3.10   13.50
   0  -6   1    6.70   15.90
  -1   6   1  159.18   29.80
   1   6  -1  163.58   23.40
  -1   6   1  156.48   26.70
  -1  -6  -1  178.88   29.10
   1  -6   1  178.58   21.50
   1   6  -1  163.38   25.50
   1  -6   1  134.89   27.80
  -1  -6  -1  131.29   24.60
  -1   6  -1  191.18   24.10
  -1  -6   1  129.09   24.80
   1   6   1  138.19   25.60
   1  -6  -1  130.39   28.30
  -1   6  -1  140.29   26.20
  -1  -6   1  169.08   25.00
   1  -6  -1  146.49   20.90
   1   6   1  186.88   23.50
   2   6  -1  539.65   42.00
  -2   6   1  508.85   39.90
   2  -6   1  484.55   47.50
   2   6  -1  426.76   35.10
  -2  -6  -1  440.86   41.40
  -2   6   1  436.36   40.10
  -2  -6  -1  416.06   34.90
   2  -6  -1  516.05   46.60
  -2  -6   1  418.36   41.60
   2   6   1  473.95   35.40
   2   6   1  434.06   41.80
  -2   6  -1  431.46   36.60
  -2  -6   1  391.76   34.50
  -2   6  -1  390.06   38.00
   3   6  -1   25.50   15.30
  -3   6   1   16.40   14.00
  -3   6   1  -15.70   13.30
   3   6  -1   29.60   19.50
   3  -6   1   21.60   19.50
  -3  -6  -1   30.00   18.40
  -3  -6   1   35.00   19.90
  -3   6  -1   24.20   18.80
   3  -6  -1   28.70   19.70
  -3   6  -1   18.30   14.80
   3   6   1   23.70   14.00
   3   6   1   23.50   19.20
   4   6  -1  339.97   34.40
  -4   6   1  293.17   35.00
   4  -6   1  403.26   49.00
   4   6  -1  268.77   37.70
  -4   6   1  323.27   39.00
  -4  -6  -1  332.17   41.40
  -4   6  -1  267.37   34.30
   4   6   1  287.77   41.60
   4   6   1  268.17   30.40
  -4  -6   1  291.07   39.20
   4  -6  -1  339.77   43.90
   5  -6   1   86.49   32.30
   5   6  -1  102.29   29.70
   5   6  -1   73.39   21.80
  -5   6   1   57.99   23.70
  -5  -6  -1   58.89   26.10
   5  -6   1   75.29   25.70
  -5  -6   1   41.30   26.90
   5  -6  -1  112.99   34.80
  -5   6  -1   79.99   24.40
   5   6   1   83.89   22.70
   5   6   1   56.09   29.30
   5  -6  -1   62.79   26.20
   0   7  -1   10.90   13.30
   0   7   1  -10.20   12.40
   0  -7   1   10.40   18.60
   0   7   1   12.80   18.00
   0  -7  -1    5.70   15.00
   0  -7   1    5.80   13.90
   0  -7  -1    2.30   16.80
  -1   7   1  352.46   38.20
  -1   7   1  318.87   38.10
  -1  -7  -1  274.77   34.10
   1   7  -1  297.77   34.50
  -1  -7  -1  356.76   38.10
   1   7  -1  311.07   34.80
   1  -7   1  361.26   41.70
  -1  -7   1  348.87   40.00
   1  -7  -1  325.17   40.70
   1   7   1  353.16   40.50
  -1  -7   1  376.96   39.40
   1   7   1  274.07   30.80
  -1   7  -1  291.17   35.10
   2  -7   1  136.99   34.70
   2   7  -1   76.29   20.00
  -2   7   1  162.18   31.70
  -2   7   1  166.18   30.70
  -2  -7  -1  133.59   26.80
   2   7  -1  141.19   30.20
  -2  -7  -1  131.59   29.10
   2   7   1  116.99   30.10
  -2  -7   1  138.69   30.00
   2  -7  -1   90.89   27.20
   2   7   1  182.68   28.60
  -2  -7   1  112.49   25.80
  -2   7  -1  129.59   29.10
  -3   7   1   -2.50   14.50
  -3   7   1  -26.40   16.40
   3   7  -1  -30.40   16.10
   3  -7   1    7.80   21.30
  -3  -7  -1   13.70   19.80
   3   7  -1   -0.60   13.80
  -3   7  -1   17.60   16.90
  -3  -7   1   -8.40   17.30
   3  -7  -1    7.80   19.70
   3   7   1   38.10   24.00
   3   7   1    8.90   13.90
   4  -7   1  160.18   40.70
  -4  -7  -1  176.48   38.20
   4   7  -1  101.19   25.30
  -4   7   1  241.38   40.20
  -4   7   1   96.69   27.00
   4   7  -1  176.28   38.10
  -4  -7   1  145.59   35.90
   4   7   1  209.68   40.30
   4  -7  -1  176.08   39.90
   4   7   1  183.08   31.30
  -4   7  -1   85.79   28.70
   5   7  -1  196.58   35.70
  -5   7   1  220.58   41.80
   5  -7   1  164.08   44.70
  -5   7   1   99.29   30.00
  -5  -7  -1   63.89   31.60
   5   7  -1  133.69   39.20
  -5  -7   1  108.99   35.70
  -5   7  -1  155.28   36.10
   5   7   1  125.59   39.30
   5  -7  -1  112.79   38.70
   0  -8  -1   -5.60   18.20
   0  -8   1   -6.90   22.60
   0  -8   1    2.90   18.40
   0   8  -1   14.00   17.60
   0   8   1  -40.50   17.20
   0   8   1   -3.10   14.60
  -1  -8  -1  179.48   33.80
  -1   8   1  106.09   28.10
   1  -8   1  237.98   43.00
   1   8  -1  191.58   34.80
  -1   8   1  130.59   32.40
  -1  -8  -1  184.68   35.80
   1   8   1  190.38   32.70
  -1  -8   1  154.88   34.60
  -1  -8   1  206.38   37.00
   1  -8  -1  192.18   39.40
  -1   8  -1  134.59   30.20
   1   8   1  172.98   34.30
  -2  -8  -1   91.69   28.90
  -2   8   1   78.19   34.60
  -2   8   1  219.18   37.40
   2  -8   1   54.39   31.90
   2   8  -1   45.30   21.80
   2  -8  -1  100.69   34.40
   2   8   1   99.49   26.40
  -2  -8   1   94.19   30.90
   2   8   1   68.29   28.20
  -2   8  -1  103.19   29.90
   3  -8   1   20.00   29.90
   3   8  -1   24.50   21.00
  -3  -8  -1   -3.90   18.80
  -3   8   1  -17.70   14.90
   3   8   1   15.00   19.70
  -3   8  -1   -4.30   19.90
   3  -8  -1   -3.60   26.60
   3   8   1    7.50   21.60
  -3  -8   1   -2.10   17.30
   0   9  -1  -19.10   20.10
   0   9   1   11.70   22.10
   0  -9  -1  -36.20   23.30
   0  -9   1   11.20   26.70
  -1   9   1   26.30   23.90
   1   9  -1   23.00   21.70
   1  -9   1   -4.10   29.30
  -1  -9  -1   19.80   28.40
   1   9   1   40.20   23.10
  -1  -9   1   53.39   29.60
  -1   9  -1  -13.00   19.00
   1  -9  -1   -3.00   25.80
  -1  -9   1   13.60   23.90
   0   0  -2 5907.91  142.79
   0   0   2 5841.32  149.99
   0   0   2 5717.63  149.59
   0   0   2 5800.92  147.29
  -1   0   2   -4.30    4.10
   1   0   2    4.10    5.50
  -1   0   2   -5.00    5.10
  -1   0   2    0.30    4.10
  -1   0   2    1.30    4.30
   1   0   2   -2.00    4.20
  -1   0  -2    2.10    3.10
  -1   0  -2    5.20    4.90
  -2   0  -2 4685.83  123.99
  -2   0   2 4570.14  128.59
  -2   0   2 4585.94  133.69
  -2   0  -2 4631.94  129.29
   2   0   2 4704.43  132.29
   2   0  -2 4667.13  132.49
   2   0  -2 4675.43  122.49
  -2   0   2 4431.96  125.39
   2   0   2 4599.94  125.49
  -3   0  -2    3.80    6.60
  -3   0   2    2.40    7.40
  -3   0  -2   -0.20    6.90
   3   0  -2   -2.70    5.10
   3   0   2   -4.60    8.10
   3   0  -2   -5.50    7.60
  -3   0   2    5.10    6.50
   3   0   2   10.00    7.60
  -4   0  -2 1366.96   59.39
   4   0   2 1355.06   51.19
  -4   0  -2 1279.77   56.09
  -4   0   2 1369.16   56.79
   4   0   2 1245.38   62.79
   4   0  -2 1279.67   63.09
  -4   0   2 1346.97   60.99
   4   0  -2 1344.17   47.40
   5   0  -2   -6.30   10.10
  -5   0   2    6.20    9.90
   5   0   2   -7.00   10.40
  -5   0   2    1.00   10.30
  -5   0  -2    3.70   10.30
   5   0   2   15.70    8.70
  -5   0  -2   -5.30    8.30
   6   0   2  688.03   55.79
  -6   0   2  709.03   46.30
  -6   0  -2  693.33   48.70
   6   0  -2  595.14   51.49
  -6   0  -2  654.33   45.70
  -6   0   2  657.93   49.40
   7   0   2    4.30   17.50
  -7   0  -2    0.20   15.20
  -7   0  -2   13.30   18.90
  -7   0   2   12.40   18.10
   7   0  -2   11.30   18.40
   0   1   2 1610.24   51.19
   0   1   2 1440.06   40.90
   0  -1   2 1563.14   48.80
   0   1  -2 1628.74   46.10
   0  -1  -2 1521.25   46.00
   0  -1   2 1567.04   49.90
   0   1   2 1506.65   49.50
  -1   1   2  436.66   16.20
  -1  -1  -2  432.46   22.70
   1  -1   2  448.16   18.80
  -1  -1  -2  428.66   15.00
  -1   1   2  501.05   25.80
  -1   1   2  425.16   19.20
   1  -1   2  421.46   23.40
   1   1  -2  381.16   18.60
   1   1   2  414.96   20.20
  -1   1  -2  416.66   19.50
   1   1   2  423.56   23.50
  -1  -1   2  400.26   20.70
   1  -1  -2  413.76   22.00
  -1  -1   2  406.66   17.80
  -1   1  -2  420.56   20.00
  -1  -1   2  382.46   22.10
  -2   1   2  145.99   17.90
  -2   1   2  176.08   11.30
  -2   1   2  164.48   14.90
   2  -1   2  154.48   15.20
   2  -1   2  199.68   17.20
  -2  -1  -2  185.48   18.10
  -2  -1  -2  180.38   13.20
   2   1  -2  155.48   15.30
   2  -1  -2  147.99   15.10
   2   1   2  183.98   13.20
  -2  -1   2  154.88   10.10
   2   1   2  156.98   18.60
  -2  -1   2  157.28   16.80
  -2   1  -2  183.58   15.40
  -2  -1   2  140.99   15.10
  -2   1  -2  164.88   14.10
  -3   1   2 1714.53   65.39
  -3  -1  -2 1696.43   60.29
   3  -1   2 1780.52   67.59
   3   1  -2 1741.33   68.59
  -3  -1  -2 1664.13   68.19
   3  -1   2 1704.23   63.49
  -3   1   2 1721.93   56.09
  -3   1   2 1829.42   73.69
   3   1   2 1634.04   71.49
   3  -1  -2 1835.72   63.49
  -3   1  -2 1796.02   62.09
  -3  -1   2 1792.92   67.49
  -3  -1   2 1798.32   67.89
   3   1   2 1725.53   55.49
  -3   1  -2 1804.32   64.29
  -4  -1  -2   95.19   19.30
   4  -1   2  147.29   23.60
  -4   1   2  130.89   21.10
   4   1  -2  153.68   21.30
  -4  -1  -2  154.08   18.70
   4  -1   2  152.18   18.60
  -4   1   2  145.99   16.10
  -4  -1   2  159.08   21.40
   4   1   2  155.18   14.30
   4  -1  -2  152.38   18.30
  -4   1  -2  159.88   19.10
   4   1   2  135.39   23.30
  -4  -1   2  112.89   20.40
   4  -1  -2  131.39   24.40
  -4   1  -2  199.58   20.60
   5  -1   2  201.98   22.60
  -5   1   2  269.77   29.30
  -5   1   2  298.27   25.30
   5  -1   2  199.78   29.00
   5   1  -2  188.28   27.50
  -5  -1  -2  241.28   29.40
  -5  -1  -2  241.08   25.80
   5  -1  -2  242.68   32.30
  -5   1  -2  253.47   28.10
  -5  -1   2  298.47   30.80
   5  -1  -2  296.27   25.90
  -5   1  -2  295.87   27.50
  -5  -1   2  306.17   31.10
   5   1   2  282.47   34.10
   6   1  -2  200.58   36.00
  -6  -1  -2  128.49   28.60
   6  -1   2  156.78   31.50
  -6   1   2  140.49   28.50
  -6  -1  -2  129.29   25.10
  -6   1  -2  171.88   25.00
  -6  -1   2  234.28   30.40
  -6   1  -2  171.78   29.00
   6  -1  -2  160.08   32.40
  -6  -1   2  170.28   29.50
   6   1   2  186.98   34.60
  -7   1   2   86.79   26.80
  -7  -1  -2   75.19   23.90
  -7  -1  -2   46.10   23.10
   7   1  -2   20.80   21.50
   7  -1   2   24.60   21.90
   7  -1  -2  105.99   30.30
   7   1   2   31.10   26.00
  -7  -1   2   48.00   20.90
  -7  -1   2   10.10   18.80
  -7   1  -2  100.39   26.30
   0  -2   2  589.44   29.50
   0   2   2  639.44   23.40
   0  -2  -2  632.34   26.30
   0   2   2  590.34   30.80
   0  -2  -2  580.24   28.70
   0   2  -2  678.03   28.30
   0  -2   2  604.54   28.90
  -1   2   2 4469.45  120.89
  -1  -2  -2 4348.46  121.19
   1  -2   2 4304.27  129.29
   1  -2   2 4293.47  121.39
  -1   2   2 4504.05  131.39
   1   2  -2 4475.15  121.89
  -1  -2  -2 4318.07  126.59
   1   2  -2 4409.76  118.69
   1  -2  -2 4402.06  128.39
  -1   2  -2 4489.05  123.89
  -1  -2   2 4440.76  119.99
  -1  -2   2 4421.76  129.09
   1  -2  -2 4471.95  111.99
   1   2   2 4602.24  114.29
   1   2   2 4396.86  129.99
   2   2  -2  190.28   18.10
   2  -2   2  133.49   18.10
  -2  -2  -2  152.58   13.50
   2  -2   2  138.49   14.50
  -2   2   2  223.68   22.70
  -2  -2  -2  118.99   17.40
  -2   2   2  148.99   15.70
   2  -2  -2  156.48   18.00
  -2  -2   2  150.88   16.40
  -2   2  -2  157.78   16.10
  -2  -2   2  132.59   10.00
   2   2   2  176.68   20.10
  -2   2  -2  153.78   13.20
   2   2   2  149.59   13.20
  -2  -2   2  160.58   19.20
  -3  -2  -2 1556.34   67.49
   3  -2   2 1621.54   65.79
  -3   2   2 1560.24   70.29
   3   2  -2 1613.04   66.29
  -3   2   2 1560.34   62.79
   3  -2   2 1636.94   62.69
  -3  -2  -2 1667.73   58.69
  -3   2  -2 1635.44   55.69
  -3  -2   2 1582.04   64.79
   3  -2  -2 1624.74   65.29
  -3   2  -2 1565.14   62.49
   3   2   2 1552.94   69.89
  -3  -2   2 1516.95   67.19
   3   2   2 1580.24   50.59
  -4  -2  -2   30.80   13.60
  -4   2   2   45.80    9.40
   4  -2   2   28.20   12.70
  -4   2   2   43.20   13.80
   4  -2   2   31.40   13.40
  -4  -2  -2   25.90   11.20
   4   2  -2   30.60   14.50
   4  -2  -2    5.40   12.30
  -4  -2   2   38.00   13.50
   4   2   2   31.00   15.50
   4  -2  -2   33.40   13.40
  -4   2  -2   73.69   16.60
  -4   2  -2   46.80   11.40
  -4  -2   2   45.40   15.70
  -5  -2  -2  743.53   43.80
   5  -2   2  750.82   50.19
   5  -2   2  662.43   43.80
  -5   2   2  678.43   46.90
   5   2  -2  667.63   49.60
  -5  -2  -2  743.93   51.59
  -5  -2   2  703.33   49.10
  -5   2  -2  711.73   40.90
   5   2   2  609.74   51.49
   5  -2  -2  699.63   45.00
  -5   2  -2  758.72   46.70
   5  -2  -2  631.34   51.19
  -5  -2   2  677.63   47.00
  -6  -2  -2   47.00   21.10
   6   2  -2   84.29   24.80
  -6  -2  -2   94.89   20.50
   6  -2   2   66.19   19.90
   6  -2   2   65.39   24.70
  -6   2   2   87.89   22.80
  -6  -2   2   75.39   23.80
  -6  -2   2  121.89   27.10
   6   2   2  112.79   27.70
   6  -2  -2  119.29   31.00
  -6   2  -2   89.09   22.60
   7   2  -2  117.49   33.10
  -7   2   2  152.48   32.90
  -7  -2  -2  113.59   31.90
   7  -2   2  170.78   36.80
  -7  -2  -2  116.79   26.50
  -7   2  -2  202.78   35.30
  -7  -2   2  129.19   29.30
   7  -2  -2  106.69   34.60
   7   2   2  133.99   37.40
  -7  -2   2  215.08   37.30
   0  -3  -2 2846.22   85.49
   0   3   2 2895.21   94.99
   0   3   2 2841.22   82.99
   0  -3   2 2682.73   91.09
   0  -3  -2 2681.33   91.49
   0   3  -2 2865.31   89.19
   0  -3   2 2818.22   89.69
   0   3  -2 2868.31   78.89
   1  -3   2  103.89   18.00
   1   3  -2  127.89   14.10
  -1  -3  -2  125.79   15.80
   1   3  -2  141.29   14.10
   1  -3   2  120.29   13.90
  -1   3   2  133.19   18.60
  -1   3   2  112.89   13.50
  -1  -3  -2  143.69   17.50
   1  -3  -2  130.59   18.20
  -1   3  -2  140.49   15.90
  -1  -3   2  126.69   17.40
  -1   3  -2  122.09   12.50
   1   3   2   85.49   16.70
   1   3   2  113.89   11.40
  -1  -3   2  106.39   15.20
   1  -3  -2  125.69   11.10
  -2  -3  -2  572.24   36.90
   2  -3   2  605.34   38.70
   2   3  -2  575.94   33.40
   2   3  -2  548.85   30.50
  -2  -3  -2  551.04   28.60
  -2   3   2  592.14   32.70
  -2   3   2  545.75   37.10
  -2  -3   2  557.24   26.40
   2  -3  -2  638.34   39.00
  -2   3  -2  572.84   27.10
   2   3   2  598.94   26.40
   2   3   2  623.74   39.50
  -2   3  -2  581.34   33.60
  -2  -3   2  524.15   37.00
   3  -3   2   24.80   11.00
   3  -3   2   17.00   12.50
  -3   3   2    3.10   10.60
  -3  -3  -2    0.70   11.50
  -3  -3  -2   19.10    9.20
  -3   3   2   12.60    9.50
   3   3  -2   21.90   12.80
  -3  -3  -2   21.20    8.00
  -3   3  -2   22.00    8.20
   3   3   2    7.80   11.40
   3  -3  -2   23.90   13.60
  -3  -3   2    6.30   11.30
  -3   3  -2   29.90   11.00
  -3  -3   2    1.50    9.00
   4  -3   2   80.99   17.00
  -4  -3  -2  110.19   23.60
   4   3  -2   83.09   19.90
  -4   3   2   96.89   19.30
  -4   3   2   82.39   22.10
   4  -3   2   64.09   19.70
  -4  -3  -2   85.39   17.90
  -4  -3   2   88.99   20.30
  -4   3  -2  127.79   21.00
   4  -3  -2  107.79   23.20
  -4  -3   2   97.49   22.20
  -4   3  -2   92.29   14.80
   4   3   2   93.99   24.30
   5  -3   2   -0.80   12.00
   5  -3   2    1.80   14.30
  -5  -3  -2    1.40   11.30
   5   3  -2   32.70   17.60
  -5   3   2   20.50   13.60
  -5  -3  -2    2.40   16.10
  -5  -3   2   34.30   18.90
   5   3   2   52.39   22.20
   5  -3  -2   17.20   15.70
   5  -3  -2   20.30   18.00
  -5   3  -2   13.30   11.50
  -5  -3   2   16.00   15.10
  -6  -3  -2  398.56   37.30
  -6  -3  -2  372.76   44.80
   6   3  -2  368.56   42.40
   6  -3   2  440.16   42.30
   6  -3   2  436.46   45.20
  -6   3   2  460.25   43.90
   6   3   2  419.86   48.50
  -6   3  -2  426.06   39.70
   6  -3  -2  428.26   47.90
   6  -3  -2  527.15   45.80
  -6  -3   2  404.16   41.10
  -6  -3   2  405.66   43.80
   7   3  -2   62.09   30.20
  -7   3   2   67.99   24.40
   7  -3   2   97.59   32.10
  -7  -3  -2  105.69   27.40
  -7  -3  -2  103.79   32.70
  -7   3  -2   77.49   24.70
  -7  -3   2  108.29   30.90
  -7  -3   2  160.28   34.00
   7   3   2  137.89   37.00
   7  -3  -2   88.19   33.30
   0  -4   2  673.13   39.80
   0  -4  -2  649.04   34.40
   0   4  -2  632.44   36.30
   0   4   2  651.63   40.70
   0   4  -2  639.54   29.90
   0  -4  -2  608.54   38.10
   0  -4   2  566.54   34.80
   0   4   2  675.23   33.50
   1   4  -2  229.48   19.50
  -1  -4  -2  210.38   22.00
  -1  -4  -2  223.28   23.30
  -1   4   2  203.98   19.50
   1  -4   2  197.98   24.60
  -1   4   2  201.58   24.10
   1   4  -2  237.98   21.20
   1  -4   2  236.28   20.00
   1  -4  -2  212.58   16.70
   1  -4  -2  228.48   25.70
  -1  -4   2  214.18   24.40
   1   4   2  202.68   24.40
  -1   4  -2  210.28   21.70
  -1  -4   2  209.78   21.40
   1   4   2  232.48   19.20
  -1   4  -2  222.18   17.80
   2  -4   2 1206.08   63.29
   2  -4   2 1246.08   49.20
   2   4  -2 1271.07   54.89
  -2   4   2 1269.57   54.59
  -2  -4  -2 1252.87   61.19
  -2   4   2 1277.37   62.99
  -2  -4  -2 1241.78   52.29
   2   4  -2 1251.27   54.99
  -2  -4   2 1285.97   64.49
   2   4   2 1195.38   62.59
   2  -4  -2 1252.87   63.29
  -2  -4   2 1214.08   49.80
  -2   4  -2 1142.89   57.09
   2   4   2 1257.57   48.70
  -2   4  -2 1349.77   52.89
  -3  -4  -2  619.34   31.90
  -3   4   2  554.54   36.90
   3  -4   2  643.24   38.80
   3   4  -2  616.34   41.60
  -3   4   2  568.24   44.40
   3   4  -2  619.44   37.40
   3  -4   2  681.93   48.00
  -3  -4  -2  582.74   44.00
  -3  -4   2  571.04   44.40
  -3   4  -2  596.64   40.70
   3  -4  -2  573.14   44.20
  -3   4  -2  596.54   29.10
   3   4   2  650.93   47.20
   3   4   2  617.84   32.20
  -4  -4  -2  572.34   48.90
   4   4  -2  573.44   46.30
  -4   4   2  488.35   44.20
  -4   4   2  607.54   41.70
   4  -4   2  481.35   39.10
   4  -4   2  645.34   49.00
  -4   4  -2  495.15   39.00
   4  -4  -2  530.85   45.30
  -4  -4   2  501.85   44.40
   4   4   2  545.15   47.70
  -4  -4   2  553.44   42.20
  -5  -4  -2  173.68   34.80
  -5  -4  -2  185.28   28.60
   5  -4   2  156.98   31.50
   5   4  -2  115.29   30.40
   5  -4   2  161.38   29.60
  -5   4   2  125.49   25.40
   5  -4  -2  197.38   33.30
  -5  -4   2  191.48   32.00
   5   4   2  129.89   32.50
  -5   4  -2  185.48   26.90
  -5  -4   2  113.19   28.30
   5  -4  -2  130.99   29.30
  -6   4   2  102.99   27.20
  -6  -4  -2  109.69   32.20
   6   4  -2  100.49   30.90
   6  -4   2  156.28   30.60
  -6  -4  -2  134.39   26.70
   6  -4   2  127.79   29.90
   6   4   2  126.59   35.60
  -6  -4   2  146.59   34.70
  -6  -4   2  116.19   28.70
   6  -4  -2  164.58   35.30
   6  -4  -2  154.78   34.10
  -6   4  -2  112.99   25.70
   0  -5   2  157.08   22.80
   0   5   2  143.19   24.50
   0  -5  -2  211.08   22.60
   0  -5   2  173.48   21.60
   0   5  -2  171.08   22.10
   0  -5  -2  193.08   25.70
   0   5  -2  117.99   17.10
   0   5   2  153.88   19.50
  -1   5   2  233.98   28.40
  -1  -5  -2  186.18   23.10
   1   5  -2  193.78   22.60
  -1  -5  -2  202.88   24.60
   1   5  -2  208.78   22.90
   1  -5   2  236.78   22.80
   1  -5   2  250.07   29.70
  -1   5   2  265.17   25.30
  -1  -5   2  248.18   25.70
   1  -5  -2  256.97   29.60
  -1   5  -2  242.88   21.90
  -1  -5   2  206.48   26.40
  -1   5  -2  232.58   25.30
   1   5   2  215.88   27.70
   1   5   2  272.27   23.80
   1  -5  -2  247.98   20.40
  -2   5   2  134.29   22.20
   2   5  -2  112.39   20.50
   2  -5   2   72.89   15.00
  -2  -5  -2   82.99   20.70
  -2  -5  -2  148.69   21.10
   2  -5   2  119.19   25.80
  -2   5   2   71.19   19.40
   2   5  -2  103.79   19.10
   2  -5  -2   85.19   21.90
  -2   5  -2   97.99   20.00
   2   5   2  144.39   27.20
  -2   5  -2  125.49   18.50
  -2  -5   2  115.89   19.00
   2   5   2   87.29   15.60
  -2  -5   2  135.19   26.00
  -3   5   2  643.94   49.80
  -3  -5  -2  618.44   48.10
   3   5  -2  683.43   46.40
  -3  -5  -2  651.03   37.80
  -3   5   2  675.93   43.60
   3   5  -2  645.04   42.90
   3  -5   2  691.63   53.99
  -3  -5   2  611.14   49.30
   3   5   2  595.64   35.90
   3  -5  -2  692.53   53.29
  -3   5  -2  631.44   45.20
  -3   5  -2  591.34   40.40
   3   5   2  703.33   52.69
  -4  -5  -2   67.89   22.50
   4  -5   2  101.29   27.30
   4   5  -2  153.38   30.30
   4   5  -2  141.29   24.30
   4  -5   2  159.28   27.60
  -4   5   2  122.49   28.20
  -4   5   2  164.28   26.70
   4   5   2  100.89   26.80
   4  -5  -2  123.99   30.00
  -4   5  -2  138.49   26.70
   4   5   2  153.88   20.40
  -4  -5   2  148.69   31.70
   5  -5   2  175.38   37.00
   5   5  -2  114.49   30.20
   5  -5   2  163.18   31.00
   5   5  -2  104.79   23.60
  -5   5   2  192.88   35.70
  -5   5   2  163.78   28.90
  -5  -5  -2  103.89   29.00
   5   5   2  206.98   39.30
  -5  -5   2   93.29   29.40
   5   5   2  132.29   23.40
  -5   5  -2  111.89   25.60
   5  -5  -2  120.79   30.80
   6   5  -2   39.50   20.00
   6   5  -2   15.40   24.60
  -6  -5  -2   22.90   25.00
   6  -5   2   18.90   22.70
   6  -5   2   54.19   27.50
  -6   5   2   23.20   19.30
   6   5   2   22.10   27.70
  -6   5  -2   20.00   16.50
  -6  -5   2   -6.20   24.50
   6  -5  -2   25.90   22.70
   6   5   2   27.00   23.90
   6  -5  -2    4.00   21.20
   0   6  -2  562.24   37.50
   0  -6   2  635.14   43.50
   0   6   2  603.04   41.20
   0   6  -2  543.25   41.60
   0  -6  -2  637.14   40.80
   0  -6   2  688.43   49.00
   0   6   2  665.53   48.30
   0  -6  -2  638.24   47.70
  -1   6   2  551.24   40.30
  -1   6   2  545.65   45.50
   1  -6   2  506.35   35.80
  -1  -6  -2  537.85   41.00
   1   6  -2  439.16   37.00
   1   6  -2  596.94   38.80
  -1  -6  -2  530.75   41.80
   1  -6   2  487.65   45.20
  -1  -6   2  525.85   40.50
  -1   6  -2  502.65   41.30
  -1   6  -2  516.05   34.80
   1   6   2  544.25   37.00
   1   6   2  563.94   45.30
   1  -6  -2  556.44   45.60
  -1  -6   2  542.05   44.10
   2  -6   2  158.18   32.70
  -2  -6  -2  155.78   28.40
   2   6  -2  207.78   28.20
  -2  -6  -2  222.88   27.60
   2   6  -2  178.38   25.10
  -2   6   2  171.88   29.90
  -2   6   2  118.69   23.90
   2  -6  -2  246.98   35.70
   2   6   2  211.38   24.60
   2   6   2  149.99   30.10
  -2  -6   2  231.98   32.40
  -2  -6   2  177.18   25.60
  -2   6  -2  220.28   26.90
  -2   6  -2  136.79   26.90
   3   6  -2   20.10   18.00
   3   6  -2   11.20   13.50
  -3   6   2    7.20   19.20
  -3  -6  -2   16.30   15.30
  -3   6   2    5.70   13.80
   3  -6   2   -2.10   16.70
   3  -6  -2   -3.30   14.60
   3   6   2   11.00   16.50
  -3   6  -2   12.50   14.70
  -3  -6   2   29.20   17.70
   3   6   2   30.60   13.20
  -3   6  -2    8.00   16.10
  -4  -6  -2   42.10   21.00
   4  -6   2   27.50   22.70
  -4   6   2   33.70   17.10
  -4   6   2   65.39   23.90
   4   6  -2   -1.10   18.80
   4   6  -2   61.99   20.50
   4   6   2   52.99   24.80
   4  -6  -2   60.49   24.20
  -4  -6   2   68.09   26.50
  -4   6  -2   51.89   19.60
   4   6   2   48.90   16.50
  -5  -6  -2   89.49   29.20
   5   6  -2  102.29   26.00
   5  -6   2  106.39   33.30
  -5   6   2  180.88   36.90
   5   6  -2   77.89   30.40
  -5   6   2  129.19   29.00
  -5   6  -2   75.09   23.30
   5  -6  -2   87.09   29.80
  -5  -6   2   83.79   30.00
   5   6   2  159.48   38.90
   0  -7   2  135.89   26.50
   0  -7   2  188.98   34.50
   0  -7  -2  138.89   25.60
   0   7   2  209.28   28.60
   0   7   2  200.18   35.70
   0   7  -2  157.88   28.70
   0  -7  -2  195.68   35.20
   1  -7   2  139.19   24.50
   1   7  -2  108.79   24.70
  -1   7   2   79.29   26.40
  -1  -7  -2  118.09   27.80
  -1  -7  -2  162.38   30.20
  -1   7   2  139.49   26.60
   1  -7   2  158.48   33.80
   1  -7  -2  135.09   30.20
  -1  -7   2   85.69   24.50
   1   7   2  160.18   25.80
  -1  -7   2   97.19   25.00
  -1   7  -2   56.29   21.30
   1   7   2   82.49   25.80
  -2   7   2  115.69   26.40
   2  -7   2   91.19   30.00
  -2  -7  -2   84.29   26.10
  -2   7   2   46.70   22.40
   2   7  -2   85.89   23.40
  -2  -7  -2  118.69   27.10
   2  -7  -2   93.29   29.00
   2   7   2  115.09   23.20
   2   7   2   83.89   28.10
  -2  -7   2  138.29   28.60
  -2   7  -2   90.59   26.00
  -2  -7   2  106.89   29.80
   3  -7   2  117.79   36.10
  -3   7   2  204.78   38.30
  -3  -7  -2  190.58   35.70
   3   7  -2  155.58   29.10
  -3   7   2  179.18   32.60
   3  -7  -2  122.49   32.30
  -3   7  -2  192.38   35.10
  -3  -7   2  128.89   31.90
   3   7   2  188.98   27.70
   3   7   2  286.17   46.30
  -4   7   2    3.80   19.20
   4  -7   2   18.10   25.10
  -4   7   2   19.90   18.40
   4   7  -2   20.10   19.70
  -4  -7  -2   10.30   20.00
   4   7   2   74.59   29.70
  -4   7  -2  -30.90   14.80
  -4  -7   2   23.00   22.40
   4  -7  -2   15.00   22.30
   5   7  -2  130.89   32.80
  -5  -7  -2  109.09   36.50
  -5   7   2   90.29   31.50
   5  -7   2   71.79   32.10
   5   7   2    7.20   26.20
  -5  -7   2   59.39   32.40
   5  -7  -2   21.20   28.20
   0   8   2   17.00   19.80
   0   8  -2   27.50   19.20
   0  -8  -2   42.40   25.00
   0  -8   2   57.89   20.60
   0   8   2   18.30   21.80
   0  -8   2   49.40   26.30
  -1   8   2   43.20   21.50
  -1  -8  -2   55.49   22.80
  -1   8   2   31.10   22.80
   1  -8   2  108.79   34.80
  -1  -8  -2   61.89   26.30
   1   8  -2   28.80   20.30
  -1  -8   2   67.19   25.60
  -1   8  -2   18.50   18.50
   1   8   2   48.00   24.10
   1  -8  -2   38.70   25.00
   1   8   2   16.30   18.20
  -1  -8   2   21.50   20.80
  -2   8   2  113.49   30.60
   2  -8   2  179.28   44.20
   2   8  -2  119.69   28.70
  -2  -8  -2  151.78   32.20
  -2   8   2  146.99   34.30
  -2   8  -2   71.79   27.80
   2   8   2  142.29   36.70
   2  -8  -2  131.39   36.30
  -2  -8   2  221.88   41.30
   2   8   2  144.89   30.10
   3  -8   2  140.39   41.60
   3   8  -2  170.78   33.70
  -3   8   2  154.28   36.40
  -3  -8  -2  136.89   35.00
  -3   8   2  127.79   31.90
  -3   8  -2   93.49   31.40
  -3  -8   2   98.69   32.10
   3  -8  -2   97.69   35.60
   3   8   2  109.09   34.10
   0  -9  -2  131.39   38.00
   0   9   2  179.38   37.10
   0   9  -2  172.48   39.50
   0  -9   2  121.99   39.00
  -1   9   2   32.90   22.20
   1  -9   2   37.30   31.50
  -1  -9  -2   65.29   29.10
   1   9  -2   43.70   24.60
  -1  -9   2   85.49   32.30
   1  -9  -2   48.30   33.10
  -1  -9   2   82.19   28.40
   1   9   2   25.50   35.20
  -1   9  -2   14.50   25.60
   0   0  -3    1.80    2.30
   0   0   3    5.40    4.70
   0   0   3   -4.30    4.20
   0   0   3   -0.10    5.20
  -1   0   3   -0.60    4.70
   1   0   3   -2.30    5.40
  -1   0   3    1.80    6.30
  -1   0  -3    2.50    3.10
   1   0   3   -2.30    5.30
  -1   0  -3    2.10    5.00
  -1   0   3    4.40    5.70
  -1   0   3   -0.70    5.30
   2   0   3 3878.81  118.19
  -2   0   3 4003.30  111.69
   2   0   3 3790.12  113.79
  -2   0   3 4187.28  113.69
  -2   0   3 4033.40  115.99
  -2   0   3 3988.10  120.39
  -2   0  -3 4078.99  108.79
  -2   0  -3 3874.31  116.89
  -3   0  -3   -2.10    5.50
   3   0   3    8.60    9.30
   3   0  -3    2.90    9.70
   3   0  -3   -8.30    4.60
  -3   0  -3   -3.90    7.30
  -3   0   3    4.40    6.30
   3   0   3   -4.30    6.60
  -3   0   3    4.60    7.60
  -4   0   3 3000.00   96.19
   4   0   3 2662.33  105.09
   4   0  -3 2841.32  107.79
   4   0   3 2880.11   91.59
   4   0  -3 2899.81   87.59
  -4   0   3 2532.65   99.79
  -4   0  -3 3035.10   95.79
  -4   0  -3 2740.53   99.99
  -5   0  -3    2.80    8.80
   5   0  -3   -7.90   11.00
   5   0   3  -11.20    8.90
  -5   0   3   -3.60    9.30
   5   0   3   13.00   12.10
  -5   0   3    0.10    8.80
  -5   0  -3   -4.10    9.70
   6   0  -3   -2.40   14.20
   6   0   3   31.10   20.20
  -6   0   3   13.00   14.30
  -6   0   3    4.40   12.90
  -6   0  -3    4.00   15.00
  -6   0  -3   27.50   15.50
   7   0  -3   -4.30   17.20
   7   0   3    3.10   19.10
  -7   0   3  -12.10   14.10
  -7   0  -3   -4.20   13.00
  -7   0  -3  -19.00   15.80
   0  -1   3    2.30    5.60
   0  -1  -3   -2.30    4.10
   0   1  -3    0.60    3.30
   0   1   3    7.70    6.80
   0  -1   3    1.50    3.30
   0  -1   3   -5.10    4.90
   0   1   3   10.40    6.50
  -1   1   3  951.90   33.60
  -1   1   3  990.80   41.10
   1  -1   3  998.30   41.30
  -1   1   3 1075.69   43.70
  -1  -1  -3 1037.00   40.40
  -1   1   3  937.41   34.30
   1  -1   3 1006.40   34.00
  -1  -1   3  987.30   36.70
  -1   1  -3  990.00   35.40
  -1   1  -3 1011.00   38.50
  -1  -1   3 1008.70   38.30
  -1  -1   3  998.00   40.60
  -1  -1   3  973.40   35.50
   1   1   3 1030.40   42.90
   1   1   3  976.20   38.90
  -2  -1  -3  590.94   23.50
   2  -1   3  576.24   29.80
  -2   1   3  566.04   35.00
  -2  -1  -3  576.84   33.00
   2   1  -3  584.64   30.20
  -2   1   3  550.74   29.10
  -2   1   3  586.14   24.60
   2  -1   3  585.04   31.30
   2   1   3  546.95   27.40
  -2  -1   3  578.44   25.10
  -2  -1   3  540.05   30.50
  -2   1  -3  580.14   27.80
   2  -1  -3  564.94   29.70
  -2  -1   3  587.64   32.40
  -2   1  -3  631.24   30.00
   2   1   3  543.65   33.50
  -3   1   3  103.29   12.20
   3  -1   3   97.99   18.10
  -3  -1  -3   65.49   11.40
   3  -1   3   76.19   15.30
   3   1  -3   87.29    9.60
  -3   1   3  110.49   15.90
   3   1  -3  124.89   19.50
  -3  -1  -3   80.09   16.60
  -3   1   3   93.89   19.70
  -3   1  -3  102.09   14.70
   3  -1  -3   91.29   15.30
  -3   1  -3   77.39   13.60
   3   1   3  102.89   12.90
  -3  -1   3   91.69   16.40
   3   1   3  100.99   20.40
  -3  -1   3  108.59   18.10
  -4  -1  -3   94.79   19.90
   4  -1   3  127.09   23.30
   4  -1   3  137.59   19.20
  -4   1   3  121.79   21.00
  -4   1   3  129.29   16.30
  -4  -1  -3  107.09   15.80
   4   1  -3  120.59   23.10
   4  -1  -3  144.59   25.30
  -4  -1   3  118.89   21.30
  -4  -1   3  116.99   20.80
   4   1   3  172.88   17.10
   4   1   3  166.18   27.30
   4  -1  -3  112.99   18.30
  -4   1  -3  124.49   17.90
  -4   1  -3  123.09   18.00
   5   1  -3  474.45   41.00
  -5   1   3  391.66   35.50
  -5  -1  -3  504.95   34.50
  -5   1   3  473.75   32.50
   5  -1   3  412.46   38.50
   5  -1   3  509.55   35.20
  -5  -1  -3  467.55   38.90
  -5   1  -3  432.66   34.80
  -5  -1   3  408.36   36.90
   5   1   3  365.26   41.00
  -5   1  -3  477.05   36.10
   5  -1  -3  371.96   40.40
   5  -1  -3  446.16   32.00
  -5  -1   3  462.25   37.20
  -6  -1  -3   47.20   17.20
  -6   1   3   49.80   19.70
   6  -1   3   37.00   20.10
  -6  -1  -3   18.20   17.10
   6   1  -3   23.10   16.60
  -6  -1   3   33.90   16.40
  -6   1  -3   13.50   14.40
  -6   1  -3   17.90   14.60
   6   1   3   61.39   26.30
  -6  -1   3   13.50   17.20
   6  -1  -3   22.60   18.80
   7   1  -3  154.88   37.90
  -7  -1  -3  142.49   32.50
  -7   1   3  142.79   32.60
   7  -1   3  121.89   32.70
  -7  -1  -3  126.99   27.80
   7  -1  -3  104.69   32.40
  -7  -1   3  151.08   32.50
  -7   1  -3  139.39   27.70
   7   1   3   92.39   33.30
   0  -2  -3    1.10    5.90
   0  -2   3    2.20    6.80
   0   2   3    8.50    4.20
   0  -2  -3    4.70    6.60
   0   2   3    2.40    7.80
   0  -2   3    2.20    7.00
   0   2  -3   -3.20    5.00
   1   2  -3 4424.76  119.29
   1  -2   3 4519.85  128.79
  -1   2   3 4423.06  134.99
  -1  -2  -3 4581.34  130.29
   1   2  -3 4458.55  124.79
  -1   2   3 4605.74  122.69
   1  -2   3 4516.25  133.29
   1  -2   3 4429.16  115.69
   1   2   3 4573.74  113.89
  -1  -2   3 4497.75  124.49
   1   2   3 4584.84  136.39
  -1  -2   3 4385.36  131.29
   1  -2  -3 4431.36  131.29
   1  -2  -3 4441.96  117.29
  -1   2  -3 4493.15  126.59
   1   2   3 4439.96  127.99
  -2   2   3  251.07   20.00
  -2  -2  -3  288.27   25.40
  -2  -2  -3  273.37   15.90
   2   2  -3  289.07   21.00
   2  -2   3  248.88   23.40
   2  -2   3  330.17   20.20
  -2   2   3  282.17   26.30
   2  -2  -3  255.27   23.30
  -2  -2   3  253.47   16.00
  -2   2  -3  196.38   18.60
   2   2   3  240.58   18.90
  -2  -2   3  281.57   22.50
   2   2   3  277.17   25.60
  -2  -2   3  259.87   24.40
  -2   2  -3  271.67   19.50
   3   2  -3   20.00   10.30
   3  -2   3   14.40    9.90
  -3  -2  -3   35.50   14.70
  -3   2   3   29.40   14.10
   3  -2   3   44.90   12.00
  -3   2   3   43.50   12.10
  -3  -2  -3   23.20    8.80
  -3  -2   3   48.80   14.60
   3   2   3   37.50   15.50
  -3  -2   3    5.40    9.20
   3  -2  -3   43.70   13.00
   3   2   3   28.90    9.00
  -3   2  -3   49.99   12.30
  -3   2  -3   29.60    9.90
   4   2  -3  212.38   25.30
   4  -2   3  281.67   27.20
  -4  -2  -3  240.98   22.00
  -4  -2  -3  235.58   27.80
  -4   2   3  242.08   25.30
  -4   2   3  252.47   31.00
   4  -2   3  276.47   27.10
  -4   2  -3  201.68   22.90
  -4  -2   3  263.07   29.10
   4  -2  -3  268.97   26.70
  -4  -2   3  224.28   26.10
   4   2   3  230.08   30.90
  -4   2  -3  186.78   20.30
   4   2   3  196.08   17.80
   5  -2   3  630.04   43.20
  -5  -2  -3  675.93   49.99
  -5  -2  -3  674.23   41.20
   5  -2   3  590.94   46.90
  -5   2   3  707.83   48.60
   5   2  -3  698.13   50.59
  -5  -2   3  717.83   48.70
   5   2   3  541.65   51.09
  -5  -2   3  776.32   51.49
  -5   2  -3  625.74   43.20
   5  -2  -3  666.83   44.70
  -5   2  -3  646.04   40.70
   5  -2  -3  603.24   51.69
   6   2  -3    4.20   16.00
  -6   2   3   -5.40   14.80
  -6  -2  -3  -11.60   14.30
   6  -2   3    2.20   17.60
   6  -2   3   10.60   14.60
  -6  -2  -3  -11.60   11.10
  -6  -2   3   -8.60   12.00
  -6  -2   3   43.00   20.60
   6   2   3  -11.50   20.70
  -6   2  -3    4.40   13.10
   6  -2  -3   -2.20   17.90
   7  -2   3  563.64   54.89
  -7  -2  -3  510.15   43.90
   7   2  -3  423.36   49.20
  -7  -2  -3  508.15   52.99
  -7   2   3  572.84   52.09
  -7   2  -3  460.15   46.80
  -7  -2   3  571.74   51.49
   7   2   3  499.75   59.89
   7  -2  -3  576.84   60.69
  -7  -2   3  366.86   43.90
   0  -3  -3    8.70    9.40
   0  -3  -3  -10.10    6.00
   0   3   3   16.20   10.40
   0   3   3    4.90    5.70
   0  -3   3   -1.90    7.40
   0  -3   3   17.70   10.30
   0   3  -3    5.70    6.80
   1  -3   3   43.30   10.80
  -1  -3  -3   52.29   13.40
   1  -3   3   24.60   12.60
  -1   3   3   27.70    8.60
  -1  -3  -3   47.00   12.50
   1   3  -3   41.50    9.10
  -1   3   3   14.60   11.00
   1   3  -3   41.00   10.10
   1   3   3   52.39    8.50
  -1  -3   3   26.70   12.10
   1   3   3   47.50   14.40
  -1  -3   3   33.40   11.20
   1  -3  -3   14.70   10.40
   1  -3  -3   38.20    8.30
  -1   3  -3   33.00   10.40
   2   3  -3  981.70   43.10
   2  -3   3  882.31   48.70
   2  -3   3  939.91   37.90
  -2  -3  -3  888.21   39.70
  -2   3   3  957.00   42.50
   2   3  -3  881.21   41.90
  -2   3   3  894.31   50.89
  -2  -3  -3  841.62   47.20
  -2   3  -3  846.52   44.50
   2   3   3  843.62   49.80
  -2  -3   3  880.61   49.30
   2  -3  -3  924.71   49.30
  -2   3  -3  950.00   40.20
  -2  -3   3  934.81   37.30
   2   3   3  928.61   33.80
  -3   3   3   46.60   15.50
   3  -3   3   34.20   11.60
   3   3  -3   28.00   13.00
  -3  -3  -3   53.39   11.50
   3  -3   3   24.90   14.30
  -3   3   3   45.60   12.90
  -3  -3  -3   50.09   12.00
  -3  -3  -3   59.99   17.30
  -3   3  -3   41.70   11.20
  -3  -3   3    9.80   11.60
   3  -3  -3   44.50   15.20
  -3   3  -3   41.80   12.90
  -3  -3   3   35.60   13.20
   3   3   3   16.70   14.20
  -4   3   3  362.56   31.30
   4  -3   3  351.66   30.50
  -4   3   3  372.46   38.00
   4   3  -3  382.96   34.20
  -4  -3  -3  368.26   36.20
   4  -3   3  367.46   33.80
  -4  -3  -3  324.37   27.20
   4  -3  -3  325.17   33.20
  -4  -3   3  312.97   31.60
   4   3   3  440.46   40.80
  -4   3  -3  346.37   30.20
  -4   3  -3  356.56   25.60
  -4  -3   3  350.66   35.40
  -5  -3  -3   66.39   17.50
   5  -3   3   21.00   16.70
  -5   3   3   70.69   21.10
   5   3  -3   40.00   17.20
   5  -3   3   50.39   19.00
  -5  -3  -3   -2.00   14.60
   5   3   3   42.70   22.70
  -5  -3   3   51.29   21.10
   5  -3  -3   66.19   24.40
  -5  -3   3   47.00   19.20
   5  -3  -3   69.89   22.30
  -5   3  -3   27.10   13.90
  -6  -3  -3   21.80   14.90
   6  -3   3   60.49   21.30
   6   3  -3   35.30   20.10
   6  -3   3   38.90   21.70
  -6  -3  -3   73.59   27.30
  -6   3   3   18.30   18.20
  -6   3  -3   20.30   14.70
   6   3   3   48.80   25.80
   6  -3  -3   -0.30   15.10
   6  -3  -3   69.19   27.70
  -6  -3   3   62.99   24.30
  -6  -3   3   32.90   18.80
  -7  -3  -3   -4.70   20.20
  -7  -3  -3   24.10   23.30
   7   3  -3   60.39   26.40
  -7   3   3   13.40   21.00
   7  -3   3   19.30   23.00
  -7  -3   3   -4.80   16.80
   7   3   3    8.50   21.60
  -7   3  -3    5.90   17.00
  -7  -3   3    8.00   21.00
   7  -3  -3   20.30   25.70
   0   4  -3    1.60    6.20
   0  -4  -3    0.70    7.80
   0   4  -3  -10.40    5.40
   0  -4   3    5.90    9.30
   0  -4  -3  -12.50    7.50
   0   4   3   10.90    7.00
   0   4   3  -19.20    8.10
   0  -4   3   -7.30    8.80
  -1   4   3  740.13   46.90
   1  -4   3  850.31   49.00
  -1   4   3  735.33   36.70
   1  -4   3  746.43   39.00
   1   4  -3  705.03   39.80
  -1  -4  -3  712.53   41.30
  -1  -4  -3  825.22   43.00
   1   4  -3  821.22   35.00
  -1  -4   3  691.73   43.70
  -1  -4   3  810.12   41.00
   1  -4  -3  734.93   45.20
  -1   4  -3  743.83   30.80
   1   4   3  734.63   33.90
  -1   4  -3  705.83   40.80
   1  -4  -3  773.92   33.30
   1   4   3  746.63   47.60
  -2  -4  -3  762.12   46.90
   2  -4   3  817.72   40.60
   2  -4   3  702.43   47.90
  -2  -4  -3  880.11   42.60
   2  -4   3  819.62   36.50
   2   4  -3  889.01   41.40
  -2   4   3  828.22   41.90
  -2   4   3  818.22   51.49
   2   4  -3  722.43   41.90
  -2  -4   3  832.12   51.59
   2  -4  -3  776.22   49.50
   2   4   3  832.62   35.80
  -2   4  -3  764.82   45.40
  -2  -4   3  824.52   38.80
   2   4   3  726.73   49.70
   3  -4   3    6.70    9.90
  -3   4   3    6.20    8.90
  -3  -4  -3   24.70   11.00
   3  -4   3    9.20   12.10
  -3  -4  -3   15.10   12.70
   3   4  -3   -0.10   10.90
  -3   4   3   -7.90   10.20
   3   4  -3   17.00   10.40
   3   4   3   14.10   14.90
  -3   4  -3   11.90    8.50
  -3   4  -3    6.50   10.10
  -3  -4   3   28.60   16.30
   3   4   3    8.70    8.20
   3  -4  -3  -13.80    9.30
   4   4  -3  810.52   52.69
   4  -4   3  769.42   46.20
  -4  -4  -3  691.43   53.29
  -4   4   3  724.93   55.09
   4  -4   3  766.12   54.09
  -4   4   3  746.43   47.40
  -4  -4   3  736.13   54.89
   4   4   3  730.73   56.29
  -4   4  -3  722.53   47.90
  -4  -4   3  707.33   48.70
   4  -4  -3  769.12   54.09
   4   4   3  784.12   38.90
  -5   4   3  138.59   32.70
   5   4  -3  162.28   31.00
   5  -4   3  158.18   28.00
  -5  -4  -3  129.49   32.10
   5  -4   3   94.89   25.00
  -5  -4  -3   89.19   21.90
  -5   4   3   80.79   21.10
  -5  -4   3  138.99   29.60
  -5  -4   3  141.69   29.60
   5   4   3   66.79   23.20
  -5   4  -3  114.19   23.70
   5  -4  -3   92.79   25.30
   6  -4   3    2.40   18.60
   6   4  -3   33.10   23.30
   6  -4   3    7.00   17.50
  -6  -4  -3   -7.50   19.30
  -6   4   3   -3.70   16.30
   6  -4  -3   28.80   20.90
   6   4   3   11.40   20.80
  -6  -4   3   22.20   17.90
  -6  -4   3   11.50   19.80
   6  -4  -3  -20.20   16.80
  -6   4  -3   13.90   15.00
   0  -5  -3    0.50   11.00
   0   5  -3   -0.30    8.80
   0  -5   3    2.70   10.90
   0  -5  -3    7.90    9.80
   0   5   3    4.70   10.70
   0   5  -3    5.90    8.50
   0   5   3  -13.50    5.90
   0  -5   3   -3.60   10.60
   1  -5   3  285.77   31.40
  -1  -5  -3  261.87   27.20
   1   5  -3  306.57   24.10
   1   5  -3  259.67   25.80
   1  -5   3  287.27   26.60
  -1   5   3  303.17   33.30
  -1   5   3  286.77   24.80
  -1  -5  -3  304.07   29.10
   1   5   3  291.97   32.80
   1  -5  -3  283.47   22.00
  -1   5  -3  232.48   20.10
  -1  -5   3  300.77   28.80
  -1  -5   3  325.57   31.80
   1   5   3  300.27   23.90
  -1   5  -3  263.67   27.60
   1  -5  -3  246.38   29.40
   2  -5   3   47.30   14.50
   2  -5   3   46.10   19.70
   2   5  -3   43.30   14.00
  -2  -5  -3   75.39   17.70
  -2  -5  -3   20.20   14.60
   2   5  -3   45.60   15.00
  -2   5   3   54.99   15.50
  -2   5   3   85.69   23.10
  -2  -5   3   49.90   16.10
   2   5   3   10.30    9.30
  -2   5  -3   58.69   14.30
  -2  -5   3    3.70   13.90
   2  -5  -3   56.99   19.60
  -2   5  -3   37.30   16.10
   2   5   3   29.80   17.00
  -3   5   3   23.90   13.40
  -3  -5  -3   37.30   18.70
  -3   5   3   16.70   18.30
   3   5  -3   37.70   14.40
  -3  -5  -3   36.30   13.50
   3   5  -3   36.00   16.40
   3  -5   3   48.10   13.70
   3  -5   3   35.10   19.70
   3  -5  -3   24.30   17.40
  -3  -5   3   24.40   16.50
  -3   5  -3   18.40   13.60
   3   5   3    2.60   16.40
   3   5   3   35.60   12.80
  -4   5   3  113.09   28.40
  -4   5   3  109.99   22.90
   4  -5   3  177.58   26.10
   4   5  -3  119.79   27.30
   4   5  -3  135.59   24.10
  -4  -5  -3  118.59   28.60
   4  -5   3  150.18   31.60
  -4   5  -3  114.69   24.80
   4   5   3   97.39   28.60
  -4  -5   3  108.59   28.10
   4   5   3  183.98   21.40
   4  -5  -3   60.69   22.50
   5   5  -3  214.38   28.80
  -5  -5  -3  193.38   39.00
   5  -5   3  145.79   29.10
  -5   5   3  197.88   38.30
  -5   5   3  213.48   33.70
   5  -5   3  217.68   37.40
   5   5  -3  210.68   39.00
  -5   5  -3  170.58   30.60
   5   5   3  160.18   38.50
  -5  -5   3  146.59   34.90
   5  -5  -3  115.39   31.20
   6  -5   3   21.00   31.20
   6   5  -3   51.49   27.40
  -6   5   3   29.00   21.70
  -6  -5  -3   14.20   25.40
   6  -5   3   17.80   20.20
   6   5  -3    2.50   15.50
   6  -5  -3   -7.90   21.10
  -6   5  -3    3.10   14.30
  -6  -5   3    5.80   20.90
   6   5   3   22.90   25.20
   6  -5  -3   25.50   22.00
   0  -6   3   16.30   16.20
   0   6   3   14.80   12.00
   0  -6  -3   11.20   13.20
   0   6  -3    5.30   12.10
   0  -6  -3   -5.70   11.70
   0   6   3   -4.80   13.80
   0  -6   3   -3.30   10.60
  -1  -6  -3  162.68   27.10
  -1   6   3  199.58   24.50
  -1   6   3  144.89   30.40
   1  -6   3  187.98   33.10
  -1  -6  -3  143.29   26.90
   1  -6   3  159.48   24.00
   1   6  -3  184.18   25.90
  -1   6  -3  157.88   26.90
   1   6   3  182.58   31.40
   1  -6  -3  166.58   31.10
  -1  -6   3  195.18   27.10
  -1  -6   3  179.88   30.10
   1   6   3  197.38   23.40
  -2  -6  -3  340.97   37.00
  -2   6   3  382.06   42.00
  -2   6   3  318.37   31.50
   2   6  -3  320.97   33.40
   2  -6   3  279.57   38.40
   2  -6   3  323.37   30.10
  -2  -6  -3  347.67   34.10
  -2  -6   3  334.87   32.00
   2   6   3  300.57   27.80
  -2   6  -3  362.26   38.50
  -2  -6   3  333.87   39.40
   2  -6  -3  404.96   42.10
   2   6   3  389.26   41.20
  -3   6   3   20.60   15.50
   3  -6   3   55.79   25.30
   3   6  -3    4.20   17.00
  -3   6   3  -10.90   18.30
   3   6  -3    4.40   13.80
  -3  -6  -3   31.20   18.40
  -3   6  -3   61.29   19.40
  -3  -6   3   46.00   24.30
   3   6   3    1.90   10.80
   3  -6  -3    7.60   16.30
   3   6   3    7.80   17.40
   4   6  -3  393.96   38.70
   4   6  -3  328.87   39.80
  -4   6   3  357.06   45.10
  -4   6   3  313.77   35.80
   4  -6   3  394.56   47.00
  -4  -6  -3  419.46   46.40
  -4   6  -3  291.47   36.30
   4   6   3  361.96   47.50
  -4  -6   3  281.27   41.70
   4  -6  -3  366.56   45.70
  -5   6   3   69.69   24.40
   5   6  -3   35.50   20.60
  -5   6   3  101.49   32.00
  -5  -6  -3   51.49   26.90
   5  -6   3   39.50   24.10
   5   6  -3   89.59   30.70
   5  -6  -3   34.80   24.70
  -5   6  -3   23.60   18.00
  -5  -6   3   43.70   28.30
   5   6   3  126.09   36.80
   0   7   3  -22.60   14.40
   0  -7  -3   -3.10   14.90
   0  -7   3   -0.80   13.50
   0   7   3   10.90   14.40
   0  -7  -3  -19.30   13.20
   0   7  -3    2.30   13.90
   0  -7   3  -16.90   15.70
  -1   7   3  217.88   28.50
  -1  -7  -3  226.78   35.30
  -1  -7  -3  154.88   31.40
   1  -7   3  176.68   28.80
  -1   7   3  124.89   31.80
   1   7  -3  226.58   31.00
   1  -7   3  187.58   36.70
  -1   7  -3  176.38   33.60
   1   7   3  147.59   32.30
  -1  -7   3  121.99   27.10
   1   7   3  150.28   25.90
  -1  -7   3  228.48   33.20
   1  -7  -3  183.08   35.20
  -2  -7  -3   20.10   16.40
  -2  -7  -3   60.79   22.40
   2  -7   3   84.59   29.00
  -2   7   3   42.00   22.90
  -2   7   3   37.80   18.00
   2   7  -3   64.39   20.50
  -2  -7   3    3.70   17.40
   2  -7  -3   48.70   23.70
   2   7   3   62.49   19.50
  -2   7  -3   34.30   20.70
   2   7   3   58.99   24.50
   3   7  -3    0.10   14.90
  -3   7   3   -0.50   23.30
  -3  -7  -3    5.70   18.50
   3  -7   3   -7.60   22.00
  -3   7   3    5.30   16.80
   3  -7  -3   12.00   20.00
  -3   7  -3   -0.90   16.30
  -3  -7   3  -23.20   15.50
   3   7   3  -17.20   18.50
  -4   7   3   -1.80   16.70
  -4  -7  -3    7.20   19.00
   4  -7   3   22.40   26.20
  -4   7   3    4.90   18.80
   4   7  -3    6.40   17.30
  -4   7  -3   -4.20   17.90
   4  -7  -3   -6.90   20.10
   4   7   3   -3.20   21.70
  -4  -7   3    6.00   21.70
   0   8   3    3.80   18.00
   0  -8  -3  -16.30   20.50
   0  -8   3   19.90   23.00
   0   8  -3   -4.70   16.70
   0   8   3    0.80   18.10
   0  -8   3   17.20   19.10
  -1   8   3  103.59   33.80
  -1  -8  -3  149.69   30.70
   1   8  -3  130.49   29.30
   1  -8   3  174.88   39.20
  -1  -8  -3   95.39   31.30
  -1   8   3  199.58   34.90
   1  -8  -3  183.98   38.50
  -1   8  -3  132.49   33.30
  -1  -8   3  131.09   31.10
   1   8   3  196.28   37.60
  -1  -8   3  156.98   32.90
   2   8  -3   40.00   21.40
   2  -8   3   32.80   28.30
  -2  -8  -3   49.70   23.50
  -2   8   3   39.10   19.90
  -2   8   3   80.69   28.80
  -2  -8   3   22.60   21.00
  -2   8  -3   77.79   29.50
   2  -8  -3   28.20   26.40
   2   8   3   34.60   26.10
  -3  -8  -3  -16.20   19.40
   3  -8   3  -27.20   25.40
  -3   8   3   14.70   20.20
  -3   8   3  -28.30   22.10
   3   8  -3    0.10   19.70
   3  -8  -3   -8.90   26.70
  -3  -8   3  -10.00   20.70
   3   8   3  -11.40   20.70
  -3   8  -3   -2.10   21.60
   0  -9  -3  -40.10   22.40
   0   9   3  -18.90   22.70
   0  -9   3  -11.50   23.90
   0   9  -3    9.30   21.80
   1   9  -3  -11.30   21.20
  -1   9  -3   30.50   26.80
   0   0  -4 1601.24   45.10
   0   0   4 1554.94   55.59
   0   0   4 1609.54   56.49
   0   0   4 1590.84   52.09
   0   0  -4 1514.95   53.89
   1   0   4    4.70    7.40
  -1   0   4    0.50    6.50
  -1   0   4    5.70    5.50
   1   0   4   -3.10    6.30
  -1   0  -4    0.40    3.40
  -1   0   4   -4.90    5.80
  -1   0   4   -0.20    5.90
  -1   0  -4    4.40    6.40
  -2   0   4 1624.04   61.19
  -2   0  -4 1695.43   63.49
  -2   0   4 1684.53   60.29
   2   0   4 1655.03   62.39
  -2   0   4 1726.13   66.09
  -2   0   4 1815.42   61.39
  -2   0  -4 1674.83   53.19
   2   0   4 1794.02   64.79
  -3   0  -4   -0.20    5.30
   3   0  -4   -8.50    5.10
   3   0   4   -4.70    7.40
   3   0   4   -1.90    9.60
  -3   0   4   -8.70    6.00
  -3   0   4    1.90    8.70
  -3   0   4    2.70    7.70
  -3   0  -4   15.00    9.60
   4   0  -4  472.45   38.70
  -4   0  -4  381.56   27.30
  -4   0  -4  413.56   32.70
   4   0   4  499.15   39.50
  -4   0   4  443.66   31.80
   4   0  -4  414.26   26.30
   4   0   4  435.16   29.70
  -4   0   4  426.86   32.90
   5   0   4   11.50   11.50
  -5   0  -4    0.20   12.70
  -5   0  -4   -5.80   10.00
   5   0   4  -20.00   13.30
  -5   0   4    5.10   11.80
  -5   0   4   13.10   13.30
   5   0  -4    8.70   14.50
   6   0   4  -12.80   15.80
  -6   0   4   -8.50   12.10
   6   0  -4    6.80   18.50
  -6   0  -4    5.80   13.80
  -6   0  -4    7.50   11.40
  -7   0  -4   -5.30   18.30
   7   0   4  -31.90   20.30
  -7   0  -4  -15.20   12.20
  -7   0   4    1.10   15.90
   7   0  -4   -1.90   17.10
   0   1   4  499.85   17.40
   0  -1  -4  464.25   24.30
   0   1   4  504.35   28.80
   0  -1   4  473.85   27.20
   0   1   4  482.05   29.20
   0   1  -4  480.55   22.10
   0  -1   4  527.15   20.70
   0  -1   4  482.55   28.00
  -1   1   4  282.97   23.30
   1  -1   4  298.07   22.30
  -1  -1  -4  311.27   21.90
  -1   1   4  322.07   23.50
  -1   1   4  307.27   17.20
   1  -1   4  307.37   17.70
   1   1   4  297.07   23.50
   1  -1  -4  320.87   17.90
  -1  -1   4  330.47   19.10
  -1  -1   4  345.27   23.60
  -1  -1   4  289.77   20.20
  -1   1  -4  306.37   21.70
  -1  -1   4  281.67   19.50
   1   1   4  289.27   21.90
  -1   1  -4  305.77   17.60
   2  -1   4  365.56   24.10
   2  -1   4  318.77   25.90
  -2   1   4  346.67   22.60
  -2   1   4  323.67   19.50
  -2  -1  -4  343.97   16.00
  -2   1   4  312.67   27.40
   2   1  -4  352.56   23.80
  -2  -1  -4  354.66   25.90
  -2  -1   4  278.97   23.70
  -2   1  -4  335.77   23.80
   2  -1  -4  338.17   24.20
  -2   1  -4  357.36   21.70
  -2  -1   4  323.67   24.40
   2   1   4  351.36   23.70
   2   1   4  325.07   27.10
  -2  -1   4  320.07   20.80
  -3  -1  -4 1166.48   56.49
  -3   1   4 1195.28   45.30
  -3   1   4 1161.98   59.79
   3   1  -4 1151.78   53.79
  -3   1   4 1220.28   52.49
   3  -1   4 1231.78   54.49
   3  -1   4 1188.18   53.69
  -3  -1  -4 1250.57   44.20
  -3   1  -4 1256.17   49.90
   3  -1  -4 1209.88   51.69
  -3  -1   4 1164.18   54.29
  -3  -1   4 1180.48   43.60
  -3   1  -4 1205.58   52.19
  -3  -1   4 1081.69   53.09
   3   1   4 1160.48   48.70
   3   1   4 1158.28   59.19
  -4  -1  -4   46.80   11.40
  -4  -1  -4   31.70   14.90
   4   1  -4   39.20   14.20
   4   1  -4   44.60   10.30
   4  -1   4   47.50   15.80
  -4   1   4   46.80   12.00
   4  -1   4   38.50   13.50
  -4   1   4   41.60   14.00
  -4  -1   4   46.40   15.80
   4  -1  -4   46.90   17.10
   4   1   4   41.00   12.20
   4   1   4   44.80   18.20
  -4   1  -4   50.59   12.90
  -4   1  -4   45.80   14.50
  -4  -1   4   64.59   16.60
   4  -1  -4   45.90   13.30
   5  -1   4  437.16   33.80
  -5  -1  -4  424.86   39.80
   5  -1   4  513.15   41.90
  -5   1   4  405.36   37.00
  -5  -1  -4  424.56   31.80
   5   1  -4  360.76   38.30
   5  -1  -4  436.06   32.70
   5  -1  -4  407.56   42.10
   5   1   4  453.45   45.80
  -5  -1   4  465.75   38.70
  -5  -1   4  421.36   38.10
  -5   1  -4  439.26   34.70
  -5   1  -4  469.75   37.20
  -6  -1  -4  -20.90   12.70
   6   1  -4   17.30   17.10
  -6   1   4   22.70   17.80
   6  -1   4   31.80   19.70
  -6  -1  -4    2.30   11.80
   6   1   4   16.60   23.40
   6  -1  -4   46.20   22.40
  -6  -1   4   21.70   18.00
  -6  -1   4   -2.30   12.30
  -6   1  -4   20.00   15.60
  -6   1  -4   11.30   15.90
   7   1  -4   17.50   22.00
  -7  -1  -4  -13.20   17.20
  -7   1   4    6.00   19.90
   7  -1   4   11.00   20.40
  -7  -1  -4    5.20   15.30
  -7   1  -4    6.70   15.70
  -7  -1   4    4.60   15.90
   7  -1  -4   -6.10   18.30
   7   1   4   26.20   29.50
   0   2   4  702.13   39.10
   0  -2   4  682.13   35.50
   0  -2  -4  731.23   32.40
   0   2   4  719.13   37.40
   0   2   4  633.94   23.50
   0  -2   4  743.53   37.20
   0   2  -4  676.43   31.80
   1  -2   4 1239.38   51.69
  -1  -2  -4 1234.68   51.79
   1  -2   4 1257.67   54.49
  -1   2   4 1168.68   42.50
  -1   2   4 1258.87   56.29
   1   2  -4 1257.07   40.90
   1   2  -4 1197.28   46.20
   1   2   4 1239.68   56.29
  -1  -2   4 1202.18   52.59
   1  -2  -4 1235.78   52.89
   1  -2  -4 1254.47   42.80
   1   2   4 1218.88   51.09
  -1  -2   4 1199.78   47.40
  -1   2  -4 1290.87   47.90
   2   2  -4   66.49   13.10
   2  -2   4   60.09   15.20
   2  -2   4   81.69   12.90
  -2   2   4   61.59   15.40
  -2  -2  -4   69.29   16.20
  -2  -2  -4   70.99    8.60
  -2   2   4   80.89   13.40
   2  -2  -4   75.99    8.50
  -2   2  -4   84.89   14.60
  -2  -2   4   61.39   14.10
  -2   2  -4   89.39   15.00
  -2  -2   4   82.09   13.00
  -2  -2   4   58.19   14.30
   2  -2  -4   87.39   17.30
   2   2   4   80.69   14.20
   2   2   4   79.19   17.50
  -3   2   4  358.66   27.80
   3  -2   4  373.56   30.30
   3   2  -4  301.97   25.50
   3  -2   4  348.57   26.80
  -3  -2  -4  306.67   20.20
  -3  -2  -4  267.57   28.50
  -3   2   4  341.67   33.90
   3  -2  -4  284.57   27.20
  -3  -2   4  303.57   19.40
   3   2   4  318.47   31.50
  -3  -2   4  322.57   29.20
   3   2   4  333.67   24.40
  -3   2  -4  318.57   25.30
  -3  -2   4  322.97   30.50
  -3   2  -4  347.37   26.20
  -4   2   4    0.10   12.20
   4   2  -4   25.20   13.30
   4  -2   4   16.10   11.60
   4  -2   4    0.10   10.30
  -4  -2  -4   15.50    9.80
  -4   2   4   16.10   11.50
  -4  -2  -4   34.20   15.30
  -4   2  -4   36.40   12.80
  -4  -2   4    2.10    9.60
  -4   2  -4   17.90   10.30
  -4  -2   4   28.20   14.90
   4  -2  -4   15.90   10.80
   4   2   4   -4.00   12.80
   4   2   4   24.70   11.30
   5  -2   4  365.56   36.30
  -5  -2  -4  375.06   38.70
   5   2  -4  398.96   37.80
  -5  -2  -4  382.96   30.60
   5  -2   4  373.06   34.70
  -5   2   4  405.96   37.70
   5  -2  -4  385.16   34.80
   5   2   4  381.16   45.60
   5  -2  -4  304.77   39.00
  -5   2  -4  381.36   32.80
  -5   2  -4  361.66   33.20
  -5  -2   4  297.87   33.60
  -5  -2   4  397.16   39.00
  -6  -2  -4  100.39   27.20
   6   2  -4  133.79   31.20
  -6  -2  -4   52.99   18.50
   6  -2   4  123.69   26.60
  -6   2   4  162.48   31.30
   6  -2   4   95.59   27.00
  -6  -2   4  101.39   25.20
   6   2   4   43.10   25.80
  -6   2  -4   78.09   21.10
  -6  -2   4  138.59   30.40
   6  -2  -4  118.59   32.30
   7   2  -4  -15.20   18.10
  -7   2   4   37.60   24.40
  -7  -2  -4   21.20   22.20
   7  -2   4   24.40   22.10
   7   2   4   42.70   30.60
  -7   2  -4   36.00   19.70
  -7  -2   4    6.90   22.60
  -7  -2   4   17.40   17.00
   7  -2  -4   76.29   29.20
   0   3   4 2923.61   83.69
   0   3   4 2767.32  104.99
   0  -3  -4 2975.10   92.59
   0  -3  -4 2965.50  101.09
   0   3  -4 3078.69   96.79
   0  -3   4 3041.20   99.99
   0  -3   4 3003.50   99.79
   1   3  -4   26.40    9.00
  -1   3   4   23.20    8.20
  -1  -3  -4   33.20   11.70
  -1   3   4   36.90   13.70
   1  -3   4    9.90    9.50
   1  -3   4   29.70   13.90
   1   3  -4   48.80    8.60
  -1  -3  -4   39.60   13.10
  -1   3  -4   40.20   11.10
  -1  -3   4   36.50   12.30
   1   3   4   35.60   14.30
   1   3   4   35.60    6.70
   1  -3  -4   33.80   12.70
   1  -3  -4   29.90    8.40
  -1  -3   4   41.50   13.10
  -2   3   4  427.86   27.90
  -2   3   4  411.96   35.80
  -2  -3  -4  465.65   34.80
   2  -3   4  454.15   24.10
   2   3  -4  482.45   30.00
   2   3  -4  450.95   26.90
   2  -3   4  438.46   34.90
   2  -3  -4  375.06   32.00
  -2  -3   4  419.06   34.20
  -2  -3   4  418.96   25.50
   2   3   4  452.75   20.30
   2   3   4  464.85   29.90
  -2   3  -4  456.45   31.30
  -2   3  -4  444.46   28.40
   2   3   4  397.46   35.30
  -3   3   4   99.49   16.90
   3  -3   4   55.09   17.50
   3   3  -4   96.09   17.50
   3  -3   4   81.59   15.00
  -3  -3  -4   65.69   17.60
  -3   3   4   59.49   18.20
   3   3   4   75.09   15.30
   3   3   4   57.29   18.30
  -3  -3   4   90.69   18.80
   3  -3  -4   84.49   19.50
  -3   3  -4   78.19   14.80
  -3  -3   4   93.19   12.50
  -3   3  -4   85.79   16.90
  -3  -3   4  123.59   23.90
  -4  -3  -4   31.30   16.60
   4   3  -4   55.09   17.20
  -4   3   4   78.19   22.20
  -4   3   4   56.19   17.30
  -4  -3  -4   33.80   12.70
   4  -3   4   37.50   14.40
   4  -3   4   60.29   18.20
   4  -3  -4   46.80   17.10
  -4   3  -4   36.70   13.50
   4   3   4   44.60   19.90
   4   3   4   47.80   17.20
  -4  -3   4   38.00   14.70
  -4  -3   4   46.00   19.70
  -4   3  -4   58.19   17.00
   5  -3   4   76.79   22.10
   5  -3   4   68.79   22.10
   5   3  -4   47.80   19.50
  -5   3   4   62.19   24.90
  -5  -3  -4   71.39   17.90
  -5   3   4   52.69   19.90
  -5  -3  -4   67.69   25.10
  -5  -3   4   81.19   21.50
   5  -3  -4   54.19   20.20
   5   3   4   94.69   28.50
  -5   3  -4   61.69   18.80
  -5   3  -4   59.69   24.30
  -5  -3   4   26.10   18.80
  -6   3   4  395.46   42.90
  -6  -3  -4  287.47   41.50
   6  -3   4  380.86   41.70
   6   3  -4  221.98   38.50
   6  -3   4  338.57   37.80
   6  -3  -4  334.67   39.30
   6  -3  -4  337.77   46.40
  -6  -3   4  331.97   41.00
  -6  -3   4  312.27   38.90
   6   3   4  266.37   46.70
  -6   3  -4  353.66   37.80
  -7  -3  -4   23.60   22.60
  -7   3   4    7.60   20.90
   7  -3   4   -4.80   21.60
   7   3  -4    1.90   18.30
  -7  -3   4    0.10   18.00
  -7  -3   4   -6.50   21.20
  -7   3  -4   12.70   17.40
   7   3   4  -18.70   25.10
   7  -3  -4   10.30   26.80
   0   4   4  868.41   51.89
   0  -4   4  941.21   49.40
   0  -4   4  914.01   47.80
   0  -4  -4  964.80   50.79
   0  -4  -4  914.81   42.20
   0   4  -4  797.42   44.30
   0   4   4  846.52   36.70
  -1   4   4  116.99   22.80
   1   4  -4  108.89   18.70
   1   4  -4   99.99   12.90
   1  -4   4   99.49   18.20
  -1  -4  -4  113.79   19.50
   1  -4   4   99.39   20.70
  -1  -4  -4  129.39   18.80
  -1   4   4  123.69   15.20
  -1  -4   4   88.29   17.10
   1  -4  -4  123.29   21.70
  -1  -4   4  121.69   22.60
   1  -4  -4  108.39   13.50
   1   4   4  101.79   23.20
   1   4   4  130.99   13.50
  -1   4  -4  143.69   19.50
  -2  -4  -4  363.56   28.60
   2  -4   4  334.07   21.20
  -2   4   4  401.16   27.80
  -2   4   4  267.27   32.10
   2   4  -4  307.07   28.50
  -2  -4  -4  409.66   34.10
   2  -4   4  375.96   29.10
   2   4  -4  352.56   26.50
   2  -4   4  330.77   32.50
  -2  -4   4  358.96   26.50
   2   4   4  369.06   21.90
   2  -4  -4  346.17   33.20
   2   4   4  316.37   33.60
  -2   4  -4  339.77   30.80
  -2  -4   4  371.76   35.70
  -3   4   4  795.62   45.40
   3   4  -4  780.82   45.90
  -3   4   4  849.22   56.69
   3   4  -4  736.83   44.90
   3  -4   4  719.43   50.29
   3  -4   4  774.02   40.10
  -3  -4  -4  834.52   42.50
  -3  -4  -4  777.52   52.79
  -3   4  -4  787.22   47.50
  -3   4  -4  789.52   40.40
   3   4   4  787.42   35.70
   3  -4  -4  762.12   52.09
  -3  -4   4  844.62   57.39
   3   4   4  829.62   56.89
   4  -4   4  113.29   20.90
   4  -4   4   63.09   20.60
   4   4  -4   97.29   20.60
  -4   4   4  113.09   28.20
   4   4  -4  127.19   26.80
  -4   4   4  110.09   22.40
  -4  -4  -4  120.69   28.60
  -4   4  -4  151.98   25.40
   4   4   4  116.99   16.40
   4   4   4   51.19   23.50
  -4   4  -4  129.79   20.20
   4  -4  -4  123.89   26.10
  -4  -4   4   96.19   27.00
  -5  -4  -4   45.70   24.20
   5   4  -4   61.69   26.20
   5  -4   4  101.19   22.70
  -5   4   4   54.19   24.60
  -5   4   4   68.89   22.10
   5  -4   4   30.00   18.60
   5   4   4  112.79   32.50
  -5  -4   4   81.79   22.90
   5  -4  -4   53.59   22.30
  -5   4  -4   81.29   21.00
  -5  -4   4  131.29   31.10
   6  -4   4   33.60   23.00
  -6  -4  -4   25.80   24.50
   6   4  -4   88.39   30.50
   6  -4   4   26.80   20.40
  -6   4   4   42.40   22.60
  -6  -4   4   74.89   31.60
  -6   4  -4   21.10   16.70
   6   4   4   14.80   25.70
   6  -4  -4   17.30   23.30
   6  -4  -4   57.89   23.40
  -6  -4   4   39.90   21.40
   0  -5   4  596.44   41.60
   0  -5  -4  579.94   36.50
   0  -5   4  543.55   39.80
   0   5   4  610.14   33.70
   0   5   4  625.54   46.60
   0  -5  -4  592.94   42.70
   0   5  -4  568.64   39.80
  -1   5   4   47.80   19.40
   1  -5   4   47.00   15.30
   1   5  -4   86.29   18.00
  -1  -5  -4   51.49   15.70
   1  -5   4   57.59   17.60
  -1   5   4   80.29   15.20
  -1  -5  -4  114.19   22.50
  -1   5  -4   82.09   20.30
   1  -5  -4   34.10   15.60
  -1  -5   4   93.89   22.30
  -1  -5   4   54.49   16.80
   1   5   4   60.79   20.20
   1  -5  -4   56.59   14.20
   1   5   4   85.29   15.40
   2   5  -4   18.50   12.00
   2  -5   4    4.90   11.70
  -2  -5  -4    5.50   12.60
  -2   5   4   16.60   11.30
   2  -5   4   -4.20   12.90
  -2   5   4   15.30   14.50
  -2  -5  -4   28.50   13.90
   2   5  -4   -4.00   10.50
  -2  -5   4   16.70   14.80
   2   5   4    6.10    9.30
   2  -5  -4    9.70   14.90
   2   5   4    4.80   13.80
  -2   5  -4   24.80   12.50
  -2  -5   4  -14.00   10.30
   3   5  -4  996.40   56.99
  -3  -5  -4  999.70   52.59
  -3   5   4  966.60   53.29
  -3   5   4  882.31   62.49
  -3  -5  -4 1042.90   64.29
   3  -5   4  964.50   63.79
   3   5  -4  963.40   52.79
  -3  -5   4  958.60   65.59
   3   5   4  927.01   64.99
   3  -5  -4  944.81   62.99
  -3   5  -4  952.70   57.19
  -3   5  -4  966.00   47.40
  -4   5   4   38.20   20.90
   4   5  -4   38.50   21.00
  -4  -5  -4   27.30   20.10
   4   5  -4   16.30   14.90
   4  -5   4   30.50   17.80
  -4   5   4   30.90   15.80
   4   5   4   33.60   21.00
  -4  -5   4   -4.10   19.00
   4  -5  -4   11.80   15.60
  -4   5  -4   -2.30   12.10
  -5   5   4  110.19   25.00
  -5  -5  -4  159.88   36.10
   5   5  -4  114.89   26.30
  -5   5   4  131.49   35.40
   5  -5   4  131.89   30.60
   5   5  -4  253.17   40.30
   5  -5  -4  207.68   37.20
  -5  -5   4  137.79   36.20
  -5   5  -4   97.29   24.60
   5   5   4   88.69   30.60
  -6  -5  -4  179.28   42.10
   6   5  -4  176.58   38.50
   6   5  -4  181.98   31.50
  -6   5   4  148.59   31.60
   6  -5   4  188.28   38.70
   6  -5  -4  236.88   40.50
   6  -5  -4  174.78   40.50
   6   5   4  211.68   46.40
  -6  -5   4  234.88   44.30
  -6   5  -4  166.58   31.60
   0  -6  -4  852.71   55.99
   0   6   4  827.72   59.19
   0   6   4  808.22   45.60
   0  -6  -4  886.31   48.80
   0  -6   4  771.02   51.29
   0   6  -4  798.12   52.79
   0  -6   4  801.72   53.09
   1  -6   4   52.79   21.50
  -1  -6  -4   84.89   22.30
  -1   6   4   59.09   21.90
   1  -6   4   59.19   19.20
  -1   6   4   34.40   14.50
   1   6  -4   66.19   20.10
  -1  -6  -4   38.80   18.00
   1  -6  -4   55.49   22.40
   1   6   4   93.09   24.40
  -1  -6   4   26.60   17.00
   1   6   4   46.20   15.50
  -1   6  -4   75.49   21.00
  -1  -6   4   66.19   22.10
   2  -6   4  114.19   28.70
  -2   6   4  158.88   32.50
  -2   6   4  100.19   20.70
  -2  -6  -4  100.29   25.00
  -2  -6  -4   56.79   19.90
   2   6  -4  118.69   25.60
   2  -6   4   58.29   18.30
  -2   6  -4   81.49   23.00
   2   6   4   89.49   27.50
   2  -6  -4   78.29   25.30
  -2  -6   4   76.09   25.20
  -2  -6   4   95.49   22.00
   3  -6   4  493.75   50.09
   3   6  -4  406.46   39.70
  -3  -6  -4  467.95   46.20
  -3   6   4  488.45   39.20
  -3   6   4  450.55   48.00
   3  -6  -4  411.46   46.70
  -3  -6   4  471.65   48.90
  -3   6  -4  474.45   43.80
   3   6   4  438.36   49.10
   4  -6   4   28.40   21.80
   4   6  -4   23.80   17.70
  -4  -6  -4   18.60   19.00
  -4   6   4   42.20   21.70
  -4   6   4   18.30   16.40
  -4   6  -4   28.50   16.40
   4   6   4   16.60   21.60
   4  -6  -4    2.70   19.50
  -4  -6   4    1.60   20.10
   5   6  -4   -0.30   17.30
   5  -6   4   36.80   23.70
  -5   6   4   -4.90   19.90
  -5  -6  -4  -10.30   18.60
  -5   6   4    8.60   18.40
   5  -6  -4   17.00   20.90
   5   6   4   29.10   27.40
  -5  -6   4  -15.70   25.70
  -5   6  -4    7.60   14.60
   0   7   4  500.85   39.70
   0   7   4  537.85   51.79
   0  -7   4  537.35   46.70
   0  -7  -4  525.05   48.70
   0  -7   4  692.33   49.70
   0   7  -4  360.56   39.30
   1   7  -4   61.29   21.00
  -1   7   4    4.40   18.30
  -1  -7  -4   29.20   18.20
   1  -7   4   46.50   18.90
  -1  -7  -4   16.80   20.00
   1  -7   4   17.10   18.50
  -1   7   4   35.60   17.50
  -1  -7   4   64.99   23.40
   1  -7  -4   23.80   19.30
   1   7   4   16.60   19.90
  -1   7  -4   15.20   16.20
  -1  -7   4   19.40   17.10
  -2   7   4   31.60   18.40
  -2   7   4   -0.30   18.60
   2  -7   4  -13.10   18.60
  -2  -7  -4   28.60   21.40
   2   7  -4   -1.20   14.10
  -2  -7  -4   20.40   18.70
  -2  -7   4    8.80   19.30
   2  -7  -4   19.60   20.90
  -2   7  -4    9.80   18.10
   2   7   4   -2.90   18.50
  -3  -7  -4  441.66   47.70
   3   7  -4  382.96   42.60
  -3   7   4  533.45   55.99
   3  -7   4  516.65   57.99
  -3   7   4  462.75   42.20
   3   7   4  467.95   54.19
  -3  -7   4  444.76   50.69
  -3   7  -4  448.66   46.60
   3  -7  -4  428.36   50.79
   4  -7   4   20.50   24.30
   4   7  -4   -1.30   18.90
  -4  -7  -4  -11.40   16.60
  -4   7   4    8.40   18.10
  -4   7   4    4.70   21.80
   4  -7  -4   10.20   24.10
  -4  -7   4    6.10   19.60
   4   7   4   -0.70   21.50
  -4   7  -4   13.30   17.20
   0   8   4  529.85   55.69
   0  -8  -4  516.15   51.99
   0   8  -4  424.26   47.30
   0  -8   4  587.64   49.30
   0  -8   4  543.35   51.69
   1   8  -4   31.00   21.50
   1  -8   4    1.10   22.10
  -1  -8  -4    6.00   20.00
  -1   8   4    4.70   25.50
  -1   8   4   17.20   19.40
   1   8   4   10.80   21.50
  -1   8  -4    3.80   21.20
   1  -8  -4   54.39   27.60
  -1  -8   4   34.20   19.40
  -1  -8   4   14.00   21.20
  -2  -8  -4    1.30   21.40
  -2   8   4   -7.80   16.70
   2  -8   4    5.00   24.80
   2   8  -4    3.50   20.30
  -2   8   4   17.60   21.50
  -2  -8  -4   -2.20   19.00
   2  -8  -4   -5.00   24.20
  -2  -8   4   -8.90   17.80
  -2   8  -4   -8.80   19.20
   2   8   4   11.40   23.50
  -3   8   4  266.67   36.20
  -3  -8  -4  159.18   35.50
   3   8  -4  231.98   42.00
  -3   8   4  128.49   36.80
   3  -8   4  133.29   42.40
   3  -8  -4  141.19   40.20
  -3   8  -4  135.09   36.70
  -3  -8   4  194.58   43.20
   3   8   4  228.18   48.60
   0   0  -5    6.00    3.40
   0   0   5    3.80    6.10
   0   0   5    2.30    6.80
   0   0  -5   -1.10    5.80
  -1   0   5  -10.00    6.40
  -1   0   5    8.80    8.10
   1   0   5   -8.40    6.00
  -1   0  -5    2.40    3.70
  -1   0   5   -2.50    5.30
  -1   0   5    3.00    7.30
   1   0   5    2.80    7.10
  -1   0  -5    9.30    7.50
  -2   0  -5 3125.19   87.19
  -2   0   5 3010.30   96.99
  -2   0   5 3036.10  103.19
  -2   0  -5 2983.80  101.89
  -2   0   5 3197.08  100.19
   2   0   5 3094.49  100.49
  -2   0   5 2995.40   97.49
   2   0   5 3054.79  101.29
  -3   0  -5    4.20    9.00
   3   0   5   -0.50    9.70
  -3   0   5  -10.80    7.80
  -3   0  -5    2.10    6.00
   3   0  -5   10.10    8.00
  -3   0   5    2.20    8.60
   3   0   5   18.30   11.30
  -3   0   5    1.40    8.40
   4   0  -5 2462.65  100.29
  -4   0   5 2436.56   86.89
  -4   0  -5 2246.28   92.39
   4   0  -5 2374.76   81.29
  -4   0  -5 2311.87   80.59
   4   0   5 2369.86   87.19
   4   0   5 2395.36   98.59
  -4   0   5 2270.87   91.69
   5   0   5   10.20   13.20
   5   0  -5  -12.70   10.80
  -5   0  -5   -3.70    9.70
  -5   0  -5  -16.10   10.50
   5   0   5  -13.80   15.50
  -5   0   5   12.50   13.00
  -5   0   5   24.70   15.40
   6   0  -5   50.09   21.30
  -6   0  -5   19.60   17.50
   6   0   5   14.30   21.90
  -6   0   5   15.20   17.50
  -6   0  -5    8.50   11.50
   7   0  -5   -4.40   20.00
   7   0   5   -9.30   24.00
  -7   0  -5   18.30   19.90
  -7   0   5  -24.10   16.70
  -7   0  -5   -3.30   14.30
   0   1  -5    1.20    4.20
   0   1   5   11.00    8.60
   0  -1   5  -12.90    5.50
   0  -1  -5   -3.20    5.80
   0  -1   5   -4.30    4.90
   0   1   5   -5.80    6.20
   0   1   5    0.80    3.70
   0  -1   5   -1.20    6.80
   1  -1   5 1130.09   50.69
  -1  -1  -5 1121.09   49.40
   1  -1   5 1246.08   42.90
  -1   1   5 1181.18   52.69
  -1   1   5 1097.29   51.19
  -1   1   5 1143.49   41.70
  -1  -1   5 1136.99   44.00
  -1   1  -5 1197.78   41.90
   1  -1  -5 1086.29   43.20
  -1  -1   5 1045.00   49.10
   1   1   5 1074.39   50.79
   1   1   5 1154.98   50.89
  -1   1  -5 1153.78   49.10
  -1  -1   5 1197.28   46.10
  -1  -1   5 1145.19   47.80
  -2   1   5  627.24   31.30
  -2   1   5  644.34   32.60
   2  -1   5  628.64   37.50
  -2  -1  -5  566.64   22.20
  -2  -1  -5  637.74   37.50
  -2   1   5  667.53   38.20
  -2   1   5  592.54   39.30
   2  -1   5  612.84   32.80
  -2   1  -5  652.63   36.10
  -2  -1   5  665.53   33.40
  -2  -1   5  620.54   36.60
  -2   1  -5  632.44   30.30
   2   1   5  642.84   35.80
   2   1   5  660.93   40.40
  -2  -1   5  659.33   36.40
  -2  -1   5  580.64   33.70
   3  -1   5   68.49   15.90
  -3   1   5   55.39   12.70
  -3   1   5   76.59   19.60
   3  -1   5   64.29   16.50
  -3  -1  -5   56.39   10.30
  -3  -1  -5   40.30   13.70
  -3   1   5   74.39   15.70
   3   1  -5   43.70   13.40
  -3   1  -5   49.10   13.60
   3   1   5   42.50   12.10
   3  -1  -5   71.89   15.50
  -3  -1   5  103.79   18.50
  -3   1  -5   64.49   12.70
  -3  -1   5   81.29   17.60
  -3  -1   5   90.49   13.40
   3   1   5   63.39   18.70
  -4  -1  -5  201.88   18.70
  -4   1   5  191.38   28.40
  -4  -1  -5  194.18   26.00
  -4   1   5  186.88   19.80
   4   1  -5  179.98   24.70
  -4   1   5  207.58   25.30
   4   1  -5  175.98   17.30
   4  -1   5  190.28   23.60
   4  -1   5  184.28   26.80
  -4   1  -5  152.48   21.30
   4  -1  -5  213.28   23.50
  -4  -1   5  193.98   24.20
  -4  -1   5  149.99   24.60
   4   1   5  161.78   20.70
  -4   1  -5  192.58   21.50
   4   1   5  144.29   28.00
  -5   1   5  468.95   40.30
   5  -1   5  466.45   37.00
  -5  -1  -5  456.45   32.20
   5   1  -5  459.15   41.60
  -5  -1  -5  459.95   42.00
   5  -1   5  448.06   44.20
  -5  -1   5  481.45   40.10
  -5  -1   5  447.36   40.40
  -5   1  -5  485.75   35.70
   5   1   5  456.65   47.60
   5  -1  -5  423.26   43.50
   5   1   5  364.66   41.10
   5  -1  -5  434.26   34.60
  -5   1  -5  474.85   38.70
   6  -1   5   17.60   20.20
  -6  -1  -5   19.70   13.80
   6   1  -5   17.80   18.30
  -6  -1  -5   33.10   20.30
  -6   1   5   36.10   20.10
   6  -1  -5   16.30   19.70
  -6   1  -5    9.00   16.90
   6   1   5   32.20   23.00
  -6  -1   5   34.80   21.30
  -6   1  -5   32.70   16.10
  -6  -1   5   20.00   17.90
  -7  -1  -5   81.39   26.90
   7   1  -5  179.08   39.80
  -7   1   5  129.29   34.20
   7  -1   5  147.49   38.10
  -7  -1   5  132.09   32.80
  -7   1  -5  134.09   28.50
   7   1   5  154.28   39.70
   7  -1  -5   82.69   29.20
   0  -2  -5    4.60    6.50
   0   2   5    6.40    9.20
   0   2   5   -1.40    8.80
   0  -2   5   -2.10    8.00
   0   2  -5   -1.40    5.10
   0  -2   5   -5.90    7.30
   1  -2   5 3133.39  107.69
  -1   2   5 3323.07   94.39
  -1  -2  -5 3283.27  106.09
   1  -2   5 3153.58  109.39
  -1   2   5 3213.68  111.69
   1   2  -5 3400.86   91.69
   1   2  -5 3313.97   99.89
  -1   2   5 3227.18  111.99
   1   2   5 3336.87  113.39
   1  -2  -5 3315.87   96.39
  -1  -2   5 3160.98  108.19
  -1   2  -5 3375.86  100.89
  -1  -2   5 3299.07  103.49
   1   2   5 3346.97  107.99
   2  -2   5  236.88   24.90
  -2   2   5  159.48   17.40
   2   2  -5  159.88   16.50
  -2  -2  -5  176.88   22.40
   2  -2   5  179.58   16.50
  -2   2   5  179.68   24.50
   2  -2  -5  167.68   21.20
   2  -2  -5  147.09   13.10
   2   2   5  165.88   20.20
  -2   2  -5  184.88   19.10
   2   2   5  160.88   23.80
  -2   2  -5  196.28   20.60
  -2  -2   5  205.88   18.40
  -2  -2   5  149.88   19.40
  -2  -2   5  198.38   22.70
   3  -2   5   50.79   13.70
   3   2  -5   23.00   11.80
  -3   2   5   41.20    9.30
  -3  -2  -5   44.40    9.30
  -3   2   5   40.20   15.10
  -3  -2  -5   35.60   14.40
   3  -2   5   22.60   14.50
  -3   2   5   39.30   12.70
  -3  -2   5   38.60   11.10
   3  -2  -5   36.00   14.40
  -3   2  -5   30.00   11.30
  -3  -2   5   26.40   12.70
   3   2   5   27.00   12.10
   3   2   5   17.40   15.10
  -3  -2   5   28.10   14.60
  -3   2  -5   40.70   11.50
   4   2  -5  183.28   24.20
   4  -2   5  161.58   26.40
  -4  -2  -5  128.59   17.20
  -4   2   5  124.69   22.50
   4  -2   5  111.29   21.80
  -4   2   5  143.59   28.40
  -4  -2  -5  160.18   28.00
   4  -2  -5  150.58   22.30
   4   2   5  138.99   27.70
   4   2   5  171.28   21.10
  -4  -2   5  198.28   27.90
  -4  -2   5  177.28   28.40
  -4   2  -5  154.28   20.80
  -4   2  -5  122.59   21.40
   5   2  -5  552.14   45.60
   5  -2   5  642.94   46.10
  -5   2   5  633.44   47.20
   5  -2   5  627.04   47.00
  -5  -2  -5  601.44   37.80
  -5  -2  -5  640.34   51.39
  -5   2  -5  613.44   43.10
  -5  -2   5  579.44   47.00
   5   2   5  589.14   54.39
   5  -2  -5  596.64   44.00
  -5  -2   5  630.04   49.60
   5  -2  -5  542.05   50.09
  -5   2  -5  552.84   41.80
   6  -2   5   15.30   17.20
   6   2  -5   -5.10   15.40
  -6  -2  -5   16.80   17.10
  -6   2   5   14.00   18.40
   6  -2   5   -4.20   14.40
  -6   2  -5   -3.00   12.20
  -6  -2   5   12.00   15.60
  -6  -2   5   22.50   19.10
   6  -2  -5    4.10   15.80
   6   2   5  -18.00   20.20
  -6   2  -5    9.80   16.50
   7   2  -5  423.76   51.79
  -7  -2  -5  410.96   50.19
   7  -2   5  502.45   53.69
  -7   2   5  616.54   57.69
   7  -2  -5  404.86   52.89
  -7   2  -5  459.55   45.50
   7   2   5  484.45   62.09
  -7  -2   5  475.55   52.69
  -7  -2   5  389.36   45.80
   0  -3   5    0.10    9.00
   0  -3   5   10.90    9.30
   0   3   5    2.60    5.00
   0   3  -5    0.60    6.40
   0   3   5   -7.70    9.30
   0  -3  -5  -10.10    8.00
   0  -3  -5    5.00    7.50
  -1  -3  -5    7.40    9.70
   1  -3   5   11.00   10.70
   1  -3   5   13.80   10.80
  -1   3   5   11.40    7.80
   1   3  -5   32.70   10.60
  -1   3   5   19.30   12.40
   1   3   5   18.70    9.90
  -1  -3   5   18.10   12.20
   1  -3  -5   36.30    9.50
  -1   3  -5   21.90    9.40
  -1  -3   5   29.10   11.30
   1  -3  -5    2.20    9.80
   1   3   5   35.70   14.60
   2   3  -5  958.90   41.10
  -2   3   5  813.52   52.89
   2  -3   5  909.41   51.79
  -2  -3  -5  908.31   51.89
   2   3  -5  938.31   46.10
   2  -3   5  890.51   36.40
  -2   3   5  983.60   43.80
  -2   3  -5  949.80   46.50
  -2   3  -5  904.11   46.90
   2  -3  -5  936.31   34.20
  -2  -3   5  893.31   42.30
   2  -3  -5  881.41   51.59
   2   3   5 1011.00   48.20
   2   3   5  838.52   53.09
  -2  -3   5  885.51   51.69
  -3   3   5   23.00   14.70
   3   3  -5   28.20   13.50
  -3  -3  -5   40.10   17.40
  -3   3   5   42.30   14.20
   3  -3   5   48.10   16.80
   3  -3   5   58.09   14.20
  -3  -3   5   14.00   10.20
   3   3   5   27.10    7.60
  -3   3  -5   35.20   13.20
   3   3   5   39.00   17.20
   3  -3  -5   41.40   15.80
  -3  -3   5   30.50   14.20
   3   3   5   13.40   11.40
  -3  -3   5   36.10   13.70
  -3   3  -5   39.10   13.00
   4  -3   5  419.86   38.80
  -4   3   5  484.05   38.70
  -4  -3  -5  404.46   41.20
   4  -3   5  430.96   34.30
  -4   3   5  467.85   45.10
   4   3  -5  511.15   38.80
   4   3   5  434.46   31.60
  -4   3  -5  490.05   34.80
   4  -3  -5  417.66   38.40
  -4   3  -5  491.35   37.50
  -4  -3   5  446.56   42.30
  -4  -3   5  351.76   35.90
   4   3   5  371.76   43.00
   5  -3   5   35.80   16.70
  -5  -3  -5   28.90   20.10
   5   3  -5   48.40   21.00
   5  -3   5   76.89   22.60
  -5   3   5   63.49   21.30
  -5   3   5   68.39   24.30
  -5  -3   5   72.59   23.60
   5   3   5   47.20   25.70
   5  -3  -5   12.90   15.60
  -5  -3   5   30.80   15.90
  -5   3  -5   40.40   16.40
  -5   3  -5   40.00   16.10
   6  -3   5   70.49   25.00
   6  -3   5   30.50   20.40
  -6   3   5   29.40   22.50
   6   3  -5   51.99   25.20
  -6  -3  -5   60.79   26.80
   6   3   5   -0.90   23.20
  -6  -3   5   16.80   21.90
   6  -3  -5    4.50   22.30
  -6  -3   5   25.60   19.60
  -6   3  -5   41.50   18.40
   0  -4  -5    4.00    9.40
   0  -4  -5  -11.10    9.50
   0   4  -5    2.00    8.30
   0   4   5    6.80    9.80
   0  -4   5  -12.80    8.90
   0  -4   5    0.00   10.00
   0   4   5   -3.40    5.60
   1  -4   5  479.65   34.50
   1  -4   5  493.45   38.40
  -1  -4  -5  502.55   35.80
   1   4  -5  392.26   31.10
  -1   4   5  468.95   40.20
  -1  -4  -5  472.75   35.30
  -1   4   5  453.25   26.70
   1  -4  -5  475.15   27.80
  -1  -4   5  500.55   34.60
   1  -4  -5  383.16   36.50
   1   4   5  485.35   41.40
  -1  -4   5  539.95   39.70
  -1   4  -5  346.57   30.20
   1   4   5  455.15   22.90
  -2  -4  -5  711.43   42.50
  -2  -4  -5  734.83   47.30
   2  -4   5  632.24   47.20
  -2   4   5  624.34   49.00
   2   4  -5  732.53   36.40
  -2   4   5  744.63   39.80
   2   4  -5  633.74   42.60
   2  -4   5  780.62   43.80
   2   4   5  650.73   49.80
   2   4   5  670.13   31.60
   2  -4  -5  658.83   48.00
  -2  -4   5  708.53   48.90
  -2  -4   5  737.53   39.00
  -2   4  -5  736.83   45.30
  -3  -4  -5    1.20   13.80
   3   4  -5   25.60   14.80
   3  -4   5   32.40   15.50
  -3  -4  -5   14.00   12.70
  -3   4   5   23.90   13.20
  -3   4   5    9.50   15.00
   3   4  -5    8.80   11.00
  -3   4  -5   15.10   11.10
   3   4   5   10.80   16.80
  -3   4  -5   31.60   13.20
   3  -4  -5    9.20   15.20
  -3  -4   5   16.50   15.70
   4   4  -5  630.94   44.60
   4  -4   5  673.13   51.19
   4   4  -5  696.43   47.80
   4  -4   5  598.04   58.79
  -4   4   5  644.24   44.90
  -4  -4  -5  539.15   49.50
  -4   4   5  616.34   54.39
  -4   4  -5  658.63   45.80
  -4  -4   5  685.93   55.59
  -4   4  -5  712.83   43.10
   4  -4  -5  672.53   51.79
   4   4   5  629.04   57.09
  -5   4   5   79.09   23.10
   5   4  -5   98.59   24.20
   5  -4   5   78.39   24.30
  -5   4   5   90.39   29.40
  -5  -4  -5   78.79   27.80
   5  -4  -5  109.09   27.70
   5   4   5   62.69   27.70
  -5  -4   5  116.39   27.40
  -5   4  -5   89.59   21.90
  -5  -4   5  119.59   31.00
   6  -4   5  -15.50   15.30
  -6   4   5   21.90   20.60
   6   4  -5    8.40   22.20
  -6  -4  -5  -24.80   20.70
  -6  -4   5   27.00   23.40
   6  -4  -5   18.30   20.10
   6  -4  -5   -4.00   22.40
   6   4   5   71.09   29.70
  -6   4  -5   24.90   15.90
  -6  -4   5    9.00   19.80
   0  -5  -5   12.00   11.10
   0   5  -5   -6.60    8.30
   0  -5   5   11.30   14.20
   0  -5  -5   26.90   14.50
   0   5   5    1.70   12.10
   0   5   5   -0.30    8.10
   0  -5   5   -0.40   10.90
  -1   5   5  365.66   27.30
  -1   5   5  264.77   35.00
   1  -5   5  376.16   36.80
  -1  -5  -5  392.16   34.10
  -1  -5  -5  361.86   32.80
   1  -5   5  369.46   32.10
   1   5  -5  343.07   31.40
   1  -5  -5  371.26   36.90
   1   5   5  342.77   24.00
   1  -5  -5  324.47   25.30
   1   5   5  306.47   35.70
  -1   5  -5  350.36   32.70
  -1  -5   5  321.97   33.10
  -1  -5   5  324.87   31.60
   2   5  -5    3.40    9.70
  -2  -5  -5    3.00   12.60
   2  -5   5   14.30   13.50
  -2   5   5   17.60   12.30
   2  -5   5  -19.60   11.50
  -2  -5  -5  -17.20   10.30
  -2   5   5    3.70   13.20
   2  -5  -5    4.40   13.20
  -2  -5   5    4.70   12.90
   2   5   5   11.20   17.50
  -2   5  -5   21.00   12.90
  -2  -5   5  -17.80   11.70
   3   5  -5   -4.70   13.00
  -3  -5  -5   12.60   15.00
  -3   5   5   23.40   14.10
  -3   5   5   24.50   20.00
   3  -5   5   25.50   18.00
  -3  -5  -5   22.30   16.90
  -3   5  -5   20.70   14.10
   3  -5  -5   57.19   20.10
  -3   5  -5   36.00   14.50
  -3  -5   5   35.70   17.40
   3   5   5   41.00   20.50
  -4   5   5   91.19   22.10
   4   5  -5   65.49   21.60
   4  -5   5   82.89   25.30
  -4  -5  -5   19.70   18.70
  -4   5   5   45.90   23.20
  -4  -5   5   35.10   22.10
   4  -5  -5   70.89   24.90
  -4   5  -5   97.39   23.20
   4   5   5   65.39   28.60
  -5   5   5  146.89   28.90
   5   5  -5  135.69   29.20
  -5   5   5  198.28   39.30
   5   5  -5  224.78   37.80
   5  -5   5  154.08   34.00
  -5  -5  -5  104.59   33.10
   5   5   5  150.88   39.40
  -5   5  -5  151.88   28.90
  -5  -5   5  192.68   41.00
   5  -5  -5  122.49   31.70
  -6   5   5   46.90   26.60
   6   5  -5  -13.40   23.50
  -6   5   5   17.70   21.00
  -6  -5  -5   39.00   31.70
   6  -5   5   -0.60   21.10
   6   5  -5   30.20   21.20
   6  -5  -5   10.70   21.60
   6   5   5   25.80   27.80
  -6  -5   5   31.00   30.30
  -6   5  -5   -2.60   15.70
   0   6   5   -4.60    9.60
   0   6  -5    0.40   10.50
   0  -6  -5   10.20   12.90
   0   6   5    2.60   15.60
   0  -6   5    1.50   14.20
   0  -6  -5   12.70   16.40
   0  -6   5  -14.60   12.80
  -1   6   5  155.28   21.80
  -1  -6  -5  173.48   31.30
   1  -6   5  103.49   22.00
  -1  -6  -5  162.48   27.10
   1  -6   5  140.69   29.10
   1   6  -5  188.18   31.70
  -1   6   5  173.28   34.50
  -1  -6   5  145.79   25.60
   1   6   5  154.18   32.30
   1  -6  -5  137.39   28.70
  -1   6  -5  140.39   26.20
  -1  -6   5  205.38   33.70
  -2   6   5  157.68   23.10
   2  -6   5  192.48   34.30
  -2   6   5  180.88   35.10
   2   6  -5  208.78   30.00
   2  -6   5  213.28   28.50
  -2  -6  -5  220.68   30.20
  -2  -6  -5  238.58   32.60
  -2  -6   5  240.98   35.90
   2   6   5  201.58   36.30
  -2  -6   5  183.98   26.10
  -2   6  -5  172.68   30.80
   2  -6  -5  135.19   31.90
  -3   6   5  -22.60   14.70
   3   6  -5    4.80   14.10
  -3   6   5   17.60   14.50
   3  -6   5   31.80   21.40
  -3  -6  -5   11.70   16.70
   3  -6  -5   23.40   21.30
   3   6   5    3.80   20.00
  -3   6  -5   10.40   13.60
  -3  -6   5   49.70   24.70
   4  -6   5  125.89   34.10
  -4   6   5  227.68   43.00
  -4  -6  -5  201.08   39.20
   4   6  -5  203.78   35.20
  -4   6   5  246.88   31.70
  -4   6  -5  219.38   36.00
   4   6   5  313.67   45.80
  -4  -6   5  271.47   47.70
   4  -6  -5  205.78   40.20
  -5  -6  -5   40.10   25.60
  -5   6   5   58.09   23.60
  -5   6   5   33.00   26.10
   5  -6   5   42.70   24.90
   5   6  -5   20.80   20.20
   5   6   5   15.80   27.10
  -5  -6   5   19.40   30.10
  -5   6  -5   19.50   18.70
   5  -6  -5   39.40   27.60
   0   7   5  -11.70   16.00
   0  -7   5    1.70   16.90
   0  -7  -5    0.50   16.40
   0  -7   5  -11.70   17.60
   0   7  -5  -18.40   12.40
  -1   7   5   81.99   28.30
  -1  -7  -5  129.99   28.70
  -1   7   5   93.69   20.60
  -1  -7  -5  104.59   26.90
   1  -7   5   64.09   25.30
   1   7  -5   74.29   24.40
   1  -7   5  126.49   25.30
   1  -7  -5   71.49   26.30
  -1  -7   5  101.99   24.90
  -1  -7   5  111.29   29.40
  -1   7  -5   82.69   24.40
   1   7   5  135.59   32.90
   2   7  -5   77.39   24.20
  -2  -7  -5   68.29   23.90
  -2   7   5   42.10   18.30
   2  -7   5   33.70   24.30
  -2  -7  -5   21.80   19.80
  -2   7   5   43.20   24.90
  -2   7  -5   53.99   23.10
   2  -7  -5   57.39   26.90
   2   7   5   42.70   23.20
  -2  -7   5   77.69   28.60
  -3   7   5   -4.00   14.20
  -3   7   5  -15.00   21.10
   3  -7   5   13.70   24.40
   3   7  -5    6.50   19.30
  -3  -7  -5    2.90   17.30
   3  -7  -5  -11.10   17.10
  -3  -7   5   -6.50   18.20
  -3   7  -5   11.40   17.90
   3   7   5   13.50   25.70
   4  -7   5   19.40   25.50
  -4   7   5   -3.40   22.20
  -4  -7  -5   -0.90   19.70
   4   7  -5   20.90   20.20
  -4   7   5    6.80   17.70
  -4   7  -5   18.30   18.80
   4  -7  -5   23.80   24.10
   4   7   5  -28.40   21.50
  -4  -7   5   51.79   24.70
   0  -8  -5   10.90   21.60
   0   8   5   -5.50   19.60
   0  -8   5  -14.40   20.70
   0  -8   5    6.10   19.80
   0   8  -5    5.90   19.20
   1  -8   5   48.30   27.90
  -1  -8  -5   72.69   28.10
  -1   8   5   74.89   32.20
   1   8  -5   70.39   27.20
   1  -8  -5   99.19   33.10
  -1  -8   5   24.40   21.90
   1   8   5  118.79   35.20
  -1  -8   5   84.99   27.30
  -1   8  -5   68.69   30.50
   2  -8   5   25.70   28.60
  -2  -8  -5   18.10   23.80
   2   8  -5    9.20   20.90
  -2  -8  -5    0.10   19.40
  -2   8   5  -17.90   22.60
   2   8   5   19.10   23.80
  -2  -8   5  -10.80   18.40
  -2   8  -5   12.80   23.90
   2  -8  -5   31.60   28.20
   0   0  -6 1050.99   47.00
   0   0   6  981.70   43.50
   0   0  -6 1068.19   35.60
   0   0   6  978.70   48.60
  -1   0  -6    2.60    3.90
   1   0   6   -0.90    8.20
   1   0   6   -0.70    7.90
  -1   0   6    0.80    7.40
  -1   0   6   -2.50    7.50
  -1   0   6   -6.40    7.70
  -1   0   6   -1.40    6.40
  -1   0  -6    4.90    7.20
  -2   0   6 2268.07   81.09
  -2   0   6 2242.08   77.49
  -2   0   6 2213.48   82.89
   2   0   6 2199.78   81.19
  -2   0  -6 1973.40   80.79
   2   0   6 2073.39   82.59
  -2   0   6 2151.78   77.69
  -2   0  -6 2117.29   65.19
  -3   0  -6   -4.40    5.60
   3   0   6    8.10   10.00
  -3   0   6   -0.40    9.50
  -3   0   6    0.90   10.60
   3   0   6    2.30    9.90
  -3   0   6    2.80    9.70
  -3   0   6    0.70    8.40
  -3   0  -6   -0.70    9.50
  -4   0   6  738.53   47.30
  -4   0  -6  752.32   38.10
   4   0  -6  764.32   41.70
   4   0   6  698.03   45.10
  -4   0   6  831.72   45.80
  -4   0  -6  752.92   48.70
   4   0   6  733.03   51.79
   4   0  -6  788.42   51.89
  -5   0   6  -20.90   10.30
  -5   0   6   14.40   13.10
   5   0   6   -0.10   18.70
  -5   0  -6    1.40   14.10
  -5   0  -6   -0.80   10.30
   5   0   6    3.20   13.10
   5   0  -6   -1.40   14.40
   6   0  -6  225.38   39.20
  -6   0  -6  217.18   27.20
  -6   0  -6  175.08   33.70
  -6   0   6   94.19   26.50
   6   0   6  180.18   37.30
   7   0   6   20.80   26.50
  -7   0   6   -4.90   20.30
   7   0  -6  -15.90   21.00
  -7   0  -6    4.90   20.30
   0   1   6   88.79   16.10
   0   1  -6   92.59   10.90
   0  -1  -6   77.69    6.60
   0  -1  -6   61.89   12.90
   0  -1   6   46.80   14.60
   0   1   6   59.69   15.70
   0  -1   6   84.59   12.20
   0  -1   6   81.49   17.10
  -1   1   6  300.57   20.00
   1   1  -6  294.57   19.80
  -1   1   6  304.67   27.10
  -1   1   6  303.87   27.50
   1  -1   6  296.77   20.30
  -1  -1  -6  307.17   26.10
   1  -1   6  290.77   26.50
   1   1   6  291.67   26.80
  -1  -1   6  369.16   27.10
   1  -1  -6  342.17   23.30
  -1   1  -6  300.57   19.20
  -1  -1   6  286.27   22.00
   1   1   6  295.47   26.70
  -1  -1   6  283.27   25.30
  -1   1  -6  280.97   24.70
  -2   1   6  168.08   17.80
   2  -1   6  133.99   20.10
   2  -1   6  124.39   17.00
  -2   1   6  167.08   18.40
  -2   1   6  116.59   20.70
  -2  -1  -6  147.69   20.10
  -2   1   6  136.39   19.90
  -2  -1   6  148.69   20.70
  -2  -1   6  155.88   19.20
   2   1   6  178.38   21.40
  -2   1  -6  155.58   15.40
   2   1   6  180.18   23.60
  -2   1  -6  187.58   21.30
  -2  -1   6  144.09   18.80
  -2  -1   6  155.18   18.80
  -3  -1  -6  401.56   34.10
  -3   1   6  412.36   30.80
  -3   1   6  489.05   40.50
  -3  -1  -6  401.96   20.90
   3  -1   6  489.95   36.10
  -3   1   6  395.86   27.00
   3  -1   6  395.56   32.00
   3   1  -6  383.66   31.50
   3   1   6  436.26   32.20
  -3  -1   6  409.56   28.90
  -3   1  -6  440.36   28.00
  -3  -1   6  390.56   31.80
   3  -1  -6  423.36   31.50
  -3  -1   6  337.57   30.30
   3   1   6  390.46   36.00
  -3   1  -6  427.26   33.60
  -4  -1  -6  100.19   14.20
   4  -1   6   95.89   21.90
  -4  -1  -6   96.89   23.40
   4   1  -6  118.79   23.80
   4   1  -6   89.79   15.90
  -4   1   6   74.59   23.60
   4  -1   6  133.59   25.10
  -4   1   6   83.79   16.70
  -4   1   6   81.69   19.60
  -4   1  -6   92.59   20.30
   4   1   6   77.19   18.60
  -4  -1   6  159.48   23.30
   4  -1  -6   56.29   15.60
  -4   1  -6   80.99   15.90
  -4  -1   6   96.59   21.20
   4   1   6   77.19   22.50
   5   1  -6  199.88   33.80
   5  -1   6  149.79   31.50
  -5  -1  -6  196.68   34.50
  -5   1   6  164.58   29.20
   5  -1   6  197.28   30.10
   5  -1  -6  203.38   30.80
  -5   1  -6  200.58   23.90
  -5  -1   6  178.48   29.20
  -5  -1   6  169.08   29.90
   5   1   6  157.98   33.80
   5   1   6  147.79   24.50
   5  -1  -6  135.39   30.90
  -5   1  -6  237.08   30.40
  -6   1   6   19.10   19.10
   6  -1   6   -6.80   18.90
  -6  -1  -6   34.20   21.90
   6   1  -6   45.20   21.90
  -6   1  -6   21.70   19.70
   6  -1  -6   52.59   24.70
   6   1   6   12.70   23.20
  -6  -1   6   11.80   18.10
  -6  -1   6   15.10   18.40
  -6   1  -6   21.40   13.80
   7   1  -6   22.00   22.30
  -7  -1  -6   16.10   20.30
   7  -1   6   -5.90   25.60
  -7   1   6   10.90   24.30
   7   1   6   33.40   31.40
  -7   1  -6   18.80   18.80
  -7   1  -6   29.30   23.30
   7  -1  -6   38.20   26.50
  -7  -1   6   32.60   25.60
   0   2   6  482.15   35.30
   0   2  -6  475.05   28.10
   0  -2  -6  525.55   31.30
   0  -2   6  541.75   34.90
   0   2   6  475.85   35.00
   0  -2   6  503.65   35.00
  -1  -2  -6 1771.72   70.69
   1   2  -6 1708.53   63.49
  -1   2   6 1834.72   76.39
  -1   2   6 1689.33   74.89
   1  -2   6 1742.03   72.69
   1  -2   6 1856.41   73.19
   1   2  -6 1695.93   55.29
  -1   2   6 1790.12   57.79
  -1  -2   6 1823.52   69.19
   1   2   6 1658.73   75.19
   1   2   6 1827.42   73.89
  -1  -2   6 1786.72   73.49
  -1   2  -6 1767.72   64.39
   1  -2  -6 1744.43   61.89
   2   2  -6   63.59   12.70
   2  -2   6   81.59   19.10
  -2  -2  -6   33.80   13.60
  -2   2   6   82.29   14.30
   2  -2   6   65.29   12.10
  -2   2   6   76.09   19.10
  -2   2  -6  128.19   20.90
  -2  -2   6   98.39   17.00
   2   2   6   67.89   16.30
  -2  -2   6   70.99   18.00
   2  -2  -6   64.39   16.90
  -2  -2   6   69.19   15.30
   2   2   6  108.89   21.90
   2  -2  -6   80.29   12.80
  -2   2  -6   80.69   14.80
  -3   2   6  374.26   36.80
  -3  -2  -6  344.57   33.90
  -3   2   6  330.07   28.10
   3  -2   6  335.07   32.70
   3   2  -6  409.56   30.00
   3  -2   6  437.56   30.10
  -3  -2   6  419.66   34.40
  -3   2  -6  367.56   30.70
  -3  -2   6  352.46   33.00
  -3  -2   6  373.66   26.50
   3   2   6  289.87   33.60
   3   2   6  378.66   30.30
   3  -2  -6  394.76   32.90
  -3   2  -6  355.76   28.30
  -4   2   6   32.20   15.40
   4   2  -6    4.30   12.90
   4  -2   6   25.00   14.90
  -4  -2  -6    2.90   14.00
   4  -2   6   48.00   16.10
  -4   2   6   34.00   19.20
  -4   2  -6   36.60   12.70
   4  -2  -6   -0.10   10.80
   4   2   6   18.00   17.40
  -4  -2   6   20.80   15.40
  -4   2  -6    8.50   11.60
   4   2   6    6.30   11.50
  -4  -2   6   13.00   12.80
   5   2  -6  548.85   44.90
   5  -2   6  560.14   47.20
   5  -2   6  564.94   44.70
  -5  -2  -6  617.44   51.99
  -5   2   6  566.54   46.60
  -5   2   6  428.36   49.70
   5  -2  -6  548.55   43.60
  -5  -2   6  530.45   47.10
   5   2   6  536.45   52.89
  -5  -2   6  569.14   48.00
  -5   2  -6  508.25   39.20
  -5   2  -6  501.55   41.20
  -6   2   6   77.19   26.00
   6  -2   6  108.89   27.20
   6   2  -6  117.49   29.80
  -6  -2  -6   60.39   24.60
   6  -2   6   83.29   26.70
  -6   2  -6   68.69   22.70
  -6   2  -6   43.60   17.80
  -6  -2   6   93.49   29.00
   6  -2  -6   50.99   25.10
   6   2   6   79.89   32.70
  -6  -2   6   23.70   19.80
   0   3   6  686.23   45.30
   0  -3   6  708.73   43.10
   0   3  -6  606.24   36.40
   0  -3  -6  718.23   38.30
   0   3   6  650.73   44.60
   0   3   6  651.43   25.50
   0  -3   6  717.23   43.10
  -1   3   6   21.10   14.00
  -1  -3  -6   55.79   16.60
   1   3  -6   47.50   12.90
   1  -3   6   60.69   17.90
   1  -3   6   54.19   17.40
  -1   3   6   65.79   11.40
   1  -3  -6   55.39   16.90
   1   3   6   65.99   19.40
  -1   3  -6   53.79   13.90
   1   3   6    7.90   10.70
  -1  -3   6   68.19   16.20
  -1  -3   6   68.89   18.20
   1  -3  -6   45.90   10.80
   2  -3   6  367.16   34.20
   2   3  -6  362.36   24.80
  -2  -3  -6  413.66   34.80
   2   3  -6  378.86   29.60
  -2   3   6  346.87   36.10
  -2   3   6  415.96   27.40
   2  -3   6  346.97   21.00
   2   3   6  321.87   34.90
   2  -3  -6  341.27   32.70
  -2   3  -6  378.26   29.80
   2   3   6  415.56   32.20
   2  -3  -6  393.86   22.60
  -2  -3   6  407.06   35.20
  -2  -3   6  410.76   29.30
  -2   3  -6  363.46   30.50
  -3   3   6   51.19   19.50
   3  -3   6   57.09   14.40
  -3  -3  -6   24.80   15.40
   3   3  -6   36.20   13.80
   3  -3   6   45.50   17.70
  -3   3   6   69.69   17.30
   3   3  -6   35.80   13.00
  -3  -3   6   41.10   17.60
   3   3   6   41.40   14.70
  -3  -3   6   42.90   13.10
  -3   3  -6   26.00   12.50
   3  -3  -6   55.99   18.40
   3   3   6   47.30   20.40
  -3   3  -6   30.20   14.10
  -4   3   6   93.69   21.90
   4  -3   6   21.40   16.90
  -4   3   6   99.89   27.10
  -4  -3  -6   58.99   23.30
   4  -3   6   74.39   22.40
   4   3  -6   56.39   19.10
  -4   3  -6   72.79   19.10
  -4  -3   6   72.79   22.10
   4   3   6   65.49   16.90
   4  -3  -6   65.89   21.10
  -4   3  -6   66.29   18.90
   4   3   6   68.79   25.50
  -4  -3   6   67.39   23.50
   5  -3   6    8.20   16.20
   5   3  -6   -1.20   13.90
   5  -3   6   11.70   16.60
  -5  -3  -6   -0.20   18.80
  -5   3   6   17.30   15.10
  -5   3   6   -6.10   18.80
  -5  -3   6   26.90   20.00
  -5  -3   6   -2.70   15.40
   5  -3  -6    7.00   14.90
  -5   3  -6   -2.40   11.30
  -5   3  -6   -5.40   13.60
   5   3   6   15.00   22.80
  -6   3   6  145.69   33.00
   6  -3   6  143.39   31.10
  -6  -3  -6  125.59   33.90
   6   3  -6  185.28   36.90
   6  -3   6  122.49   31.80
  -6  -3   6  185.78   35.90
  -6  -3   6  178.68   37.00
  -6   3  -6  120.19   25.90
   6   3   6  191.68   45.40
   6  -3  -6  151.38   37.40
   0  -4   6   49.50   17.20
   0   4   6   66.09   19.60
   0  -4   6   41.20   15.70
   0  -4  -6   80.89   16.90
   0   4   6   79.09   11.50
   0   4  -6   74.09   16.60
   0  -4  -6   55.39   17.70
   1   4  -6  118.09   20.80
  -1  -4  -6  125.89   23.30
  -1   4   6  100.49   15.70
  -1   4   6  129.39   27.40
  -1  -4  -6  131.89   23.00
   1  -4   6  138.59   24.10
   1  -4   6  105.29   22.40
  -1   4  -6  135.09   22.50
   1  -4  -6  111.89   16.60
   1  -4  -6  101.59   23.90
  -1  -4   6  114.69   24.00
   1   4   6  116.39   24.70
  -1  -4   6  194.78   23.60
  -2  -4  -6  816.62   47.50
   2   4  -6  656.63   44.20
  -2   4   6  809.62   41.00
   2  -4   6  712.63   50.69
  -2  -4  -6  759.82   50.69
  -2   4   6  725.33   55.49
  -2  -4   6  677.73   49.20
  -2  -4   6  766.22   43.00
   2   4   6  703.43   53.69
  -2   4  -6  742.73   46.60
   2  -4  -6  733.33   50.89
  -3   4   6  679.33   42.40
  -3   4   6  555.54   51.09
   3   4  -6  651.13   40.10
  -3  -4  -6  565.84   48.40
   3  -4   6  597.04   48.60
  -3  -4  -6  632.74   41.60
   3   4  -6  628.64   44.10
   3  -4  -6  657.23   50.49
  -3   4  -6  632.34   43.90
   3   4   6  513.75   50.79
  -3  -4   6  608.34   50.49
  -3   4  -6  626.94   41.40
  -4   4   6  375.36   35.70
  -4  -4  -6  287.17   38.60
   4   4  -6  364.26   34.40
   4   4  -6  280.77   31.40
   4  -4   6  355.06   39.40
  -4   4   6  355.56   43.90
  -4  -4   6  363.56   44.00
  -4   4  -6  315.87   32.50
  -4   4  -6  346.87   33.80
   4  -4  -6  309.57   37.30
   4   4   6  353.66   45.60
  -5   4   6   97.99   25.80
  -5  -4  -6   72.39   27.60
   5   4  -6   96.09   26.00
   5  -4   6  100.99   27.80
  -5   4   6   57.39   26.00
  -5  -4   6   94.69   29.00
  -5   4  -6   53.69   20.20
   5   4   6   71.69   32.80
  -5  -4   6  161.38   32.50
   5  -4  -6   78.69   25.80
   6   4  -6    5.20   19.00
  -6  -4  -6   22.40   26.20
   6  -4   6   27.50   20.30
  -6   4   6   31.90   24.40
  -6   4   6   17.40   22.00
  -6  -4   6    6.50   17.90
   6   4   6   23.90   30.10
  -6   4  -6   11.40   15.30
   6  -4  -6    5.60   18.20
   6  -4  -6   16.90   25.80
  -6  -4   6   52.69   26.40
   0  -5  -6  296.77   34.20
   0  -5   6  286.97   32.50
   0  -5   6  365.66   35.60
   0   5  -6  294.07   30.30
   0  -5  -6  306.87   28.70
   0   5   6  316.47   37.40
   1  -5   6  166.28   27.40
   1   5  -6  182.48   25.10
   1  -5   6  140.39   28.40
  -1  -5  -6  214.48   26.40
  -1   5   6  148.39   19.10
  -1   5   6  163.08   33.50
  -1  -5  -6  207.98   29.30
  -1   5  -6  151.38   25.70
   1  -5  -6  167.68   30.50
  -1  -5   6  179.48   30.80
   1   5   6  228.08   33.70
  -1  -5   6  209.48   27.80
  -2  -5  -6   50.29   19.00
  -2   5   6   35.50   19.50
   2  -5   6   71.99   24.00
  -2  -5  -6   30.70   17.30
  -2   5   6   42.50   14.60
   2  -5   6    8.30   13.50
   2   5  -6   61.49   18.10
  -2  -5   6   47.10   15.90
   2   5   6   38.70   21.50
  -2  -5   6   42.00   18.30
   2  -5  -6   57.39   21.70
  -2   5  -6   64.49   20.40
   3  -5   6  203.48   34.80
  -3   5   6  230.98   26.30
   3   5  -6  140.79   27.90
  -3  -5  -6  200.28   35.10
  -3   5   6  250.57   41.20
  -3  -5  -6  229.58   29.00
   3  -5  -6  212.08   36.30
   3   5   6  174.18   35.80
  -3   5  -6  192.18   25.90
  -3  -5   6  228.88   38.70
  -3   5  -6  143.79   28.00
  -4  -5  -6   47.30   22.30
  -4   5   6  125.09   26.10
   4   5  -6  116.29   25.70
  -4   5   6   96.09   29.50
   4  -5   6  116.19   29.20
   4   5   6   37.00   22.50
   4  -5  -6   92.99   28.70
  -4   5  -6   48.90   19.70
  -4  -5   6   19.20   23.10
  -5  -5  -6   87.49   31.80
  -5   5   6   85.19   24.60
   5   5  -6   51.09   22.00
   5  -5   6  140.99   33.20
  -5   5   6   69.69   29.20
   5   5   6  126.99   40.20
  -5   5  -6  122.49   28.20
   5  -5  -6  108.79   30.40
  -5  -5   6   54.69   27.40
   0  -6  -6  626.44   43.50
   0   6  -6  698.33   50.19
   0   6   6  671.43   57.99
   0  -6   6  621.44   49.40
   0  -6  -6  680.33   52.89
   0  -6   6  671.43   50.59
   1   6  -6  212.98   30.40
   1  -6   6  252.47   31.70
  -1  -6  -6  310.97   35.20
   1  -6   6  337.27   37.40
  -1   6   6  312.97   42.00
  -1  -6  -6  266.37   36.20
   1   6   6  226.28   40.40
  -1  -6   6  362.76   36.30
  -1  -6   6  277.27   35.20
  -1   6  -6  238.98   31.40
   1  -6  -6  237.58   39.10
   2  -6   6   97.69   25.90
  -2  -6  -6  127.79   28.80
  -2   6   6   97.89   26.70
   2  -6   6   84.39   26.40
  -2  -6  -6   75.19   23.30
  -2   6   6  149.09   24.40
   2   6  -6  120.29   27.40
  -2   6  -6   83.39   23.60
  -2  -6   6  124.59   25.60
   2   6   6  106.29   30.90
  -2  -6   6   56.39   24.10
   2  -6  -6   99.19   28.50
  -3   6   6   17.20   14.10
  -3   6   6   38.70   23.50
   3  -6   6   -1.90   16.10
   3   6  -6   15.70   18.00
  -3  -6  -6   14.80   16.80
  -3  -6  -6    5.70   16.80
   3  -6  -6    1.80   17.50
  -3   6  -6    2.40   16.00
   3   6   6   -2.00   18.40
  -3  -6   6   39.90   22.70
  -4   6   6   35.00   28.00
   4  -6   6   19.50   20.80
  -4   6   6   25.20   17.50
  -4  -6  -6   30.20   22.50
   4   6  -6   20.30   21.80
   4   6   6   13.20   23.60
   4  -6  -6   46.40   23.20
  -4  -6   6   -2.80   21.90
  -4   6  -6   15.60   18.00
  -5  -6  -6   97.09   33.10
   5  -6   6   35.40   29.30
  -5   6   6   95.59   27.90
   5   6  -6   61.19   27.70
  -5   6   6   58.39   28.60
  -5  -6   6   18.70   28.90
   5   6   6   80.19   34.20
   5  -6  -6   43.60   26.30
  -5   6  -6   67.09   24.10
   0   7   6    9.50   18.40
   0  -7  -6   58.39   25.90
   0  -7   6   22.40   18.70
   0   7  -6   27.60   18.30
   0  -7   6   27.70   21.50
   1  -7   6   81.89   23.90
   1  -7   6  111.99   28.40
   1   7  -6   25.90   18.90
  -1  -7  -6   44.30   20.60
  -1  -7  -6   31.20   20.10
  -1   7   6   55.39   25.70
   1  -7  -6   69.79   30.10
   1   7   6   39.00   25.00
  -1  -7   6   69.49   26.20
  -1  -7   6   72.39   23.00
  -1   7  -6   37.10   19.80
  -2  -7  -6   55.99   25.90
   2  -7   6   79.19   38.80
   2  -7   6   54.19   26.70
   2   7  -6   40.70   22.40
  -2   7   6   54.19   27.30
  -2  -7  -6   37.00   22.00
   2  -7  -6   32.90   26.10
  -2  -7   6   88.09   27.10
   2   7   6   73.29   29.70
  -2   7  -6   63.49   24.10
   3   7  -6  210.78   39.00
  -3   7   6  221.58   43.50
  -3   7   6  291.47   34.90
  -3  -7  -6  243.28   42.10
   3  -7   6  239.28   46.20
   3  -7  -6  260.67   46.80
  -3   7  -6  208.28   38.60
   3   7   6  305.87   50.69
  -3  -7   6  164.08   41.30
   4   7  -6    8.90   23.20
  -4  -7  -6   18.70   23.50
   4  -7   6   -5.80   23.00
  -4   7   6   -7.20   23.80
  -4   7   6   13.50   18.80
   4   7   6   20.30   28.60
   4  -7  -6   16.00   24.00
  -4   7  -6   79.59   27.60
  -4  -7   6   11.70   25.70
   0   8   6   95.49   35.00
   0  -8  -6  105.79   33.20
   0  -8   6   58.59   26.50
   0  -8   6   85.19   28.30
   0   8  -6  123.89   34.30
  -1   8   6   -9.30   25.40
   1  -8   6   15.50   25.20
  -1  -8  -6   52.69   28.70
   1   8  -6   52.19   28.20
   1  -8   6   37.90   21.80
   1  -8  -6   14.50   25.50
  -1  -8   6   16.80   20.80
  -1  -8   6   18.00   22.90
  -1   8  -6   17.20   18.60
   1   8   6    9.30   24.60
  -2  -8  -6   40.10   22.20
   2  -8   6   62.89   32.30
   2   8  -6   89.49   30.50
  -2  -8  -6   37.60   28.40
  -2   8   6   89.09   34.40
  -2  -8   6   65.09   28.70
   2   8   6  104.99   36.50
   2  -8  -6  106.59   36.30
  -2   8  -6   71.79   28.80
   0   0   7   -7.10    7.00
   0   0  -7    4.90    4.60
   0   0  -7   -6.40    6.70
   0   0   7   -5.50    8.10
  -1   0   7   15.30   10.00
  -1   0   7   -5.20    7.70
  -1   0   7   -0.90    8.00
   1   0   7   -5.40    8.30
  -1   0  -7    1.70    3.90
   1   0   7    3.30    8.50
  -1   0  -7   -2.90    7.40
  -1   0   7   -3.80    6.10
  -2   0  -7  847.82   48.60
   2   0   7  848.92   47.40
  -2   0  -7  846.42   33.30
  -2   0   7  907.91   44.40
   2   0   7  796.32   48.30
  -2   0   7  863.81   46.20
  -2   0   7  877.71   48.40
  -2   0   7  770.62   46.00
  -3   0   7   -3.30    9.10
   3   0   7   -5.20   10.00
  -3   0   7  -10.40    9.30
  -3   0  -7   -2.10    5.70
   3   0   7   20.20   13.70
  -3   0  -7   10.20   10.40
  -3   0   7   14.00   11.70
  -3   0   7   20.40   11.60
   4   0  -7  206.38   30.40
  -4   0  -7  239.38   29.00
  -4   0   7  231.08   28.10
   4   0  -7  191.58   24.10
  -4   0  -7  187.48   19.50
   4   0   7  186.88   27.40
  -4   0   7  258.07   27.30
   4   0   7  213.18   30.50
  -5   0   7    4.10   12.40
  -5   0  -7   18.40   15.50
  -5   0   7    5.50   16.20
   5   0   7    4.30   14.00
   5   0  -7   19.30   17.90
   5   0   7    3.90   19.20
   6   0   7   -1.30   22.10
  -6   0  -7   70.29   26.40
  -6   0   7   21.30   20.70
   6   0  -7   58.69   27.30
   0   1   7  -15.10    6.70
   0   1  -7   -1.50    4.70
   0  -1  -7   -1.40    7.40
   0  -1   7   10.70   10.50
   0   1   7    8.20    9.40
   0  -1   7   -4.00    6.10
   0  -1   7    0.60    9.20
   0  -1  -7   -1.50    3.10
  -1   1   7 1181.58   45.20
   1  -1   7 1145.79   58.99
  -1   1   7 1081.99   56.09
  -1  -1  -7 1202.38   56.19
   1   1  -7 1180.58   46.40
  -1   1   7 1157.98   58.19
   1  -1   7 1124.29   46.40
  -1  -1   7 1233.08   50.09
   1   1   7 1270.87   58.19
   1  -1  -7 1091.69   49.40
  -1   1  -7 1164.78   44.70
  -1  -1   7  983.40   51.89
  -1   1  -7 1149.98   55.49
  -1  -1   7 1266.57   59.09
   1   1   7 1180.08   57.89
  -2  -1  -7  133.19   23.10
  -2   1   7  161.78   19.90
   2  -1   7  183.58   24.50
  -2   1   7  125.09   22.90
  -2   1   7  193.58   24.90
   2  -1   7  180.08   20.90
  -2   1   7  196.48   19.70
   2   1   7  191.98   24.10
  -2  -1   7  172.08   23.20
  -2   1  -7  175.28   16.80
  -2  -1   7  198.58   22.20
  -2   1  -7  195.08   23.50
  -2  -1   7  178.78   21.60
  -2  -1   7  134.69   19.00
   2   1   7  191.38   24.50
  -3   1   7    0.70   10.20
  -3  -1  -7   32.00   14.00
   3  -1   7   28.00   14.10
  -3   1   7   16.70   15.30
   3   1  -7    8.10   10.60
   3  -1   7   30.10   13.20
  -3   1   7   28.60   12.30
   3   1   7   34.70   15.70
  -3   1  -7   -2.90    9.40
  -3  -1   7   39.90   15.00
   3   1   7   31.40   15.20
  -3  -1   7   27.40   14.10
  -3   1  -7    3.70    7.50
   3  -1  -7    4.20    9.60
  -3  -1   7   15.10   11.50
  -4   1   7  316.67   32.60
  -4   1   7  401.36   30.00
   4   1  -7  415.46   37.60
   4  -1   7  448.26   38.30
  -4  -1  -7  367.46   38.40
   4  -1   7  350.16   36.10
  -4   1   7  344.57   41.00
  -4  -1   7  334.47   34.60
  -4   1  -7  407.26   37.20
  -4   1  -7  405.96   29.70
   4  -1  -7  418.06   35.10
   4   1   7  338.97   32.30
  -4  -1   7  334.57   33.40
   4   1   7  323.77   38.00
   5   1  -7   75.99   23.80
  -5  -1  -7   85.99   24.70
   5  -1   7  135.39   29.90
   5  -1   7  123.29   26.50
  -5   1   7  162.98   30.10
   5   1   7  108.19   28.40
  -5   1  -7  129.79   26.90
   5  -1  -7  113.29   29.40
  -5  -1   7  113.59   26.00
   5   1   7  155.38   25.90
  -5  -1   7   75.49   22.60
  -5   1  -7  121.59   21.50
   6   1  -7   11.50   20.40
   6  -1   7   20.30   24.10
  -6   1   7   19.20   19.70
  -6  -1  -7   23.60   21.40
   6  -1   7   56.59   25.60
  -6  -1   7   18.60   20.10
  -6  -1   7    6.70   18.80
   6  -1  -7  -20.60   16.10
   6   1   7   25.70   23.60
  -6   1  -7   24.20   20.10
   0   2  -7   -6.50    5.00
   0  -2   7   -3.60    9.60
   0  -2  -7   -0.80    8.20
   0  -2   7   -2.90    9.50
   0   2   7   -5.70    8.40
   0   2   7    2.20   10.60
   1  -2   7  364.56   33.00
  -1  -2  -7  413.36   32.10
  -1   2   7  440.76   36.50
  -1   2   7  407.36   23.70
  -1   2   7  373.76   34.40
   1   2  -7  390.66   27.30
  -1  -2   7  408.66   33.70
  -1   2  -7  404.96   27.20
   1   2   7  376.46   33.00
   1  -2  -7  382.16   26.50
  -1  -2   7  377.06   22.40
  -1   2  -7  418.56   33.70
   1   2   7  356.76   34.50
  -1  -2   7  349.27   30.50
   2   2  -7  167.18   19.00
   2   2  -7  114.39   16.20
  -2  -2  -7  160.18   26.20
   2  -2   7  145.19   25.10
  -2   2   7  183.98   26.20
   2  -2   7  126.49   16.40
  -2   2   7  149.88   17.50
   2  -2  -7  109.59   15.20
   2   2   7  150.08   26.50
  -2  -2   7  157.08   21.00
   2  -2  -7  136.49   23.30
  -2   2  -7  136.89   20.60
  -2  -2   7  131.79   24.60
   2   2   7  157.88   23.00
  -2   2  -7  152.98   18.90
   3   2  -7   46.60   15.70
  -3   2   7   47.80   14.60
   3  -2   7   57.29   15.60
   3  -2   7   46.50   17.10
  -3  -2  -7   49.30   17.10
  -3   2   7   -2.20   13.40
  -3  -2   7   21.80   14.00
   3  -2  -7   33.70   10.70
   3   2   7   31.60   14.50
  -3  -2   7   28.40   13.30
  -3   2  -7   44.10   13.50
  -3  -2   7   57.99   18.60
   3  -2  -7   66.89   19.00
   3   2   7   74.89   22.60
  -3   2  -7   40.10   15.50
  -4   2   7   81.79   21.20
   4  -2   7   71.99   19.90
  -4  -2  -7   61.29   21.50
   4   2  -7  108.79   21.50
   4  -2   7   73.99   21.30
  -4   2   7  101.79   26.30
   4  -2  -7   78.39   21.40
  -4   2  -7   88.19   21.10
   4   2   7   87.09   27.60
   4   2   7   88.39   19.80
  -4   2  -7   76.49   16.90
  -4  -2   7  102.39   24.70
  -4  -2   7   70.09   21.90
   5   2  -7  274.37   34.30
  -5   2   7  319.87   44.80
  -5  -2  -7  231.88   39.90
  -5   2   7  298.67   36.50
   5  -2   7  321.37   37.10
   5  -2   7  225.58   33.10
  -5  -2   7  298.07   38.80
  -5  -2   7  288.87   37.00
   5  -2  -7  307.37   34.90
  -5   2  -7  310.27   34.60
  -5   2  -7  279.67   29.90
   5   2   7  285.27   41.90
   6  -2   7   22.30   21.80
  -6   2   7   13.60   20.40
   6   2  -7   29.50   19.10
  -6  -2  -7   10.00   19.70
   6  -2   7   10.90   17.30
  -6   2  -7   15.00   18.20
  -6  -2   7  -13.30   18.00
  -6  -2   7    2.70   20.20
   6  -2  -7    8.20   21.40
   6   2   7  -18.70   21.10
  -6   2  -7    7.20   15.00
   0  -3   7   -0.30   11.30
   0   3   7   16.90   12.60
   0  -3  -7    7.40    9.70
   0  -3   7   13.10   10.80
   0   3  -7    2.30    7.20
   0   3   7  -10.10    9.90
  -1   3   7   55.89   11.60
   1  -3   7   42.30   16.20
  -1  -3  -7   49.60   16.50
   1   3  -7   18.60   10.10
  -1   3   7   66.19   20.50
   1  -3   7   23.40   13.90
  -1  -3   7   33.10   14.60
  -1  -3   7   38.70   15.90
   1  -3  -7   16.50   12.30
   1   3   7   17.70   12.90
   1  -3  -7   38.20   11.50
  -1   3  -7   30.90   11.50
   1   3   7   41.20   17.60
   2   3  -7  569.24   31.30
   2  -3   7  538.85   44.90
  -2   3   7  652.83   35.90
   2   3  -7  591.44   38.50
  -2   3   7  561.54   46.90
  -2  -3  -7  634.14   45.70
  -2   3  -7  647.14   40.00
  -2  -3   7  614.24   40.00
   2  -3  -7  586.74   31.60
   2  -3  -7  596.94   44.90
   2   3   7  571.04   47.30
   2   3   7  695.83   44.20
  -2   3  -7  663.23   42.50
  -2  -3   7  590.44   44.40
  -3   3   7   18.50   12.90
   3   3  -7   26.70   13.50
  -3   3   7    1.60   15.60
   3   3  -7   49.30   14.10
  -3  -3  -7    4.00   13.00
   3  -3   7   21.80   15.90
  -3   3  -7   14.80   12.30
   3   3   7   29.00   15.70
   3  -3  -7   -4.40   12.70
   3   3   7   34.20   17.90
  -3   3  -7   15.50   11.50
  -3  -3   7   30.50   17.00
  -3  -3   7   16.80   13.00
   4  -3   7  802.42   56.59
  -4   3   7  846.82   52.29
  -4  -3  -7  842.12   61.39
  -4   3   7  875.31   65.69
   4   3  -7  831.12   50.59
  -4  -3   7  877.71   61.29
  -4  -3   7  838.62   57.79
   4   3   7  803.62   64.49
  -4   3  -7  927.91   54.99
   4   3   7  813.12   50.09
   4  -3  -7  913.21   59.59
  -4   3  -7  817.22   50.39
   5  -3   7   18.90   18.00
   5   3  -7   16.00   18.10
  -5  -3  -7   57.49   25.00
  -5   3   7    8.90   14.30
  -5   3   7   13.20   20.80
   5  -3  -7   10.80   15.90
  -5   3  -7   57.19   20.20
  -5  -3   7   -7.50   16.90
   5   3   7   13.60   23.20
  -5   3  -7   18.40   14.80
  -5  -3   7    4.60   18.10
   6   3  -7   10.60   21.20
  -6   3   7   20.70   23.40
   6  -3   7   25.90   19.90
  -6  -3  -7   42.90   27.10
   6  -3  -7   -2.00   20.10
  -6  -3   7   46.50   24.40
   6   3   7  -32.90   23.10
  -6  -3   7    3.80   19.10
  -6   3  -7   22.30   17.20
   0  -4  -7  -27.30    7.30
   0   4   7    3.20   12.90
   0  -4   7   -3.30   10.90
   0   4  -7    4.20    9.20
   0  -4  -7   -1.00   11.00
   0  -4   7    1.90   10.40
  -1  -4  -7  364.16   34.90
  -1   4   7  331.17   38.70
  -1  -4  -7  420.86   34.90
   1  -4   7  303.57   33.40
   1  -4   7  330.87   36.60
   1   4  -7  319.17   29.90
  -1   4   7  328.47   23.80
   1  -4  -7  334.47   27.20
   1   4   7  269.67   36.00
  -1  -4   7  336.97   35.20
  -1  -4   7  390.76   34.10
  -1   4  -7  310.77   29.90
   1  -4  -7  391.46   38.20
  -2   4   7  212.58   24.20
  -2   4   7  193.68   36.00
  -2  -4  -7  232.18   31.50
   2   4  -7  224.28   26.40
   2  -4   7  263.77   34.40
  -2  -4   7  214.18   35.70
   2   4   7  239.38   30.30
  -2   4  -7  199.28   26.10
   2   4   7  169.78   33.30
  -2  -4   7  233.18   27.40
  -2   4  -7  254.97   28.90
   2  -4  -7  158.88   30.70
   3  -4   7    4.20   14.60
  -3  -4  -7    8.90   16.70
  -3   4   7   11.60   16.90
  -3   4   7   -9.00   11.50
   3   4  -7    0.80   10.80
  -3   4  -7   18.00   13.60
  -3   4  -7   -1.50   10.60
   3   4   7   15.70   19.70
  -3  -4   7   -3.00   13.00
   3   4   7   11.60   14.20
   3  -4  -7   31.80   18.30
   4   4  -7   30.40   16.40
  -4   4   7   26.00   16.00
  -4  -4  -7   28.30   20.50
   4  -4   7   49.99   22.90
  -4   4   7   25.70   19.90
  -4  -4   7    9.40   19.60
  -4   4  -7   40.80   18.30
  -4   4  -7   15.40   13.90
   4   4   7   -9.00   19.50
   4  -4  -7   16.20   16.40
  -5  -4  -7  109.39   32.80
   5  -4   7  153.48   33.40
  -5   4   7  111.19   33.20
   5   4  -7  164.18   29.70
  -5   4   7  120.09   27.50
  -5  -4   7  153.18   36.50
  -5   4  -7   75.29   22.40
   5  -4  -7  148.09   33.30
   5   4   7   35.50   32.80
  -6   4   7   17.20   22.60
   6  -4   7   18.20   21.20
  -6   4   7   47.70   25.50
  -6  -4  -7   14.40   29.80
   6  -4  -7    7.90   20.10
  -6  -4   7    8.50   19.20
  -6  -4   7  -11.70   23.20
   6   4   7   19.40   33.60
  -6   4  -7   22.00   18.70
   0  -5  -7   17.60   14.20
   0  -5   7  -18.80   10.70
   0   5  -7    4.70   10.40
   0  -5  -7   -2.70   15.70
   0  -5   7   -9.90   14.20
   0   5   7   -4.00   14.10
  -1   5   7  514.75   50.59
   1  -5   7  628.04   47.20
  -1  -5  -7  650.63   49.10
   1  -5   7  577.14   48.50
   1   5  -7  616.44   44.80
  -1  -5  -7  658.33   45.80
  -1  -5   7  555.74   48.10
  -1   5  -7  457.75   40.60
   1   5   7  553.44   52.09
   1  -5  -7  560.94   49.50
  -1  -5   7  716.23   47.60
  -2   5   7   56.99   23.60
   2  -5   7   65.79   21.50
  -2  -5  -7   81.29   22.60
   2   5  -7  105.59   23.10
   2  -5   7  128.09   25.80
  -2  -5  -7  126.59   26.00
  -2   5   7  114.89   20.30
  -2   5  -7   98.39   22.70
  -2  -5   7  116.99   28.40
  -2  -5   7  134.99   24.80
   2   5   7  144.79   32.70
   2  -5  -7  120.49   28.30
  -3   5   7    1.80   15.10
  -3  -5  -7   21.00   17.60
  -3   5   7  -11.70   12.40
   3   5  -7  -12.40   10.10
  -3  -5  -7    9.10   16.20
   3  -5   7  -10.70   13.40
   3  -5  -7   11.60   18.20
  -3   5  -7   -9.00   11.60
   3   5   7  -11.50   14.70
  -3  -5   7  -17.00   15.40
  -3   5  -7    7.90   13.80
   4  -5   7   47.50   24.10
  -4   5   7   37.20   18.10
  -4   5   7   11.90   21.60
   4   5  -7   32.60   18.30
  -4  -5  -7    5.00   19.70
  -4   5  -7    9.40   17.00
  -4  -5   7   51.59   25.80
   4  -5  -7   26.90   20.70
   4   5   7   78.59   27.90
   5   5  -7   52.89   23.60
  -5   5   7   82.19   26.30
  -5   5   7   79.29   28.20
   5  -5   7   74.59   27.00
  -5  -5  -7   51.39   26.60
  -5   5  -7   59.29   23.20
  -5  -5   7   87.29   33.50
   5  -5  -7   82.39   29.10
   5   5   7   26.40   25.30
   0  -6   7    4.00   16.60
   0  -6   7   11.40   15.10
   0  -6  -7    1.10   18.90
   0  -6  -7   -0.50   15.30
   0   6   7  -18.40   17.10
   0   6  -7  -12.70   10.90
  -1  -6  -7   78.69   24.00
   1  -6   7   41.10   19.40
   1  -6   7   25.90   21.60
   1   6  -7   68.19   20.60
  -1  -6  -7   70.59   22.30
  -1   6   7   53.79   27.30
  -1  -6   7   72.29   24.80
   1  -6  -7   33.30   21.90
  -1  -6   7  115.49   30.00
   1   6   7   41.50   24.30
  -1   6  -7   58.09   19.00
   2  -6   7  292.37   35.20
  -2  -6  -7  188.68   34.10
   2   6  -7  188.88   33.90
  -2  -6  -7  170.78   33.60
   2  -6   7  230.88   39.80
  -2   6   7  189.78   38.80
   2  -6  -7  159.48   35.80
   2   6   7  163.28   36.80
  -2   6  -7  243.28   33.80
  -2  -6   7  298.97   33.70
  -2  -6   7  207.48   36.80
  -3  -6  -7   28.20   18.80
   3   6  -7  -17.00   11.90
  -3  -6  -7    0.40   17.70
   3  -6   7   14.90   22.90
  -3   6   7   12.00   15.70
  -3   6   7   -8.80   17.50
   3   6   7   -0.20   21.30
   3  -6  -7   13.40   19.90
  -3   6  -7  -11.20   13.80
  -3  -6   7   -4.70   17.60
  -3   6  -7    7.60   15.70
   4  -6   7  127.39   33.90
  -4   6   7  153.58   30.10
  -4   6   7  154.78   40.30
   4   6  -7   77.59   27.50
  -4  -6  -7  126.69   34.40
  -4  -6   7   98.29   35.00
   4  -6  -7   89.19   32.00
   4   6   7   82.69   32.70
  -4   6  -7  144.79   32.50
   0  -7   7    1.30   16.50
   0  -7   7   -1.40   18.10
   0   7   7   -6.20   19.40
   0  -7  -7  -13.50   16.90
   0   7  -7    6.30   15.60
   1  -7   7  150.68   33.50
  -1  -7  -7   80.09   27.70
  -1   7   7   99.99   31.80
   1   7  -7  118.69   28.00
   1  -7   7  158.88   31.60
  -1  -7  -7  205.38   34.80
   1  -7  -7  111.29   33.10
  -1  -7   7  187.68   35.10
   1   7   7  131.79   34.70
  -1   7  -7   86.89   25.70
  -1  -7   7  126.29   31.50
  -2  -7  -7   80.39   26.10
   2  -7   7   75.69   26.40
  -2   7   7   82.69   31.10
  -2  -7  -7  141.69   31.70
   2  -7   7   42.20   26.90
   2   7  -7   68.69   26.60
  -2   7  -7   62.89   25.30
   2   7   7   70.59   31.80
   2  -7  -7   72.59   31.20
  -2  -7   7   84.99   30.80
   3  -7   7    7.60   27.30
   3   7  -7   31.00   24.30
  -3   7   7   48.60   28.50
  -3  -7  -7   31.00   22.20
   3  -7  -7   12.70   21.60
  -3   7  -7    4.40   17.70
  -3  -7   7   20.20   22.30
   3   7   7  -14.80   21.20
   0   8   7   -7.60   23.00
   0   8  -7  -10.60   16.70
   0  -8   7   -1.80   18.90
   0  -8  -7   34.50   27.50
   0  -8   7   -7.50   21.50
   1  -8   7   92.09   29.50
   1  -8   7   93.49   33.00
  -1   8   7  105.79   40.40
  -1  -8  -7   76.09   27.70
   1   8  -7  106.69   34.20
  -1  -8   7   32.70   24.20
   1  -8  -7   47.70   32.30
   1   8   7   33.90   28.20
  -1  -8   7   65.79   29.20
  -1   8  -7   65.19   27.10
   0   0   8 6680.53  189.38
   0   0  -8 6500.85  173.58
   0   0   8 6413.06  199.58
   0   0  -8 6784.72  196.18
  -1   0   8   -3.40    9.10
  -1   0  -8    1.80    4.80
   1   0   8  -11.20    7.10
   1   0  -8   -0.90    5.10
   1   0   8   -0.60    9.80
  -1   0   8    2.90    9.90
  -1   0   8   18.60   11.20
  -1   0  -8    2.30    8.00
   2   0   8  102.19   20.90
  -2   0   8  114.09   20.10
  -2   0   8  118.99   22.40
  -2   0   8  108.99   21.60
  -2   0   8   96.29   21.60
  -2   0  -8   78.49   11.00
   2   0   8   95.89   20.70
  -2   0  -8   83.39   19.40
   3   0   8    9.50   13.50
  -3   0   8  -18.60    8.20
  -3   0  -8   -6.60   10.70
  -3   0   8   -3.50   11.20
  -3   0   8   -8.20    8.90
  -3   0   8   20.40   13.10
   3   0   8   -3.60   11.50
  -4   0   8   25.60   18.30
   4   0   8   63.99   22.90
   4   0   8   82.99   22.10
  -4   0   8   95.89   21.10
   4   0  -8   64.09   18.20
  -4   0  -8   69.79   22.10
  -4   0   8   56.19   19.00
  -5   0  -8   -8.20   16.10
   5   0   8    9.90   18.80
  -5   0   8  -12.90   17.30
   5   0  -8  -23.70   11.90
   5   0   8    9.00   14.80
  -5   0   8   -0.70   15.00
  -6   0   8  918.61   68.29
  -6   0  -8  991.50   70.59
   6   0  -8 1182.88   79.19
   6   0   8  993.60   74.09
   0  -1   8  334.77   31.50
   0   1   8  289.27   28.20
   0  -1  -8  348.07   28.50
   0  -1  -8  299.17   15.80
   0  -1   8  399.76   34.30
   0   1  -8  354.66   22.80
   0   1   8  392.16   34.50
   0  -1   8  357.96   25.30
   1  -1   8  236.78   21.20
  -1   1   8  246.78   20.00
  -1   1   8  243.18   27.90
   1  -1   8  260.57   29.40
   1   1  -8  212.88   18.70
  -1  -1  -8  229.78   26.10
  -1   1   8  268.17   29.90
   1   1   8  266.37   28.30
  -1   1  -8  232.08   18.70
  -1  -1   8  263.27   28.20
  -1  -1   8  227.18   27.60
   1   1   8  237.98   27.00
  -1  -1   8  260.77   23.90
   1  -1  -8  255.77   24.10
  -1   1  -8  262.07   27.60
  -2   1   8  124.49   23.60
  -2  -1  -8   73.29   18.30
   2  -1   8   71.19   19.60
  -2   1   8   91.49   17.10
   2  -1   8  106.99   18.50
  -2   1   8   80.59   20.10
   2   1   8   73.19   20.10
  -2  -1   8   59.39   15.60
   2   1   8   85.69   20.50
  -2   1  -8   68.79   17.70
  -2  -1   8  114.39   22.70
  -2  -1   8   71.09   17.10
  -2   1  -8   54.69   12.10
  -2  -1   8   86.09   19.10
   3  -1   8  523.85   42.90
  -3  -1  -8  436.36   40.70
  -3   1   8  538.75   37.30
  -3   1   8  438.56   39.40
  -3   1   8  476.35   35.30
   3  -1   8  506.15   37.90
  -3   1   8  401.46   41.00
  -3   1  -8  452.05   39.10
  -3  -1   8  555.34   40.80
   3   1   8  485.95   39.80
   3   1   8  526.45   44.60
  -3  -1   8  504.75   37.40
  -3  -1   8  535.95   40.40
  -3  -1   8  571.64   41.00
  -3   1  -8  504.95   31.40
  -4  -1  -8   45.70   22.90
  -4   1   8   79.29   25.40
  -4   1   8   78.89   20.70
   4  -1   8   86.69   22.10
   4   1  -8   39.10   16.70
   4  -1   8   73.69   22.90
  -4   1   8   45.80   16.40
   4   1   8   27.70   20.40
  -4   1  -8   68.09   15.10
   4  -1  -8   51.29   17.50
  -4   1  -8   61.49   19.90
  -4  -1   8   44.90   17.20
  -4  -1   8   43.10   18.80
   4   1   8   39.10   17.80
  -4  -1   8   50.49   19.30
  -5   1   8   76.29   24.70
  -5  -1  -8   56.89   24.00
   5   1  -8   45.00   21.00
   5  -1   8   55.09   23.50
   5  -1   8   64.19   22.50
   5   1   8   40.50   18.70
   5  -1  -8   47.20   22.80
  -5  -1   8   66.79   22.40
  -5   1  -8   72.09   23.60
   5   1   8   26.00   22.30
  -5  -1   8   81.39   24.20
  -6   1   8  152.98   33.70
   6  -1   8  120.19   33.90
   6   1  -8  111.49   29.90
   6  -1   8  226.18   37.10
  -6  -1  -8  165.38   37.10
   6   1   8   87.49   31.00
   6  -1  -8   70.79   29.00
  -6  -1   8   97.49   29.40
  -6   1  -8  238.38   39.70
   0  -2   8  140.49   25.60
   0  -2   8  198.58   26.10
   0   2   8  171.58   25.40
   0   2  -8  172.68   18.60
   0   2   8  140.29   25.10
   0  -2  -8  185.98   22.20
   0  -2   8  183.78   15.60
   1  -2   8   78.89   11.70
   1  -2   8   80.59   20.90
  -1  -2  -8   40.40   14.20
   1   2  -8   54.29   13.30
  -1   2   8   74.49   19.50
  -1   2   8   39.70   16.80
  -1   2   8   88.89   12.70
  -1   2  -8   67.89   13.60
   1   2   8   69.89   18.50
  -1  -2   8   70.29   18.20
  -1  -2   8   71.39   12.50
   1  -2  -8   38.30   12.50
  -1  -2   8   42.40   17.40
  -1   2  -8   82.39   19.70
   1   2   8   89.19   21.40
   2  -2   8   84.89   15.50
  -2   2   8   48.30   20.40
  -2  -2  -8  115.79   22.90
   2   2  -8   64.29   15.10
   2  -2   8   78.69   20.80
  -2   2   8  152.58   29.10
  -2   2   8   72.89   15.70
   2   2  -8   49.30   13.60
  -2  -2   8   98.09   22.10
  -2  -2   8   74.69   18.90
   2   2   8   94.89   24.40
  -2   2  -8   86.49   19.70
  -2   2  -8   83.29   16.10
   2  -2  -8   82.69   15.30
   2   2   8   55.49   19.00
   3  -2   8 3205.08  122.49
  -3   2   8 3117.19  107.19
   3   2  -8 3255.17  108.19
  -3  -2  -8 2896.01  119.39
  -3   2   8 2992.20  123.79
   3  -2   8 2889.31  102.69
   3  -2  -8 3065.79   97.99
  -3  -2   8 3125.89  116.99
  -3   2  -8 2894.31  114.59
   3   2   8 2731.13  120.99
   3   2   8 3025.30  113.99
  -3  -2   8 3045.90  106.29
  -3  -2   8 2928.91  116.99
  -3   2  -8 3071.09  104.79
   3  -2  -8 2959.80  115.79
   4   2  -8   36.40   16.10
   4  -2   8   16.80   17.10
  -4  -2  -8   -3.80   14.70
  -4   2   8    3.10   14.10
  -4   2   8    0.50   15.70
   4  -2   8   25.70   15.10
  -4   2  -8   14.60   14.20
  -4  -2   8    8.10   15.50
  -4  -2   8    5.30   13.80
  -4   2  -8   11.20   12.70
   4   2   8    4.70   17.70
   4  -2  -8   -2.20   12.90
   4   2   8    5.00   13.80
   5  -2   8   75.39   24.20
   5   2  -8   65.39   23.10
  -5  -2  -8   32.00   22.60
  -5   2   8   26.90   19.70
  -5   2   8   45.10   26.00
   5  -2   8   44.50   21.10
  -5  -2   8   92.89   26.90
  -5   2  -8   46.40   16.90
  -5   2  -8   96.69   25.10
   5   2   8   26.40   22.60
   5  -2  -8   26.20   16.60
  -5  -2   8   71.79   25.50
   6  -2   8   50.49   24.10
  -6   2   8   53.29   27.30
   6   2  -8   25.10   20.30
  -6  -2  -8   26.30   25.00
  -6   2  -8   25.60   20.40
  -6  -2   8   13.30   21.70
  -6  -2   8   76.29   29.90
   6   2   8   25.40   28.30
   6  -2  -8   32.20   25.50
   0  -3  -8  384.16   31.70
   0   3  -8  395.16   30.80
   0  -3   8  393.96   38.10
   0   3   8  347.57   35.50
   0   3   8  421.36   39.70
   0  -3   8  424.56   37.00
  -1  -3  -8   49.10   16.50
  -1   3   8   62.49   13.00
  -1   3   8   64.49   22.40
   1   3  -8   33.20   12.30
   1  -3   8   38.40   17.60
   1  -3   8   67.29   19.50
  -1   3   8   14.80   14.90
   1  -3  -8   54.59   14.40
  -1   3  -8   57.39   16.60
  -1  -3   8   67.89   18.20
   1   3   8   21.60   16.00
   1  -3  -8   39.30   18.30
   1   3   8   34.20   14.80
  -1  -3   8   46.70   17.10
   2   3  -8  254.17   26.80
   2  -3   8  257.67   32.50
  -2  -3  -8  240.18   31.40
  -2   3   8  263.77   34.90
  -2   3   8  277.27   24.80
  -2   3  -8  285.17   27.00
  -2  -3   8  250.97   27.70
   2   3   8  301.37   37.50
   2  -3  -8  180.98   30.30
  -2   3  -8  208.08   28.00
   2  -3  -8  249.38   22.70
  -2  -3   8  278.87   34.40
   2   3   8  224.78   28.70
  -3   3   8   42.50   16.20
  -3  -3  -8   39.90   17.50
  -3   3   8   88.39   26.80
   3   3  -8   28.70   13.80
   3  -3   8   38.80   17.30
  -3   3  -8   46.90   15.50
  -3  -3   8   35.60   17.00
   3  -3  -8   42.40   18.40
   3   3   8   66.09   20.20
   3   3   8   40.20   21.40
  -3   3  -8   44.70   17.30
  -3  -3   8   94.49   25.30
  -4   3   8   61.19   21.00
   4   3  -8  108.29   22.50
  -4  -3  -8   31.50   21.20
   4  -3   8   71.59   21.80
  -4   3   8   54.79   22.10
   4   3   8   61.79   21.40
  -4  -3   8   80.49   25.90
   4  -3  -8   72.59   22.20
  -4   3  -8   70.39   22.40
  -4  -3   8   75.59   25.50
   4   3   8   65.49   27.90
  -4   3  -8   64.89   19.70
  -5   3   8   22.40   24.10
  -5   3   8   26.50   19.40
   5   3  -8   31.30   18.60
  -5  -3  -8   55.69   27.90
   5  -3   8   40.70   22.20
   5   3   8  -11.60   22.50
  -5  -3   8   12.80   19.40
  -5  -3   8   25.30   21.20
  -5   3  -8   61.99   20.60
   5  -3  -8   23.10   20.30
  -5   3  -8   27.50   19.10
   6   3  -8  150.68   34.70
   6  -3   8  109.39   31.30
  -6  -3  -8  152.48   40.60
  -6   3   8  168.78   37.60
  -6   3  -8  125.89   27.50
   6  -3  -8  109.39   35.20
  -6  -3   8  141.59   36.10
  -6  -3   8  111.19   31.30
   6   3   8  159.58   43.80
   0   4  -8 1925.91   84.29
   0  -4  -8 2105.19   84.79
   0   4   8 2012.10   99.29
   0  -4  -8 2106.29   95.49
   0  -4   8 2129.29   92.59
   0  -4   8 2036.70   92.49
  -1  -4  -8  130.69   25.70
   1  -4   8  145.99   28.90
   1  -4   8  110.09   25.70
  -1   4   8   97.19   26.60
   1   4  -8  101.29   21.70
   1   4   8  126.09   27.90
   1  -4  -8  137.09   22.40
   1  -4  -8  122.59   27.60
  -1   4  -8  133.79   23.50
  -1  -4   8  145.49   28.50
   1   4   8  125.39   28.00
  -1  -4   8  169.08   29.20
  -2   4   8   43.40   22.10
  -2   4   8   31.60   13.60
   2  -4   8   28.70   18.00
   2   4  -8   21.30   13.80
  -2  -4  -8   57.09   21.40
  -2   4  -8   23.10   13.90
  -2   4  -8   51.39   18.80
  -2  -4   8   -5.30   13.00
  -2  -4   8   19.30   16.50
   2   4   8   12.20   14.20
   2  -4  -8   15.20   15.00
   2   4   8   43.00   20.70
  -3  -4  -8  193.08   34.10
   3  -4   8  151.58   30.70
  -3   4   8  272.77   29.70
   3   4  -8  204.78   31.90
  -3   4   8  236.88   39.40
   3  -4  -8  177.98   33.60
  -3   4  -8  219.48   28.70
  -3   4  -8  162.38   28.10
  -3  -4   8  257.27   36.80
   3   4   8  216.78   30.10
   3   4   8  180.28   39.20
  -4  -4  -8   35.20   22.80
   4  -4   8   20.20   19.00
  -4   4   8    4.90   15.60
   4   4  -8   73.49   21.80
  -4   4   8   32.10   25.10
  -4  -4   8   68.49   26.80
   4   4   8   51.79   25.00
   4   4   8   30.30   19.00
  -4   4  -8   54.09   20.00
   4  -4  -8    4.90   16.80
  -4   4  -8   16.10   16.40
  -5   4   8   78.49   32.00
  -5  -4  -8  160.88   36.50
   5  -4   8   53.79   22.60
  -5   4   8   78.29   25.20
   5   4  -8   81.49   23.10
   5  -4  -8   89.29   26.80
  -5   4  -8   82.39   23.40
   5   4   8   43.50   33.70
  -5  -4   8   93.79   29.90
   0   5   8   -8.20   14.70
   0  -5   8   11.40   17.40
   0  -5  -8   14.10   15.20
   0  -5   8    3.70   14.70
   0  -5  -8  -29.70   13.90
   0   5  -8   17.20   14.40
  -1   5   8  108.99   29.20
  -1  -5  -8   90.19   25.30
   1  -5   8  159.48   30.60
  -1  -5  -8  136.89   27.60
   1  -5   8  125.19   29.50
   1   5  -8  130.19   25.80
   1   5   8  102.29   29.00
  -1  -5   8  113.69   28.00
   1  -5  -8   51.19   23.90
  -1  -5   8  167.18   30.00
  -1   5  -8   84.09   22.30
  -2  -5  -8   56.59   24.20
   2   5  -8   80.39   22.30
  -2   5   8   41.60   21.90
  -2  -5  -8   64.29   23.60
   2  -5   8  120.79   30.30
  -2   5  -8   80.19   22.40
  -2   5  -8   57.19   21.00
   2  -5  -8   28.00   18.90
  -2  -5   8   92.59   24.70
   2   5   8   88.59   27.80
  -2  -5   8   67.79   24.90
  -3  -5  -8   82.89   26.40
   3   5  -8   65.49   19.60
  -3  -5  -8   51.99   22.20
   3  -5   8   61.09   23.90
  -3   5   8   79.39   26.90
  -3   5   8   71.79   20.90
  -3  -5   8   77.79   28.40
  -3   5  -8   80.39   24.10
   3  -5  -8   62.79   25.10
  -3   5  -8   58.69   22.40
   3   5   8   67.59   29.40
   4  -5   8   -1.10   18.10
   4   5  -8   40.20   19.20
  -4   5   8  -19.90   16.50
  -4  -5  -8   40.50   23.30
  -4   5   8   33.80   19.70
  -4  -5   8   23.90   23.30
   4   5   8   28.50   26.40
  -4   5  -8    5.50   16.00
  -4   5  -8    3.70   17.40
   4  -5  -8   51.69   24.50
  -5   5   8   42.40   23.50
  -5   5   8   28.40   24.30
   5  -5   8   54.19   26.50
  -5  -5  -8   35.40   26.60
   5   5  -8   42.50   21.60
   5  -5  -8   55.99   27.90
  -5  -5   8   34.00   28.10
   5   5   8  120.49   40.00
  -5   5  -8   22.20   19.40
   0   6   8  221.98   41.80
   0   6  -8  172.88   32.20
   0  -6   8  240.28   35.40
   0  -6  -8  253.57   42.80
   0  -6   8  198.88   35.70
  -1   6   8   40.50   25.90
  -1  -6  -8    3.10   18.50
   1  -6   8    7.60   15.50
   1  -6   8   29.50   21.50
   1   6  -8   38.70   18.30
  -1  -6  -8   40.90   19.40
   1  -6  -8   52.99   26.80
   1   6   8   26.80   22.00
  -1  -6   8   30.40   19.70
  -1  -6   8   59.99   24.40
  -1   6  -8   27.30   18.20
   2  -6   8  111.89   27.10
  -2   6   8   87.69   31.30
   2   6  -8  163.88   34.40
  -2  -6  -8  143.99   32.00
   2  -6   8  126.79   32.70
  -2  -6  -8  113.19   30.80
  -2   6  -8  144.09   31.30
  -2  -6   8  131.39   49.10
  -2  -6   8  141.49   32.80
   2   6   8  143.09   35.10
   2  -6  -8   99.79   29.80
  -3  -6  -8  255.57   36.90
   3  -6   8  191.68   40.90
  -3   6   8  188.88   42.00
   3   6  -8  274.97   38.20
  -3  -6  -8  254.67   37.90
   3   6   8  114.09   35.00
   3  -6  -8  313.67   50.99
  -3   6  -8  239.18   33.90
  -3  -6   8  210.68   40.60
  -3   6  -8  197.48   37.10
  -4  -6  -8   56.79   27.90
   4   6  -8   60.09   26.20
   4  -6   8    6.20   20.30
  -4   6   8   15.50   25.70
  -4  -6   8   15.60   24.90
   4  -6  -8   25.60   26.90
   4   6   8   20.20   25.70
  -4   6  -8   20.20   18.90
   0   7  -8   22.20   19.40
   0  -7  -8    7.00   24.20
   0  -7   8   -5.60   15.00
   0   7   8   21.20   24.10
   0  -7   8    3.90   21.00
   1   7  -8   35.10   20.50
   1  -7   8    8.40   20.80
   1  -7   8   53.79   28.50
  -1  -7  -8   12.90   22.80
  -1   7   8   16.80   25.80
   1   7   8   70.99   32.10
  -1   7  -8   52.89   23.50
   1  -7  -8    3.20   24.60
  -1  -7   8   72.59   27.90
  -1  -7   8   26.90   23.30
   2   7  -8   39.80   22.50
   2  -7   8    4.20   24.10
   2  -7   8   19.70   20.40
  -2   7   8   31.70   27.30
  -2  -7  -8   39.10   21.90
  -2  -7  -8    3.60   19.90
   2  -7  -8   51.69   30.30
  -2   7  -8   22.10   21.60
   2   7   8    1.80   23.60
  -2  -7   8   54.49   28.40
  -3  -7  -8    8.50   20.10
   3   7  -8   32.10   21.40
  -3   7  -8   -0.40   19.90
   0   0   9   -2.40    8.60
   0   0   9  -11.70    9.70
   0   0  -9    6.00   10.70
   0   0  -9   -0.20    5.00
  -1   0   9    3.40   11.70
   1   0   9   -4.20    9.80
  -1   0  -9   -1.00    5.40
  -1   0  -9   -1.70    9.40
   1   0  -9   -1.50    5.50
  -1   0   9    1.70    9.70
   1   0  -9   -5.60    8.90
   1   0   9    1.50    9.20
  -2   0   9  156.48   27.80
  -2   0   9  192.08   27.10
  -2   0   9  186.68   22.70
   2   0   9  208.78   27.10
  -2   0   9  234.68   29.00
   2   0   9  162.08   27.50
  -2   0  -9  203.88   27.00
  -3   0   9    0.30   13.00
  -3   0   9   -3.00   12.10
   3   0   9    4.80   14.20
   3   0   9   -2.10   11.10
  -3   0   9   14.90   13.00
  -3   0  -9   12.70   14.30
  -3   0   9  -15.50   11.50
   4   0   9   44.10   19.80
  -4   0   9   62.09   22.90
   4   0   9   61.99   22.80
  -4   0   9   84.79   21.90
  -4   0  -9   64.49   22.30
  -4   0   9   85.19   23.90
   4   0  -9   47.00   17.80
   5   0  -9    3.00   17.70
  -5   0   9   -0.50   14.90
   5   0   9   -2.00   16.30
  -5   0  -9    8.40   19.90
   5   0   9    3.00   18.60
   6   0   9   28.40   25.30
   6   0  -9   48.90   28.50
  -6   0  -9   44.60   25.30
  -6   0   9   49.50   25.80
   0   1  -9   -2.20    8.70
   0   1   9    2.80   11.70
   0  -1   9  -15.30   10.30
   0   1  -9   -5.10    6.00
   0  -1  -9   -6.00    8.90
   0   1   9   12.00   11.20
   0  -1   9   -4.20    8.90
  -1   1   9  362.06   25.60
   1  -1   9  364.96   36.80
  -1   1   9  386.86   37.40
  -1   1   9  402.96   35.70
   1  -1   9  412.76   28.40
   1   1  -9  394.36   26.70
  -1  -1  -9  358.76   33.20
   1  -1  -9  403.66   32.00
  -1   1  -9  419.26   25.80
  -1   1  -9  407.96   35.90
  -1  -1   9  358.86   29.60
  -1  -1   9  352.96   34.70
  -1  -1   9  412.26   36.30
   1   1   9  388.96   36.10
   1   1   9  378.36   34.70
   2   1  -9   36.70   11.50
   2  -1   9   42.20   14.80
  -2   1   9   48.50   16.70
   2  -1   9   45.80   18.80
  -2  -1  -9   74.19   19.60
  -2   1   9   38.30   16.10
  -2   1   9   30.90   13.10
  -2  -1   9   18.90   12.50
   2   1   9   42.70   18.10
   2   1   9   59.19   19.90
   2  -1  -9   44.00   15.40
  -2  -1   9   63.19   18.10
  -2   1  -9   54.09   12.40
  -2  -1   9   71.19   19.10
  -2   1  -9   44.90   16.10
  -3  -1  -9   25.30   17.30
  -3   1   9   11.30   14.00
  -3   1   9   28.30   15.00
  -3   1   9   18.30   17.80
   3  -1   9   31.60   19.50
   3  -1   9   26.40   15.00
  -3   1   9   15.80   14.30
  -3  -1   9    5.00   13.00
   3   1   9   50.09   21.00
  -3  -1   9   33.40   15.70
  -3   1  -9   28.80   17.00
  -3  -1   9   27.50   14.70
  -3  -1   9   26.90   15.00
   3   1   9   26.20   16.80
   4   1  -9   71.99   23.40
  -4  -1  -9  141.19   32.10
  -4   1   9  127.49   26.40
   4  -1   9  129.49   25.90
   4  -1   9   68.49   23.70
  -4   1   9   81.79   24.90
   4  -1  -9   87.59   22.40
  -4  -1   9   94.29   23.40
   4   1   9  167.08   34.30
  -4   1  -9   98.49   27.60
  -4  -1   9   88.89   22.80
   4   1   9   27.50   18.40
  -5  -1  -9  111.09   30.70
   5  -1   9   49.60   21.90
  -5   1   9   89.09   26.20
  -5   1   9   91.69   30.40
   5  -1   9   78.79   26.00
   5   1  -9   49.00   22.20
  -5  -1   9   39.00   22.80
   5   1   9   29.50   19.60
   5   1   9   91.09   31.20
  -5  -1   9   70.49   23.70
  -5   1  -9   84.19   26.70
   6  -1   9  -15.80   22.00
   6  -1   9   31.50   24.70
  -6  -1  -9   37.90   27.80
   6   1  -9   54.59   26.30
  -6   1   9   14.70   21.30
  -6   1  -9   -3.50   20.10
   6  -1  -9   16.00   23.50
   6   1   9   37.40   30.10
  -6  -1   9   29.90   23.90
   0   2  -9   -1.80    6.40
   0  -2   9   15.00   15.00
   0   2   9  -18.40    9.20
   0   2   9    8.10   13.30
   0  -2   9   -0.70   11.60
   0  -2  -9    4.30   10.30
  -1  -2  -9   92.69   20.60
   1   2  -9   89.99   16.30
   1  -2   9   77.39   23.70
  -1   2   9   82.89   22.30
  -1   2   9   85.29   24.10
  -1   2  -9   83.99   21.10
   1  -2  -9   89.39   18.10
  -1  -2   9   83.19   22.80
  -1   2  -9   93.29   16.60
   1   2   9   75.49   20.20
   1   2   9   81.69   22.20
  -1  -2   9   84.69   21.20
  -2   2   9   84.79   22.40
   2  -2   9  111.39   26.90
  -2  -2  -9  119.19   25.60
  -2   2   9  136.09   28.90
   2   2  -9  106.39   19.30
  -2   2   9  114.29   19.00
   2   2  -9  145.69   21.60
  -2   2  -9  159.68   20.70
   2   2   9  108.99   27.50
   2  -2  -9  126.79   20.00
   2   2   9  132.79   27.00
  -2   2  -9  138.49   27.20
  -2  -2   9   94.39   23.20
  -2  -2   9  138.79   25.10
  -3   2   9   41.60   15.50
   3  -2   9   73.79   22.70
  -3  -2  -9   63.59   22.00
   3   2  -9   21.40   11.60
  -3   2   9   68.99   25.90
   3   2  -9   13.00   13.60
  -3   2  -9   53.69   15.40
   3  -2  -9   36.70   16.70
   3  -2  -9   63.69   20.00
   3   2   9   43.00   20.80
  -3  -2   9   48.60   18.40
  -3  -2   9   -1.90   13.90
  -3   2  -9   60.19   22.60
   3   2   9   68.49   25.20
  -4   2   9   73.39   26.80
   4   2  -9   93.29   23.50
   4  -2   9   86.09   23.60
  -4  -2  -9  117.69   30.50
  -4   2   9  137.99   26.30
  -4   2  -9   73.99   24.80
  -4   2  -9  118.99   21.50
  -4  -2   9  123.19   29.80
  -4  -2   9   87.89   25.40
   4   2   9   59.19   22.80
   4  -2  -9  114.49   26.70
   4   2   9  146.49   35.90
   5  -2   9   49.00   21.00
  -5   2   9   38.70   23.30
  -5  -2  -9   38.00   23.90
   5   2  -9   49.50   23.80
  -5   2   9   53.19   28.40
  -5  -2   9   73.89   26.70
  -5   2  -9   36.60   19.70
   5  -2  -9   50.29   21.10
   5   2   9   45.50   28.80
  -5  -2   9   51.79   23.90
   6  -2   9   11.90   21.60
   6   2  -9   28.50   21.50
  -6  -2  -9   -7.00   24.10
   6   2   9   12.40   29.50
  -6  -2   9   10.30   23.00
  -6  -2   9   -6.60   20.80
  -6   2  -9   15.80   22.30
   6  -2  -9  -11.70   21.70
   0  -3   9   19.40   16.90
   0  -3   9   12.00   14.10
   0   3   9   14.00   13.50
   0   3   9   -6.60   12.50
   0   3  -9   -2.10    8.30
   0  -3  -9   -7.40    9.60
  -1   3   9    4.20   15.40
   1  -3   9    7.20   13.10
  -1   3   9   12.60   15.20
   1   3  -9   13.80   10.30
   1  -3   9   -7.20   12.80
  -1  -3  -9   -0.50   11.60
  -1   3  -9    7.40   10.70
   1  -3  -9   21.20   12.00
  -1  -3   9   19.10   14.70
  -1  -3   9    8.60   16.90
   1   3   9    0.40   12.30
   1   3   9   -1.40   13.90
   2   3  -9  326.77   31.40
  -2  -3  -9  387.96   38.60
   2  -3   9  309.97   38.30
  -2   3   9  307.37   38.70
   2  -3  -9  336.57   37.70
   2   3   9  308.37   39.50
   2   3   9  334.97   35.20
  -2  -3   9  218.18   29.30
   2  -3  -9  348.87   29.10
  -2   3  -9  276.77   28.10
  -2  -3   9  290.57   34.50
  -2   3  -9  237.78   31.70
  -3  -3  -9   13.70   17.30
  -3   3   9   36.00   21.70
   3   3  -9    2.80   11.50
  -3   3   9   38.40   17.10
   3  -3   9   15.50   17.00
  -3   3  -9   29.00   16.30
   3   3   9    3.50   15.90
  -3   3  -9   15.00   11.80
  -3  -3   9   -1.40   14.00
  -3  -3   9   30.00   19.00
   3  -3  -9   29.00   17.30
   3   3   9    6.30   20.40
  -4   3   9  285.17   42.00
  -4   3   9  343.57   36.00
   4  -3   9  268.17   38.50
   4   3  -9  257.17   32.30
  -4  -3  -9  257.27   42.80
   4   3   9  250.87   34.60
  -4   3  -9  294.77   36.70
   4  -3  -9  392.36   42.00
   4   3   9  418.46   49.50
  -4  -3   9  257.07   37.50
  -4   3  -9  328.97   33.30
   5  -3   9   30.40   21.50
  -5   3   9    9.50   24.70
  -5   3   9    9.40   20.30
  -5  -3  -9    3.80   24.50
  -5   3  -9   10.00   19.20
   5  -3  -9   21.40   18.40
  -5  -3   9   39.80   24.10
   5   3   9   11.50   29.40
  -5   3  -9   30.30   17.80
  -5  -3   9  -15.60   17.70
   0   4   9   15.20   17.30
   0   4  -9    1.10   11.20
   0  -4   9    0.20   13.20
   0  -4  -9    4.20   13.90
   0  -4  -9  -12.40   13.30
   0  -4   9   -1.40   15.50
   1  -4   9  319.07   40.00
   1   4  -9  379.16   34.70
  -1  -4  -9  276.27   33.90
   1  -4   9  324.97   38.40
  -1   4   9  301.27   41.90
   1   4   9  302.37   37.80
   1  -4  -9  393.26   41.50
   1  -4  -9  339.67   31.60
   1   4   9  302.67   42.80
  -1  -4   9  328.77   37.60
  -1  -4   9  328.57   37.10
  -1   4  -9  365.06   34.10
  -2   4   9   18.40   19.40
   2   4  -9   12.30   12.20
   2  -4   9   35.10   20.20
  -2  -4  -9   47.70   21.10
  -2  -4   9   43.00   20.50
   2   4   9   54.29   25.80
   2   4   9   34.90   18.50
   2  -4  -9   27.40   18.90
  -2   4  -9   22.90   15.50
  -2   4  -9   45.30   19.70
  -2  -4   9   37.20   20.30
   3  -4   9    0.90   13.60
   3   4  -9    9.80   13.50
  -3   4   9   16.20   19.00
  -3  -4  -9   21.60   19.80
  -3  -4   9   19.70   22.10
  -3   4  -9    0.00   13.60
  -3   4  -9   17.50   14.00
   3   4   9    1.90   15.70
   3   4   9   45.90   25.60
   3  -4  -9   11.30   17.40
   4  -4   9   -3.60   14.70
   4   4  -9   -4.90   12.90
  -4  -4  -9    6.60   17.10
  -4   4   9    4.00   17.70
  -4   4   9    9.30   24.20
   4   4   9  -12.00   21.80
  -4  -4   9   22.80   19.60
  -4   4  -9   -1.10   15.90
   4   4   9    5.30   15.80
   4  -4  -9   -8.30   16.80
  -4   4  -9  -12.80   12.20
   5  -4   9  112.29   31.50
  -5   4   9  154.38   33.40
  -5   4   9   63.39   30.80
  -5  -4  -9   42.00   25.20
   5   4  -9   79.19   24.50
  -5  -4   9   13.60   23.40
   5   4   9  124.49   41.40
  -5   4  -9   78.39   27.30
  -5   4  -9   89.99   25.40
   5  -4  -9   93.39   29.20
   0  -5   9    7.20   17.40
   0   5  -9   -7.00   13.20
   0  -5  -9  -26.80   12.90
   0  -5  -9   -8.70   17.10
   0   5   9   14.40   21.80
   0  -5   9   -5.80   14.80
   1  -5   9  264.87   36.60
  -1   5   9  125.29   33.60
  -1  -5  -9  315.87   40.90
   1  -5   9  236.18   35.30
   1   5  -9  294.77   33.90
  -1  -5  -9  258.37   34.80
   1  -5  -9  177.28   36.40
  -1   5  -9  243.98   31.60
   1   5   9  202.28   39.20
  -1  -5   9  235.58   33.80
  -1  -5   9  182.58   34.20
   2  -5   9   94.49   28.70
  -2   5   9  188.48   40.40
  -2  -5  -9  194.48   35.90
  -2  -5  -9  102.69   27.70
   2   5  -9  135.19   28.60
  -2  -5   9  106.09   29.60
   2  -5  -9  136.69   30.80
   2   5   9  204.68   42.40
  -2   5  -9  135.69   29.90
  -2   5  -9   77.99   21.90
  -2  -5   9  181.58   33.10
  -3  -5  -9   -2.20   16.80
  -3  -5  -9   13.20   18.70
  -3   5   9  -38.50   15.20
   3   5  -9    5.70   16.20
   3  -5   9   10.70   17.60
  -3   5  -9   -3.30   15.60
  -3  -5   9    3.90   21.80
   3  -5  -9   -2.80   18.30
  -3   5  -9   -0.30   14.70
   3   5   9    3.50   23.80
   4   5  -9   55.39   23.60
  -4  -5  -9   71.49   28.60
   4  -5   9   29.60   23.50
  -4   5   9   36.50   30.60
   4  -5  -9   42.90   23.80
  -4  -5   9   57.09   30.70
  -4   5  -9   43.20   23.00
   4   5   9    6.60   25.80
  -4   5  -9   44.80   22.70
   0   6   9   -6.90   15.20
   0   6  -9  -15.90   12.10
   0  -6  -9    2.30   20.10
   0  -6   9    1.90   17.10
   0  -6   9   -6.80   16.50
  -1  -6  -9   38.20   25.50
  -1  -6  -9   40.60   21.60
   1  -6   9   49.99   25.00
  -1   6   9   49.00   27.80
   1  -6   9   31.50   26.10
   1   6  -9   19.20   16.30
  -1  -6   9   52.19   23.70
  -1   6  -9   60.99   22.00
   1  -6  -9   23.80   23.90
  -1  -6   9   38.30   23.30
   1   6   9   23.90   22.30
  -2  -6  -9  196.88   37.50
  -2  -6  -9  165.38   34.20
   2  -6   9  196.48   41.80
  -2   6   9  141.69   38.40
   2   6  -9  245.28   36.10
  -2   6  -9  192.78   33.80
   2  -6  -9  184.18   40.40
   2   6   9  203.58   43.90
  -2  -6   9  186.28   40.60
  -2   6  -9  195.58   35.40
   3  -6   9    1.30   25.10
  -3  -6  -9   20.10   24.60
   3   6  -9    8.70   16.80
  -3   6   9    7.50   22.60
  -3  -6  -9   18.00   19.30
   3   6   9   24.30   23.70
  -3  -6   9   15.70   21.70
  -3   6  -9    2.30   18.60
  -3   6  -9   41.20   22.20
   3  -6  -9  -18.00   18.70
   0  -7  -9   10.90   23.10
   0   7  -9  -18.50   13.50
   0  -7   9    4.10   18.30
   0  -7   9    0.90   20.90
   0   7   9    4.00   20.60
   1  -7   9   88.49   28.70
   1  -7   9  138.29   36.90
   1   7  -9   95.49   29.50
  -1  -7  -9  166.28   41.20
  -1   7   9   89.79   35.90
   1  -7  -9  188.58   44.30
  -1   7  -9  127.39   32.60
  -1  -7   9  128.59   34.80
   1   7   9  134.59   40.20
  -1  -7   9  144.39   34.30
  -2   7   9   70.69   32.70
   2  -7   9   12.80   27.30
  -2  -7  -9   59.59   28.90
   2   7  -9   52.59   26.20
  -2  -7  -9   56.39   27.80
  -2   7  -9   32.10   22.40
   2  -7  -9   84.29   35.80
  -2  -7   9   32.20   26.30
  -2   7  -9   51.69   25.40
   2   7   9   43.80   30.60
   0   0  10 1469.65   67.39
   0   0  10 1443.36   76.39
   0   0 -10 1477.95   72.89
  -1   0 -10    4.60   11.20
   1   0  10    0.20   12.10
  -1   0  10   -2.90   12.50
   1   0  10   20.70   13.30
   1   0 -10    1.30    6.60
   1   0 -10   -9.30   10.70
  -1   0  10    8.30   12.70
  -2   0  10  500.25   43.80
  -2   0  10  426.86   34.90
   2   0  10  529.95   46.50
   2   0  10  460.45   40.00
  -2   0  10  571.44   43.90
  -2   0  10  690.53   47.50
  -2   0 -10  486.65   44.60
  -3   0  10    0.70   14.10
  -3   0  10   -8.90   13.40
  -3   0 -10   -2.60   13.80
   3   0  10   -6.50   13.60
   3   0  10   -2.90   14.40
  -3   0  10   10.20   13.20
  -3   0  10    1.10   13.40
   4   0  10  263.97   38.00
  -4   0  10  311.97   36.90
  -4   0  10  225.88   33.20
   4   0  10  257.17   40.70
  -4   0 -10  258.47   37.40
  -4   0  10  259.57   37.90
  -4   0  10  201.88   33.90
  -5   0  10    5.50   17.10
   5   0  10  -19.00   15.30
  -5   0 -10    9.90   22.70
   5   0 -10  -15.60   18.00
   5   0  10   15.10   21.40
   0   1 -10  548.95   44.20
   0   1 -10  549.15   32.50
   0   1  10  549.05   47.90
   0  -1 -10  614.04   43.50
   0   1  10  594.24   43.90
   0  -1  10  670.33   49.20
   0  -1  10  582.14   37.60
   1   1 -10   84.19   15.30
  -1   1  10   60.59   18.80
  -1  -1 -10   46.80   17.40
  -1   1  10   71.69   21.90
   1  -1  10   17.00   15.40
   1  -1  10   57.19   15.60
   1   1  10   29.80   14.70
   1  -1 -10   78.79   19.40
  -1   1 -10   52.79   13.10
  -1  -1  10   49.50   19.50
   1   1  10   53.69   20.10
  -1  -1  10   63.19   18.40
  -1  -1  10   38.30   17.40
  -1   1 -10   30.10   15.80
   2   1 -10   28.70   11.90
   2  -1  10   56.19   21.60
  -2   1  10   22.00   16.20
  -2   1  10   13.30   12.40
  -2  -1 -10   11.90   13.80
  -2   1  10   34.70   17.00
   2  -1  10   37.00   15.30
   2  -1 -10    8.00   11.60
  -2   1 -10   10.70   13.70
  -2  -1  10   16.30   18.00
  -2  -1  10   52.19   17.90
   2   1  10   16.50   15.80
  -2  -1  10   32.80   19.40
   2   1  10   21.10   16.50
  -3   1  10  777.52   58.29
  -3   1  10  764.52   48.60
   3  -1  10  756.02   50.39
  -3  -1 -10  697.13   54.49
   3  -1  10  862.01   61.99
  -3   1  10  753.62   55.39
   3   1  10  764.32   57.19
  -3  -1  10  795.52   52.69
   3   1  10  808.82   57.19
  -3  -1  10  764.92   52.19
  -3   1 -10  667.03   54.79
   3  -1 -10  782.22   48.90
  -3  -1  10  825.82   55.89
  -3  -1  10  793.82   52.69
   4   1 -10    9.90   17.00
   4  -1  10   51.39   22.10
  -4   1  10   11.80   17.70
  -4  -1 -10   11.90   19.20
  -4   1  10   13.30   16.90
   4   1  10   25.90   20.30
   4   1  10   -9.00   15.40
  -4  -1  10   30.10   17.80
  -4  -1  10   51.89   21.50
  -4   1 -10    7.50   16.70
   4  -1 -10    3.90   14.10
  -5  -1 -10   52.09   26.90
   5  -1  10  161.98   34.80
   5   1 -10   65.79   26.40
  -5   1  10   17.90   23.40
  -5   1  10   83.39   26.80
  -5   1 -10   77.69   28.00
   5   1  10   55.79   24.10
   5   1  10   12.50   22.20
  -5  -1  10   39.50   22.20
  -5  -1  10   41.30   22.30
   0   2 -10   76.09   15.80
   0  -2  10   78.29   25.50
   0   2  10   70.69   21.90
   0   2  10   80.69   22.20
   0  -2 -10  121.19   24.00
   0  -2  10   71.49   23.10
   1  -2  10  492.35   47.50
  -1  -2 -10  462.65   40.00
  -1   2  10  495.55   45.50
  -1   2  10  545.35   47.40
   1   2 -10  497.15   34.80
   1   2  10  495.65   46.00
  -1   2 -10  504.65   43.80
  -1   2 -10  577.94   36.40
   1   2  10  482.75   45.60
  -1  -2  10  496.75   46.10
  -1  -2  10  625.54   47.20
   1  -2 -10  530.15   38.60
   2   2 -10   28.30   12.00
   2  -2  10   49.20   22.10
  -2   2  10   40.80   20.60
  -2  -2 -10   43.90   18.60
  -2   2  10   48.40   22.90
   2  -2 -10   49.00   15.70
   2   2  10   27.60   18.80
  -2  -2  10   15.60   16.80
  -2   2 -10   39.70   18.30
  -2   2 -10   13.60   11.80
   2   2  10   23.60   19.70
  -2  -2  10   44.70   19.60
  -3   2  10  689.83   57.29
   3   2 -10  699.23   46.40
  -3  -2 -10  703.33   54.59
   3  -2  10  904.21   63.19
  -3   2  10  747.33   47.10
  -3  -2  10  771.22   52.49
   3   2  10  729.73   55.19
  -3   2 -10  692.83   54.29
   3   2  10  854.41   63.29
   3  -2 -10  668.83   51.49
  -3  -2  10  687.33   52.89
  -4   2  10   -7.20   14.60
   4  -2  10  -13.90   14.70
  -4  -2 -10    3.00   19.20
  -4   2  10  -15.30   17.30
  -4   2 -10  -20.80   14.50
   4   2  10   19.70   18.30
  -4  -2  10  -19.50   14.80
  -4  -2  10   34.10   21.40
   4   2  10   -0.30   17.40
   4  -2 -10    8.40   14.40
  -5   2  10   80.89   31.50
   5  -2  10  122.79   32.80
  -5  -2 -10  122.49   35.10
  -5   2  10  118.89   28.90
  -5   2 -10  160.28   33.90
  -5  -2  10  161.68   36.50
   5  -2 -10   88.19   25.60
   5   2  10  129.69   36.90
  -5  -2  10  166.28   35.60
   0   3  10  967.20   66.09
   0  -3  10 1121.89   68.59
   0  -3  10 1026.60   66.89
   0   3  10 1013.70   68.69
   0  -3 -10 1061.39   59.19
   0   3 -10 1025.60   55.09
  -1   3  10   40.70   20.00
   1   3 -10    4.40    9.70
  -1  -3 -10   14.50   15.20
   1  -3  10   20.30   18.90
  -1   3  10    1.30   16.40
   1  -3 -10   -2.40   12.50
  -1  -3  10   17.40   16.40
  -1  -3  10   -4.70   15.80
   1   3  10    1.60   16.30
  -1   3 -10   -2.60   10.60
   1   3  10    1.30   12.60
  -1   3 -10    6.90   15.00
   2   3 -10  150.18   26.00
  -2   3  10  148.09   33.10
   2  -3  10   98.49   28.30
  -2  -3 -10  133.49   28.20
  -2  -3  10  142.59   31.90
  -2   3 -10  146.09   30.10
   2   3  10  136.39   34.60
  -2   3 -10  105.29   21.20
   2  -3 -10  110.79   27.00
   2   3  10  122.79   29.70
  -2  -3  10  110.89   27.00
  -3  -3 -10  108.69   30.60
   3  -3  10  105.09   28.80
   3   3 -10   42.30   16.90
  -3   3  10   89.99   30.80
   3  -3 -10   48.00   20.90
  -3  -3  10   46.60   18.90
  -3   3 -10   99.69   21.40
  -3   3 -10   94.49   27.20
   3   3  10   51.89   25.90
   3   3  10   36.60   20.30
  -3  -3  10  103.89   27.90
   4  -3  10   21.30   18.00
  -4   3  10   15.30   18.90
  -4   3  10   26.90   25.00
   4   3 -10   21.80   15.30
  -4  -3 -10   53.79   25.20
  -4   3 -10   17.70   17.90
  -4  -3  10   25.10   21.40
   4   3  10   23.10   25.80
   4   3  10   12.80   18.20
   4  -3 -10    0.20   17.00
  -5   3  10   13.00   27.60
  -5   3  10   24.50   22.50
   5  -3  10    6.10   20.70
   5   3 -10    8.70   14.70
  -5  -3 -10   -0.60   24.80
   5  -3 -10   22.40   21.30
  -5   3 -10   11.10   20.90
   5   3  10    9.90   26.00
  -5  -3  10  -13.30   20.50
   0  -4  10  497.05   47.50
   0  -4 -10  393.36   44.20
   0  -4 -10  385.66   37.80
   0   4 -10  335.27   33.90
   0  -4  10  339.97   42.30
   0   4  10  332.47   44.30
   1  -4  10  129.29   32.60
   1   4 -10   76.59   20.20
  -1  -4 -10   29.70   19.60
  -1   4  10   26.10   22.20
   1  -4  10   64.89   22.10
  -1  -4  10   91.09   27.30
   1   4  10   56.69   24.90
   1   4  10   66.79   23.60
  -1   4 -10   46.00   17.70
   1  -4 -10   56.39   19.40
   1  -4 -10   75.79   25.60
  -1  -4  10   56.49   21.70
   2  -4  10  259.37   43.40
  -2  -4 -10  180.68   33.00
   2   4 -10  260.17   32.30
  -2   4  10  145.89   35.10
   2   4  10  176.68   37.20
  -2  -4  10  238.28   33.10
  -2  -4  10  246.98   40.30
  -2   4 -10  170.28   33.00
   2  -4 -10  234.48   39.70
   2   4  10  202.88   35.50
  -2   4 -10  181.08   27.10
  -3   4  10   65.89   28.10
   3   4 -10   89.39   24.80
   3  -4  10  139.19   32.80
  -3  -4 -10   74.39   26.70
   3   4  10   62.89   29.80
  -3   4 -10  140.29   30.80
  -3   4 -10   58.99   20.70
   3   4  10  118.79   29.30
  -3  -4  10   85.29   27.50
   3  -4 -10   97.49   30.20
  -4   4  10  131.59   37.40
   4   4 -10  122.19   28.80
  -4  -4 -10  114.39   33.40
   4  -4  10  122.29   33.60
   4   4  10   71.79   35.10
   4  -4 -10   98.79   29.70
  -4   4 -10   78.39   27.70
   4   4  10  122.99   32.00
  -4   4 -10   93.89   25.00
  -4  -4  10   92.19   32.90
   0  -5  10   33.20   21.30
   0  -5 -10   -1.90   20.50
   0   5 -10   -2.50   12.00
   0  -5 -10   -7.40   16.00
   0  -5  10   12.90   19.00
   0   5  10   19.90   22.90
  -1  -5 -10   19.00   19.90
  -1  -5 -10   14.40   21.40
   1  -5  10   60.89   24.00
   1   5 -10   79.69   23.70
   1  -5  10   47.70   25.50
  -1   5  10   54.09   26.70
   1  -5 -10   74.29   28.40
  -1  -5  10   61.09   24.40
  -1  -5  10   78.29   26.20
  -1   5 -10   87.79   24.50
   1   5  10   43.40   25.50
  -2  -5 -10   19.00   18.80
   2   5 -10   34.20   19.00
   2  -5  10   47.50   25.20
  -2   5  10   22.30   24.30
  -2  -5 -10   47.70   25.70
   2   5  10   35.90   29.10
   2  -5 -10   36.20   22.70
  -2  -5  10   55.39   25.40
  -2  -5  10   21.00   19.80
  -2   5 -10   10.10   19.70
  -2   5 -10   29.30   17.60
   3  -5  10  250.37   42.90
  -3   5  10  317.17   52.29
  -3  -5 -10  347.27   42.50
  -3  -5 -10  306.27   44.20
   3   5 -10  315.37   41.50
  -3   5 -10  301.07   40.10
   3   5  10  262.67   52.39
   3  -5 -10  324.97   46.50
  -3  -5  10  308.87   50.09
  -3   5 -10  363.96   41.40
  -4   5  10   24.80   31.30
   4   5 -10    7.10   18.70
   4  -5  10   51.09   27.30
  -4  -5 -10   55.19   26.90
  -4   5 -10   31.50   22.00
   4  -5 -10   46.30   26.60
  -4   5 -10   11.70   21.80
   4   5  10   53.59   36.20
  -4  -5  10   63.79   33.40
   0  -6  10  104.39   33.30
   0  -6  10    2.10   16.70
   0   6 -10   91.79   27.20
   0  -6 -10   49.20   30.50
   0   6  10    4.30   24.40
  -1  -6 -10  159.08   37.30
  -1  -6 -10   93.69   26.40
  -1   6  10   86.39   36.90
   1  -6  10   89.89   30.60
   1   6 -10  136.49   31.70
   1  -6  10  146.89   34.10
  -1  -6  10   82.59   28.80
   1  -6 -10  114.19   35.80
  -1   6 -10  124.09   30.20
  -1  -6  10   80.09   28.80
   1   6  10   56.89   33.00
  -2  -6 -10   66.69   28.20
   2  -6  10   86.99   32.10
   2   6 -10   57.19   23.10
  -2  -6 -10  125.59   32.70
  -2   6  10   16.90   24.90
   2  -6 -10   72.79   29.90
  -2  -6  10   48.00   26.50
   2   6  10   66.09   34.30
  -2   6 -10   87.69   26.70
  -2   6 -10   30.30   22.70
   0   0 -11   -6.40   11.40
   0   0  11   -1.70   11.80
   0   0  11   -0.20   12.70
   1   0  11    7.00   13.80
  -1   0  11   -9.70   13.50
  -1   0  11   -2.60   12.30
  -1   0 -11   -2.00   11.80
   1   0  11   -2.00   13.30
   1   0 -11   -7.60   11.20
   2   0  11  417.56   38.30
  -2   0  11  490.75   43.10
  -2   0  11  474.95   43.70
  -2   0 -11  322.57   39.90
   2   0  11  510.95   47.40
   2   0 -11  449.56   31.30
   2   0 -11  550.24   44.10
  -3   0  11    0.10   15.00
  -3   0  11   18.00   18.90
  -3   0 -11  -15.90   15.30
   3   0  11    1.50   16.20
   3   0  11   37.60   18.40
  -3   0  11  -12.40   14.30
  -3   0  11    3.10   17.10
  -4   0  11  617.04   49.60
  -4   0  11  513.95   50.99
  -4   0  11  529.55   48.90
   4   0  11  528.55   51.19
   4   0  11  656.43   55.39
  -4   0  11  560.04   50.49
  -4   0 -11  455.95   49.50
  -5   0  11  -15.00   18.90
   5   0 -11   -1.00   22.70
   5   0  11  -23.40   22.70
  -5   0 -11  -13.30   20.40
   5   0  11    8.70   21.50
   0   1  11    7.40   16.50
   0   1  11   -0.30   14.80
   0  -1 -11   11.40   12.80
   0   1 -11    5.70   12.30
   0  -1  11   13.10   16.80
  -1   1  11   87.19   25.30
   1   1 -11  127.09   18.80
   1  -1  11  156.78   32.60
  -1   1  11   89.29   22.30
  -1  -1 -11  125.59   27.80
   1  -1 -11  113.09   24.60
   1   1  11   63.29   21.90
   1   1  11  104.79   24.20
  -1  -1  11   54.39   22.20
  -1  -1  11   88.49   24.50
  -1   1 -11   98.49   24.40
   2  -1  11   46.00   20.30
   2   1 -11   63.09   15.90
  -2  -1 -11   95.89   24.40
  -2   1  11   39.30   19.90
  -2   1  11   50.49   22.30
  -2  -1  11   95.19   28.20
   2   1  11   67.89   21.20
  -2   1 -11   93.69   27.00
   2  -1 -11   29.90   14.70
  -2  -1  11   76.59   25.90
   2   1  11   50.19   20.30
  -2  -1  11   19.30   19.20
  -3  -1 -11   13.00   17.20
  -3   1  11   -3.60   17.90
  -3   1  11  -12.20   13.80
   3   1 -11   15.40   11.00
  -3   1  11   -8.10   17.00
   3  -1  11   -6.00   14.70
  -3  -1  11   19.40   16.40
  -3   1 -11   22.00   22.60
   3  -1 -11    1.20   13.60
   3   1  11   12.70   19.70
   3   1  11   23.70   17.80
  -3  -1  11   -3.30   16.50
  -3  -1  11   15.90   17.20
   4   1 -11   19.50   21.00
  -4  -1 -11    2.80   19.90
  -4   1  11    4.40   17.50
   4  -1  11   -1.60   19.20
  -4   1  11   13.10   17.10
  -4   1 -11    3.60   18.20
  -4  -1  11   -2.90   17.50
  -4  -1  11  -23.00   15.50
   4   1  11   23.50   23.20
   4  -1 -11   24.90   18.70
   4   1  11   -6.80   16.80
  -5   1  11   69.39   27.60
  -5  -1 -11   49.80   29.80
   5   1 -11   88.79   31.40
  -5   1  11  131.69   36.00
   5  -1  11   56.79   26.60
   5   1  11   61.69   29.70
  -5  -1  11   57.99   25.70
  -5   1 -11   58.49   26.40
  -5  -1  11   77.49   27.20
   5   1  11   83.79   28.90
   0   2 -11   16.90   15.50
   0   2  11   18.40   18.10
   0   2 -11    0.50    8.60
   0  -2  11   20.70   18.30
   0  -2 -11   -3.10   11.60
   0   2  11   12.30   16.50
  -1   2  11  431.96   45.70
  -1   2  11  569.74   50.89
   1   2 -11  580.74   38.30
   1  -2  11  617.24   53.09
  -1  -2 -11  638.44   48.10
   1   2  11  508.85   46.80
  -1   2 -11  471.75   46.40
   1  -2 -11  653.03   45.70
  -1   2 -11  554.64   37.10
   1   2  11  555.34   50.29
  -1  -2  11  586.34   52.99
  -1  -2  11  575.94   49.00
  -2   2  11   67.39   24.40
   2   2 -11   68.99   18.20
  -2   2  11   62.29   24.20
   2  -2  11   50.99   24.50
  -2  -2 -11   62.79   22.60
   2   2  11   66.69   25.80
   2   2  11   27.00   20.50
  -2   2 -11   46.00   20.70
  -2  -2  11   72.59   23.60
  -2  -2  11   51.29   23.80
   2  -2 -11   49.40   18.90
  -3   2  11  -21.00   15.60
  -3  -2 -11   19.20   18.30
   3   2 -11   -0.20   10.50
   3  -2  11    6.70   19.70
   3   2  11   12.00   19.50
   3  -2 -11    9.50   16.20
  -3  -2  11  -19.80   15.10
  -3   2 -11  -10.70   15.00
   3   2  11   10.00   21.90
  -3  -2  11   11.20   19.30
  -4  -2 -11   15.80   21.50
  -4   2  11   89.39   24.30
  -4   2  11   88.29   31.90
   4   2 -11   95.89   23.10
   4  -2  11   19.40   22.50
  -4   2 -11   55.49   24.70
   4   2  11   82.19   29.90
   4   2  11   40.60   23.80
  -4  -2  11   72.79   26.50
   4  -2 -11   48.00   22.10
   5  -2  11  102.39   34.30
  -5   2  11  121.39   32.00
  -5   2  11  157.98   42.60
  -5  -2 -11   95.09   35.20
   5   2  11   91.69   33.80
  -5   2 -11  116.99   35.70
  -5  -2  11  190.18   39.10
   5  -2 -11  109.89   36.90
   5   2  11  103.19   37.40
  -5  -2  11   95.09   30.80
   0  -3  11  -19.00   11.00
   0  -3 -11   12.50   14.10
   0  -3  11  -11.00   17.80
   0   3 -11    0.50   11.20
   0   3  11  -16.90   13.90
   0   3  11   13.00   17.40
  -1   3  11   19.70   21.70
  -1  -3 -11   22.70   15.10
   1   3 -11   17.80   12.00
  -1   3  11   20.00   19.20
   1  -3  11   50.99   25.30
  -1   3 -11    4.00   12.90
  -1   3 -11   12.40   18.80
  -1  -3  11   47.40   22.30
  -1  -3  11   22.50   19.70
   1  -3 -11   31.50   16.40
   1   3  11   27.20   19.20
   1   3  11   10.20   15.90
   2   3 -11  161.18   28.10
  -2  -3 -11   99.49   27.80
  -2   3  11  201.58   37.50
   2  -3  11  158.18   35.50
   2   3  11  131.59   32.00
   2   3  11  142.79   35.50
   2  -3 -11  140.29   31.20
  -2  -3  11  138.09   30.00
  -2   3 -11  152.58   32.50
  -2   3 -11  188.08   26.80
  -2  -3  11   95.69   29.00
  -3   3  11  -22.20   17.50
   3  -3  11    3.10   18.50
   3   3 -11   28.30   15.80
  -3  -3 -11   21.50   20.50
   3   3  11   -9.80   16.80
   3  -3 -11   -3.60   15.50
  -3   3 -11    2.70   16.20
   3   3  11   26.00   24.10
  -3  -3  11    9.80   23.00
  -3  -3  11  -11.40   17.00
   4   3 -11   15.20   15.70
   4  -3  11   24.70   23.70
  -4   3  11    5.10   25.00
  -4  -3 -11   35.40   23.80
  -4  -3  11   58.49   28.60
  -4   3 -11   49.90   23.60
   4   3  11   72.89   25.00
   4  -3 -11   31.30   21.70
   4   3  11   17.10   26.90
   0  -4  11    7.20   20.50
   0  -4 -11   -3.10   15.00
   0   4 -11   -5.60   11.00
   0  -4  11    9.10   18.00
   0   4  11  -19.70   17.20
   0   4  11   -6.50   17.80
   0  -4 -11   -1.70   19.50
  -1  -4 -11  195.68   34.50
   1   4 -11  170.78   29.30
   1  -4  11  279.27   45.60
  -1   4  11  177.38   38.60
  -1  -4  11  271.27   39.80
  -1   4 -11  258.37   42.50
   1  -4 -11  188.08   37.70
  -1   4 -11  202.08   31.90
  -1  -4  11  290.67   40.00
   1   4  11  219.28   39.30
   1   4  11  174.58   37.10
  -2   4  11  104.69   34.00
   2   4 -11  181.38   31.20
   2  -4  11  139.89   34.60
  -2  -4 -11   80.89   27.50
   2   4  11  128.49   36.30
  -2  -4  11  124.09   30.20
   2  -4 -11  101.59   29.20
  -2   4 -11  152.78   29.10
  -2  -4  11  156.08   36.90
  -2   4 -11   94.79   27.70
   2   4  11  130.29   32.20
   3  -4  11   16.60   21.80
  -3   4  11  -21.50   20.70
  -3  -4 -11   11.50   19.20
   3   4 -11   15.20   15.60
  -3   4 -11   16.50   21.40
   3   4  11   12.20   18.30
   3  -4 -11  -11.90   16.30
  -3  -4  11   -4.60   19.30
  -3   4 -11   -9.60   14.00
   3   4  11   21.00   29.00
  -4  -4 -11  118.69   33.90
   4  -4  11  175.08   39.40
   4   4 -11  114.09   29.20
  -4   4  11  159.98   43.80
   4  -4 -11  151.38   34.60
   4   4  11  117.59   31.20
  -4  -4  11  126.09   37.50
  -4   4 -11  191.58   37.80
   4   4  11  124.79   42.60
   0  -5 -11   -5.30   21.40
   0  -5  11   -1.60   18.20
   0   5 -11   -3.90   13.20
   0  -5  11  -12.50   20.90
   0  -5 -11    5.10   20.40
   0   5  11    1.60   22.40
  -1  -5 -11   64.19   24.40
  -1  -5 -11    7.00   23.70
   1  -5  11   24.60   26.60
   1  -5  11   25.50   20.80
  -1   5  11    3.70   26.40
   1   5 -11    7.60   15.20
  -1  -5  11   25.90   23.30
   1   5  11   19.20   25.40
  -1  -5  11   32.70   22.60
  -1   5 -11   17.70   16.20
   1  -5 -11   20.10   23.90
  -2  -5 -11   34.00   24.50
  -2   5  11   30.70   29.10
   2  -5  11    6.60   25.80
  -2  -5 -11   33.40   25.70
   2   5 -11   10.10   15.40
  -2   5 -11   19.40   18.30
  -2  -5  11    5.60   22.20
   2  -5 -11   38.90   26.50
   2   5  11   22.10   27.60
  -2   5 -11   -4.00   18.80
  -2  -5  11   17.30   24.00
  -3  -5 -11   -6.90   21.00
  -3  -5 -11    9.40   19.60
   3  -5  11   35.40   25.10
  -3   5  11   13.80   25.40
   3   5 -11   -4.30   16.10
   3   5  11   17.90   28.90
  -3   5 -11    0.50   17.00
  -3  -5  11    8.50   26.20
  -3   5 -11   -6.10   17.90
   3  -5 -11  -14.90   17.80
   0  -6  11   15.30   23.70
   0   6 -11  -12.30   16.00
   0  -6 -11    2.60   28.20
   0  -6  11   12.60   22.40
   0   6  11   -6.40   25.30
   1  -6  11   46.90   25.50
  -1  -6 -11   -4.20   22.20
   1   6 -11   25.20   19.50
  -1  -6 -11   19.40   23.80
  -1   6  11  -18.90   27.80
   1  -6  11   27.00   28.70
  -1  -6  11   13.70   24.70
   1   6  11   48.50   34.50
   1  -6 -11   34.30   32.50
  -1  -6  11   24.30   24.20
  -1   6 -11   51.69   23.40
   0   0  12   22.00   19.00
   0   0  12   -5.30   15.80
   0   0 -12    8.60   16.70
  -1   0  12    9.40   17.80
  -1   0  12  -12.20   15.60
   1   0  12  -11.00   13.40
  -1   0 -12  -13.90   12.10
   1   0 -12  -11.00   12.10
   1   0  12   -2.70   14.50
  -2   0  12  303.07   37.90
   2   0 -12  213.08   32.20
  -2   0  12  242.18   35.70
  -2   0 -12  282.27   39.60
   2   0  12  293.67   46.80
  -3   0 -12    5.40   20.00
  -3   0  12  -16.60   15.10
  -3   0  12   -5.10   16.70
  -3   0  12   -7.00   13.80
  -3   0  12   14.40   18.20
   3   0  12   16.90   22.00
  -4   0 -12   86.79   31.40
  -4   0  12  112.49   30.30
  -4   0  12  108.59   31.20
  -4   0  12  137.89   33.60
   4   0  12  155.98   36.60
  -4   0  12  114.89   29.80
   0   1 -12   81.19   23.90
   0  -1  12   81.99   26.20
   0  -1 -12  115.09   27.10
   0   1  12  115.89   32.30
   0   1  12  104.79   26.30
  -1   1  12   82.39   25.50
  -1   1  12   55.79   24.80
   1   1 -12  120.79   28.70
   1  -1  12   78.29   26.40
  -1  -1 -12   47.00   22.90
   1   1  12  127.49   28.50
  -1   1 -12   79.79   22.70
   1   1  12   41.80   21.60
   1  -1 -12   74.59   23.00
  -1  -1  12   69.09   24.10
   2   1 -12   86.69   18.90
  -2  -1 -12   44.00   20.40
  -2   1  12   72.89   26.30
   2  -1  12   90.79   28.70
  -2   1  12   70.19   26.10
   2  -1 -12   43.50   18.40
   2   1  12   53.29   22.30
  -2   1 -12   77.99   27.10
  -2  -1  12   47.70   22.50
  -2  -1  12  117.39   31.50
   2   1  12   51.99   23.10
   3  -1  12  243.58   43.30
  -3  -1 -12  187.38   37.70
  -3   1  12  247.08   42.00
   3   1 -12  174.78   26.20
  -3   1  12  281.07   43.80
  -3  -1  12  295.87   39.60
  -3   1 -12  284.37   41.90
   3  -1 -12  287.47   33.60
   3   1  12  285.47   39.20
   3   1  12  217.18   38.30
  -3  -1  12  289.37   38.80
   4  -1  12   78.19   31.60
  -4   1  12   12.40   23.80
  -4  -1 -12   19.90   24.90
   4  -1 -12   35.10   20.20
  -4   1 -12   70.59   29.70
   4   1  12   45.40   22.30
   4   1  12   11.50   24.60
  -4  -1  12    0.00   20.60
  -4  -1  12   76.49   26.20
   0  -2  12  115.79   31.30
   0  -2 -12   87.39   23.80
   0   2 -12  108.89   27.10
   0   2  12  133.89   33.00
   0   2  12  114.69   30.80
   1  -2  12  171.98   37.00
  -1   2  12  284.87   41.60
   1   2 -12  175.48   23.70
  -1   2  12  199.98   35.60
  -1  -2 -12  229.38   33.10
  -1  -2  12  204.18   36.30
  -1  -2  12  240.08   41.50
   1  -2 -12  207.08   30.10
  -1   2 -12  146.89   32.80
   1   2  12  128.79   30.40
   1   2  12  192.18   36.40
  -2   2  12   37.70   20.90
   2  -2  12    7.10   18.10
  -2   2  12   63.29   26.40
  -2  -2 -12   24.10   19.80
   2   2 -12   25.00   14.50
  -2   2 -12    7.50   17.80
   2  -2 -12    0.10   15.20
  -2  -2  12  -14.00   17.70
   2   2  12    4.40   17.90
   2   2  12    6.20   18.50
  -2  -2  12   45.40   19.20
   3   2 -12   -3.30   11.90
   3  -2  12   -6.20   19.60
  -3  -2 -12    8.80   16.50
  -3   2  12   -5.10   21.30
   3   2  12   18.90   23.50
  -3  -2  12   -7.30   18.10
   3   2  12  -17.40   19.00
   3  -2 -12    2.00   16.90
  -3   2 -12  -20.40   15.40
  -3  -2  12   15.70   23.20
   4   2 -12   -0.10   13.30
  -4  -2 -12   -1.70   19.60
  -4   2  12   -8.00   22.50
   4  -2  12    1.00   23.20
  -4   2 -12    0.40   24.00
  -4  -2  12   22.90   22.50
   4   2  12   31.90   24.20
   4  -2 -12   21.40   19.40
   4   2  12   29.80   22.40
   0   3  12  494.55   52.39
   0   3 -12  499.55   51.69
   0   3 -12  601.84   43.50
   0  -3  12  617.44   57.19
   0   3  12  624.14   58.39
   0  -3 -12  524.05   45.40
   1   3 -12   42.10   16.50
  -1  -3 -12   23.80   15.60
  -1   3  12   54.99   26.10
   1  -3  12   22.20   24.00
  -1   3  12    5.20   21.10
  -1  -3  12   47.70   24.70
   1   3  12   34.10   24.50
  -1  -3  12   45.90   25.40
  -1   3 -12   18.80   18.40
   1   3  12    2.40   17.40
   1  -3 -12   36.20   18.00
  -1   3 -12   28.30   20.00
  -2   3  12   72.19   28.80
  -2  -3 -12  103.69   30.20
   2   3 -12  148.29   28.10
   2  -3  12   81.29   31.10
  -2  -3  12  101.19   32.40
  -2  -3  12   91.29   28.50
   2   3  12  107.69   30.60
   2   3  12   75.49   29.80
   2  -3 -12  113.49   31.10
  -2   3 -12   67.79   27.20
  -3   3  12  -22.50   19.40
  -3  -3 -12  -16.40   17.60
   3  -3  12   -2.50   19.60
   3   3 -12   -4.70   15.20
  -3   3 -12    0.70   20.30
   3   3  12    9.40   23.90
  -3  -3  12   19.50   24.10
   3   3  12   -3.10   19.10
   3  -3 -12   -3.20   18.60
   4   3 -12   14.20   16.20
   0   4  12   13.60   22.80
   0  -4  12   48.20   23.30
   0   4 -12   83.19   22.90
   0  -4  12   90.19   32.60
   0   4  12  104.19   37.70
   0  -4 -12   52.59   22.90
   1   4 -12   30.90   17.10
  -1  -4 -12    8.50   16.60
  -1   4  12   18.00   25.70
   1  -4  12   39.80   25.60
  -1   4 -12   31.70   16.40
   1   4  12   17.40   25.70
  -1   4 -12   55.89   27.20
  -1  -4  12   22.10   23.90
   1  -4 -12   52.09   22.60
   1   4  12   43.80   25.60
  -1  -4  12   36.10   25.20
   2   4 -12   90.29   24.50
  -2  -4 -12   93.09   29.30
   2  -4  12   42.20   29.40
  -2   4  12   75.19   33.20
   2  -4 -12  100.99   33.50
  -2  -4  12   94.99   28.90
  -2   4 -12   90.09   25.60
  -2   4 -12   80.49   29.20
  -2  -4  12   50.59   27.50
   2   4  12    9.90   28.50
   2   4  12   50.19   26.00
  -3   4  12  100.89   37.10
   3   4 -12  161.08   34.50
   3  -4  12  161.28   40.00
  -3  -4 -12  160.38   39.00
  -3  -4  12  190.68   40.80
   3   4  12  117.99   32.60
  -3   4 -12  216.58   42.60
   3   4  12  173.78   43.00
   3  -4 -12  201.48   41.10
   0   5  12   66.29   34.80
   0  -5 -12  102.99   34.90
   0  -5  12   64.09   30.30
   0  -5  12   83.39   32.30
   0   5 -12   28.10   18.60
   1   5 -12    7.50   16.30
   1  -5  12    8.90   27.20
  -1   5  12   19.00   28.80
  -1  -5 -12   -7.90   17.80
  -1  -5 -12   53.59   29.70
  -1  -5  12   53.59   29.70
   1  -5 -12    7.00   25.60
  -1   5 -12   13.10   23.10
  -1  -5  12   12.00   22.30
  -1   5 -12   53.59   22.10
   1   5  12   24.10   29.70
   2   5 -12    1.60   17.50
  -2  -5 -12   35.30   27.40
  -2   5  12    7.60   29.10
   2  -5  12   25.00   31.60
  -2  -5 -12   21.80   23.50
   2   5  12    0.30   28.50
  -2  -5  12   54.59   31.80
  -2   5 -12   35.90   21.70
  -2  -5  12    1.30   26.30
  -2   5 -12    2.70   24.00
   2  -5 -12  -13.60   18.60
   0   0 -13   18.90   17.80
   0   0  13    3.30   18.30
  -1   0  13  -28.40   15.80
   1   0 -13   -5.60   14.00
   1   0  13   -1.10   15.20
  -1   0 -13  -14.60   14.40
  -2   0 -13  411.66   49.20
   2   0  13  426.96   50.49
  -2   0  13  432.26   49.50
   2   0 -13  481.75   46.70
   3   0 -13   10.40   18.90
  -3   0  13   -6.90   18.30
  -3   0 -13   -6.10   21.00
   3   0  13   -8.40   18.80
   0   1  13  -15.10   14.10
   0  -1 -13   -6.80   15.00
   0   1 -13   12.00   18.10
   0  -1  13   -1.30   20.40
   0   1  13    1.60   20.00
  -1   1  13  276.77   46.00
   1   1 -13  167.08   33.90
   1  -1  13  135.69   36.10
  -1  -1 -13  204.18   37.30
  -1   1  13  169.28   35.10
   1   1  13  196.78   35.80
   1   1  13  171.38   38.70
  -1   1 -13  193.28   36.70
  -1  -1  13  219.28   39.10
   1  -1 -13  226.08   33.50
  -2   1  13   63.59   27.10
   2  -1  13  124.09   34.70
  -2   1  13   86.19   29.40
  -2  -1 -13   59.89   26.20
   2   1 -13   55.59   22.60
   2  -1 -13   90.59   25.60
  -2  -1  13  109.79   34.30
   2   1  13   61.49   27.20
   2   1  13  101.59   28.60
  -2   1 -13   86.79   30.90
   3   1 -13   14.20   16.30
  -3  -1 -13    0.70   18.30
  -3   1  13   -2.90   20.60
  -3   1  13   11.50   20.50
   3  -1  13   -4.70   21.60
   3   1  13   34.10   23.20
  -3  -1  13   13.80   21.90
  -3  -1  13   15.60   22.80
   3  -1 -13   10.10   19.20
  -3   1 -13   20.50   25.10
   3   1  13   -3.60   18.30
   0   2 -13  -10.10   14.50
   0   2  13   -8.80   19.10
   0  -2 -13   -2.90   16.30
   0  -2  13  -17.80   18.50
   0   2  13   21.50   21.40
   1  -2  13  428.36   52.89
  -1   2  13  468.15   52.99
   1   2 -13  317.77   42.10
  -1   2  13  404.56   47.20
  -1  -2 -13  427.66   45.10
   1   2  13  404.56   49.20
  -1   2 -13  353.26   45.50
   1  -2 -13  400.46   41.20
  -1  -2  13  379.56   46.90
   1   2  13  328.67   44.10
   2   2 -13   22.90   14.50
  -2  -2 -13   33.90   22.60
  -2   2  13   10.70   24.50
   2  -2  13   16.70   21.40
  -2   2  13    2.40   17.60
   2   2  13   55.39   25.50
   2  -2 -13   13.80   17.60
   2   2  13    6.70   20.30
  -2  -2  13   58.19   25.30
  -2  -2  13   41.60   28.50
  -2   2 -13  -15.40   19.00
   3  -2  13    9.90   21.10
  -3   2  13   30.60   25.20
   3   2 -13   16.20   16.10
  -3  -2 -13    6.30   17.60
  -3  -2  13  -13.60   21.40
   3  -2 -13    5.70   17.90
  -3   2 -13   21.90   25.20
   3   2  13   11.00   21.00
  -3  -2  13   33.20   23.60
   3   2  13    2.50   21.90
   0  -3 -13    4.80   15.60
   0   3  13  -46.70   18.60
   0   3  13    8.30   17.60
   0   3 -13   23.50   21.50
   0  -3  13    6.80   23.40
   1  -3  13   31.60   27.50
  -1   3  13    8.50   25.10
  -1  -3 -13   27.20   17.80
   1   3 -13   13.60   13.30
  -1   3  13    5.50   20.30
  -1   3 -13  -14.90   18.00
   1   3  13   51.09   26.20
  -1  -3  13    9.50   22.90
   1   3  13    1.60   23.60
  -1  -3  13  -17.90   19.30
   1  -3 -13    4.30   15.90
  -2  -3 -13  168.38   37.30
   2   3 -13  205.68   30.00
  -2   3  13  107.99   33.70
   2  -3  13  123.99   39.30
  -2  -3  13  124.59   35.10
  -2   3 -13  125.49   36.40
   2   3  13  151.48   36.00
  -2  -3  13  159.18   40.20
   2  -3 -13  189.48   38.30
   2   3  13  148.99   39.00
   3   3 -13   10.00   16.70
  -3  -3 -13    2.10   21.30
   3  -3  13   19.60   28.20
  -3   3  13  -14.30   25.20
  -3   3 -13  -11.60   22.10
  -3  -3  13   21.70   29.20
   3  -3 -13    0.70   18.30
   3   3  13   -3.40   24.10
   0   4  13  -10.20   24.70
   0  -4  13   -1.20   24.50
   0  -4 -13   -5.30   16.50
   0   4 -13    9.70   23.10
   0   4 -13    5.30   14.60
   0   4  13  -22.60   19.30
  -1  -4 -13   51.69   26.90
  -1   4  13   49.90   29.80
   1  -4  13   65.29   37.10
   1   4 -13   29.10   19.00
  -1  -4  13   59.39   31.70
   1   4  13   66.09   32.70
  -1   4 -13   33.20   26.90
  -1  -4  13   33.10   29.50
   1   4  13  103.69   33.30
   1  -4 -13   84.89   29.30
   2   4 -13  110.19   28.90
  -2  -4 -13   42.80   24.50
  -2   4  13   54.89   31.70
  -2   4 -13   68.09   31.30
  -2  -4  13   95.39   36.10
   2  -4 -13  119.09   37.60
   2   4  13  162.88   42.60
   0   0  14   -3.50   24.90
   0   0 -14   23.10   19.60
   1   0 -14   -6.10   15.40
  -1   0  14    8.80   23.90
   1   0  14   18.10   23.30
  -1   0 -14    6.10   18.60
  -2   0  14  160.98   36.80
   2   0 -14  219.88   39.30
  -2   0 -14  247.78   45.70
   2   0  14  223.68   42.60
   0   1  14   17.30   24.60
   0  -1 -14   -2.00   16.90
   0  -1  14   19.90   24.80
   0   1 -14  -10.10   17.80
  -1  -1 -14  157.28   36.00
  -1   1  14   70.69   30.70
   1   1 -14   55.29   26.10
  -1   1  14   81.89   39.60
   1  -1  14   18.00   27.00
   1   1  14   33.00   25.30
   1  -1 -14   51.09   25.30
  -1   1 -14   16.90   21.00
  -1  -1  14   26.90   27.90
  -2  -1 -14    8.10   18.70
   2  -1  14   32.60   27.30
   2   1 -14   -7.30   18.80
  -2   1  14    4.00   26.00
  -2   1  14   26.60   26.10
   2  -1 -14   47.40   22.40
   2   1  14   15.50   25.30
  -2  -1  14    8.20   23.20
  -2   1 -14    5.30   19.50
   0  -2 -14   92.69   27.90
   0  -2  14   85.99   35.10
   0   2 -14   75.49   28.90
   0   2  14   71.49   31.30
   0   2  14  101.79   33.10
  -1  -2 -14  145.69   32.80
  -1   2  14  202.48   39.90
  -1   2  14  148.99   40.80
   1  -2  14  139.19   40.20
   1   2 -14  115.59   31.20
  -1  -2  14   90.49   30.70
   1   2  14  204.08   42.40
   1   2  14  173.18   36.90
  -1   2 -14  125.19   33.40
   1  -2 -14  195.28   37.80
  -2  -2 -14   -7.30   15.90
   2  -2  14   10.90   24.10
  -2   2  14   15.20   22.50
  -2   2  14   10.50   26.10
   2   2  14   23.40   24.40
   2   2  14  -10.50   22.80
  -2  -2  14  -24.60   21.70
  -2   2 -14   -2.80   22.40
  -2  -2  14  -24.90   20.20
   0   3 -14   26.20   22.80
   0   3  14   57.49   30.50
   0  -3 -14   51.39   22.70
   0  -3  14   66.39   33.20
   0   3  14   46.40   27.40
   1  -3  14    2.30   26.30
  -1  -3 -14  -11.60   15.90
   1   3 -14   34.30   22.90
  -1   3  14   39.50   26.50
  -1   3  14  -19.40   23.00
  -1   3 -14  -19.40   22.50
   1  -3 -14   18.80   24.00
   1   3  14    9.40   23.90
  -1  -3  14  -29.50   24.50
   1   3  14  -27.60   20.10
   0   0 -15  -19.10   20.50
   0   0  15  -26.50   25.70
   0   0   0    0.00    0.00

_computing_structure_solution     'SHELXT 2014/5 (Sheldrick, 2014)'
;
_shelx_hkl_checksum              33086
loop_
_space_group_symop_operation_xyz
'x, y, z'
'-x, -y, z+1/2'
'x+1/2, -y, z'
'-x+1/2, y, z+1/2'
loop_
_atom_site_type_symbol
_atom_site_label
_atom_site_fract_x
_atom_site_fract_y
_atom_site_fract_z
_atom_site_U_iso_or_equiv
_atom_site_adp_type
_atom_site_calc_flag
_atom_site_occupancy
Zr Zr1 0.42359(16) 0.33495(13) 0.50035(17) 0.0260(4) Uani d 1
Cl Cl2 0.0938(5) 0.3902(4) 0.3876(2) 0.0303(8) Uani d 1
Cl Cl3 0.2820(5) 0.1329(4) 0.6274(3) 0.0408(9) Uani d 1
Cl Cl1 0.5717(6) 0.1375(5) 0.3721(3) 0.0395(9) Uani d 1
Cl Cl4 0.7504(5) 0.3927(4) 0.6150(2) 0.0321(8) Uani d 1
loop_
_atom_site_aniso_label
_atom_site_aniso_U_11
_atom_site_aniso_U_22
_atom_site_aniso_U_33
_atom_site_aniso_U_12
_atom_site_aniso_U_13
_atom_site_aniso_U_23
Zr1 0.0210(5) 0.0289(6) 0.0282(6) -0.0003(5) -0.0002(6) 0.0007(7)
Cl2 0.0239(16) 0.0373(17) 0.0296(18) 0.0021(13) -0.0020(13) -0.0062(14)
Cl3 0.0396(19) 0.0415(18) 0.041(2) -0.0060(16) 0.0054(19) 0.0064(15)
Cl1 0.041(2) 0.0397(19) 0.038(2) 0.0059(15) 0.0033(15) -0.0104(15)
Cl4 0.0263(15) 0.0374(16) 0.032(2) -0.0036(14) -0.0052(15) 0.0069(14)
loop_
_atom_type_symbol
_atom_type_description
_atom_type_scat_dispersion_real
_atom_type_scat_dispersion_imag
_atom_type_scat_source
Cl Cl 0.1484 0.1585 'International Tables Vol C Tables 4.2.6.8 and 6.1.1.4'
Zr Zr -2.9673 0.5597 'International Tables Vol C Tables 4.2.6.8 and 6.1.1.4'
loop_
_geom_angle_atom_site_label_1
_geom_angle_atom_site_label_2
_geom_angle_atom_site_label_3
_geom_angle_site_symmetry_1
_geom_angle_site_symmetry_3
_geom_angle
Cl3 Zr1 Cl1 . . 100.76(13)
Cl3 Zr1 Cl2 . . 98.46(13)
Cl1 Zr1 Cl2 . . 94.12(13)
Cl3 Zr1 Cl4 . . 93.40(14)
Cl1 Zr1 Cl4 . . 98.47(12)
Cl2 Zr1 Cl4 . . 160.79(11)
Cl3 Zr1 Cl2 . 3_565 168.98(14)
Cl1 Zr1 Cl2 . 3_565 88.92(14)
Cl2 Zr1 Cl2 . 3_565 85.96(11)
Cl4 Zr1 Cl2 . 3_565 79.85(10)
Cl3 Zr1 Cl4 . 3_465 89.41(14)
Cl1 Zr1 Cl4 . 3_465 168.86(14)
Cl2 Zr1 Cl4 . 3_465 79.76(10)
Cl4 Zr1 Cl4 . 3_465 85.33(11)
Cl2 Zr1 Cl4 3_565 3_465 81.41(11)
Zr1 Cl2 Zr1 . 3_465 100.26(12)
Zr1 Cl4 Zr1 . 3_565 100.12(12)
loop_
_geom_bond_atom_site_label_1
_geom_bond_atom_site_label_2
_geom_bond_site_symmetry_2
_geom_bond_distance
Zr1 Cl3 . 2.311(4)
Zr1 Cl1 . 2.315(4)
Zr1 Cl2 . 2.501(4)
Zr1 Cl4 . 2.501(4)
Zr1 Cl2 3_565 2.662(4)
Zr1 Cl4 3_465 2.667(3)
Cl2 Zr1 3_465 2.662(4)
Cl4 Zr1 3_565 2.667(3)

_cod_database_fobs_code 2021030
