#------------------------------------------------------------------------------
#$Date: 2018-10-25 05:40:06 +0300 (Thu, 25 Oct 2018) $
#$Revision: 211615 $
#$URL: file:///home/coder/svn-repositories/cod/cif/2/02/12/2021284.cif $
#------------------------------------------------------------------------------
#
# This file is available in the Crystallography Open Database (COD),
# http://www.crystallography.net/. The original data for this entry
# were provided by IUCr Journals, http://journals.iucr.org/.
#
# The file may be used within the scientific community so long as
# proper attribution is given to the journal article from which the
# data were obtained.
#
data_2021284
loop_
_publ_author_name
'Owczarzak, Agata'
'Przyby\/l, Anna K.'
'Kubicki, Maciej'
_publ_section_title
;
 Different cationic forms of (--)-cytisine in the crystal structures of
 its simple inorganic salts
;
_journal_coeditor_code           YF3149
_journal_issue                   11
_journal_name_full               'Acta Crystallographica Section C'
_journal_page_first
;
;
_journal_paper_doi               10.1107/S2053229618012585
_journal_volume                  74
_journal_year                    2018
_chemical_absolute_configuration rmad
_chemical_formula_iupac          'C11 H15 N2 O +, Cl -, H2 O'
_chemical_formula_moiety         'C11 H15 N2 O +, Cl -, H2 O'
_chemical_formula_sum            'C11 H17 Cl N2 O2'
_chemical_formula_weight         244.71
_chemical_name_common
;
Cytisinium chloride monohydrate
;
_chemical_name_systematic
;
6-Oxo-7,11-diazatricyclo[7.3.1.0^2,7^]trideca-2,4-dien-11-ium chloride
monohydrate
;
_space_group_crystal_system      monoclinic
_space_group_IT_number           4
_space_group_name_Hall           'P 2yb'
_space_group_name_H-M_alt        'P 1 21 1'
_symmetry_space_group_name_Hall  'P 2yb'
_symmetry_space_group_name_H-M   'P 1 21 1'
_atom_sites_solution_hydrogens   difmap
_audit_creation_method           SHELXL-2013
_cell_angle_alpha                90
_cell_angle_beta                 108.559(3)
_cell_angle_gamma                90
_cell_formula_units_Z            2
_cell_length_a                   7.6327(2)
_cell_length_b                   10.4510(2)
_cell_length_c                   7.6553(2)
_cell_measurement_reflns_used    6830
_cell_measurement_temperature    100.0(10)
_cell_measurement_theta_max      28.7770
_cell_measurement_theta_min      3.2530
_cell_volume                     578.90(3)
_computing_cell_refinement
;
(CrysAlis PRO; Agilent, 2014)
;
_computing_data_collection
;
(CrysAlis PRO; Agilent, 2014)
;
_computing_data_reduction
;
(CrysAlis PRO; Agilent, 2014)
;
_computing_molecular_graphics
;
Mercury (Macrae <i>et al.</i>,  2008)
;
_computing_publication_material
;
SHELXL2014 (Sheldrick, 2015b)
;
_computing_structure_refinement
;
SHELXL2014 (Sheldrick, 2015b)
;
_computing_structure_solution
;
SHELXT (Sheldrick, 2015a)
;
_diffrn_ambient_temperature      100.0(10)
_diffrn_detector                 'CCD plate'
_diffrn_detector_area_resol_mean 16.1544
_diffrn_measured_fraction_theta_full 0.996
_diffrn_measured_fraction_theta_max 0.935
_diffrn_measurement_device       'four-circle diffractometer'
_diffrn_measurement_device_type  'Agilent Xcalibur Eos'
_diffrn_measurement_method       '\w scan'
_diffrn_radiation_monochromator  graphite
_diffrn_radiation_probe          x-ray
_diffrn_radiation_type           'Mo K\a'
_diffrn_radiation_wavelength     0.71073
_diffrn_reflns_av_R_equivalents  0.0343
_diffrn_reflns_av_unetI/netI     0.0297
_diffrn_reflns_limit_h_max       10
_diffrn_reflns_limit_h_min       -9
_diffrn_reflns_limit_k_max       13
_diffrn_reflns_limit_k_min       -14
_diffrn_reflns_limit_l_max       10
_diffrn_reflns_limit_l_min       -10
_diffrn_reflns_number            12838
_diffrn_reflns_theta_full        25.000
_diffrn_reflns_theta_max         29.054
_diffrn_reflns_theta_min         3.283
_diffrn_source                   'Enhance (Mo) X-ray Source'
_exptl_absorpt_coefficient_mu    0.318
_exptl_absorpt_correction_T_max  1.00000
_exptl_absorpt_correction_T_min  0.94783
_exptl_absorpt_correction_type   multi-scan
_exptl_absorpt_process_details
;
(CrysAlis PRO; Agilent, 2014)
;
_exptl_crystal_colour            colourless
_exptl_crystal_density_diffrn    1.404
_exptl_crystal_description       prism
_exptl_crystal_F_000             260
_exptl_crystal_size_max          0.3
_exptl_crystal_size_mid          0.2
_exptl_crystal_size_min          0.15
_refine_diff_density_max         0.304
_refine_diff_density_min         -0.180
_refine_ls_abs_structure_details
;
Flack <i>x</i> determined using 1146 quotients [(I+)-(I-)]/[(I+)+(I-)]
(Parsons <i>et al.</i>,  2013)
;
_refine_ls_abs_structure_Flack   -0.05(2)
_refine_ls_extinction_method     none
_refine_ls_goodness_of_fit_ref   1.036
_refine_ls_hydrogen_treatment    refall
_refine_ls_matrix_type           full
_refine_ls_number_parameters     213
_refine_ls_number_reflns         2796
_refine_ls_number_restraints     1
_refine_ls_restrained_S_all      1.035
_refine_ls_R_factor_all          0.0312
_refine_ls_R_factor_gt           0.0286
_refine_ls_shift/su_max          0.001
_refine_ls_shift/su_mean         0.000
_refine_ls_structure_factor_coef Fsqd
_refine_ls_weighting_details
'w=1/[\s^2^(Fo^2^)+(0.0399P)^2^+0.0651P] where P=(Fo^2^+2Fc^2^)/3'
_refine_ls_weighting_scheme      calc
_refine_ls_wR_factor_gt          0.0668
_refine_ls_wR_factor_ref         0.0682
_reflns_number_gt                2653
_reflns_number_total             2796
_reflns_threshold_expression     'I > 2\s(I)'
_cod_data_source_file            yf3149sup1.cif
_cod_data_source_block           5
_cod_database_code               2021284
_shelx_space_group_comment
;
The symmetry employed for this shelxl refinement is uniquely defined
by the following loop, which should always be used as a source of
symmetry information in preference to the above space-group names.
They are only intended as comments.
;
_shelx_hkl_file
;
   0   0   2 2426.54 364.176  16
   0   0  -2 2670.46 349.958   2
   0   0  -2 2060.96 339.547   8
   0   0  -2 1856.52 361.256   1
   0   0   2 2121.94 373.596   1
   0   0  -2 2778.63 294.798   9
   0   0   2 2569.67 412.199   8
   0   0   2 2179.12 312.184   2
   0   0  -2 2022.15 408.878  16
   0   0  -3 223604. 5753.76   8
   0   0   3 227728. 5759.00   8
   0   0  -3 223811. 5798.10  16
   0   0  -3 224881. 5526.14   9
   0   0   3 234014. 5668.86   2
   0   0   3 228792. 5796.37  16
   0   0  -3 225331. 5669.42   2
   0   0   3 220309. 5775.18   1
   0   0  -3 235344. 5800.78   1
   0   0  -4 60924.2 1869.16   9
   0   0   4 56919.4 2115.92   1
   0   0   4 61200.9 2122.72   8
   0   0  -4 59637.8 2161.01  16
   0   0  -4 59724.3 2032.83   2
   0   0   5-569.589 487.933   1
   0   0  -5 141.491 400.318   2
   0   0   5-110.039 362.055  10
   0   0  -5-260.088 366.008   9
   0   0  -5-16.0842 216.041  11
   0   0   5-728.011 566.545   8
   0   0  -5-250.947 517.502  16
   0   0   6 16476.6 1222.87   8
   0   0  -6 15377.2 1223.65  16
   0   0  -6 13071.5 1029.38   2
   0   0   6 13167.9 1153.37   1
   0   0  -6 14553.4 914.171   9
   0   0   6 16220.4 1005.20  10
   0   0   7 1604.37 497.553  10
   0   0  -7 972.607 533.250   2
   0   0  -7 2867.41 805.109  16
   0   0   7 1356.15 661.121   8
   0   0   7 443.283 543.688   1
   0   0   7 2451.73 576.139   6
   0   0   8-277.972 707.188   8
   0   0  -8 271.581 564.805   2
   0   0   8 867.110 1108.32   1
   0   0  -8 485.000 669.503  16
   0   0   8 513.094 750.565  13
   0   0   9 607.767 706.868   1
   0   0  -9 132.322 758.862  16
   0   0   9 362.095 760.993   8
   0   0   9 66.2406 982.169  13
   0  -1   1 27043.6 2438.45  16
   0   1   1 26876.3 2613.73  13
   0  -1  -1 2854.83 2554.57  14
   0   1   1-0.09990 2469.66   6
   0   1   1 8999.60 2558.66  14
   0  -1   1 32719.7 2432.91   1
   0  -1  -1 14654.4 2421.02   8
   0   1  -1 12238.8 2591.66   2
   0  -1  -1 3755.73 2506.28  10
   0   1   1 21786.3 2582.28   1
   0  -1  -1 37744.2 2646.33  16
   0  -1  -1 2741.97 2631.39   9
   0   1  -1 59.8764 2409.78  16
   0  -1  -1 44793.9 2668.76   1
   0  -1  -1-0.10083 2483.36   6
   0   1  -1 7796.60 2561.72  15
   0   1   1 15278.6 2498.56  10
   0   1   1 13264.0 2592.83  16
   0   1  -2 90368.9 2425.02   1
   0  -1  -2 91620.3 2414.19  11
   0   1   2 91485.3 2226.05   4
   0  -1  -2 91246.6 2311.39   2
   0   1   2 89625.9 2402.53   6
   0   1   2 89483.4 2605.73  13
   0  -1  -2 85896.8 2395.05  10
   0  -1  -2 94355.1 2577.71   1
   0  -1  -2 90133.3 2580.94  16
   0   1  -2 90612.9 2429.47  16
   0   1  -2 89035.2 2548.87   8
   0  -1  -2 90992.2 2477.96   9
   0   1   2 93117.3 2413.82   8
   0  -1   2 91797.6 2529.66   2
   0  -1  -2 90035.3 2397.23   8
   0   1   2 93906.4 2576.08  16
   0   1  -2 93484.5 2543.09   2
   0   1   2 90719.8 2406.31  10
   0  -1   2 91504.3 2581.88   8
   0  -1   2 91008.7 2432.57  16
   0   1   2 88576.9 2549.95   1
   0   1  -2 93260.3 2553.27  15
   0   1   2 95658.8 2582.64  14
   0  -1   2 89700.0 2410.68   1
   0   1   2 94843.0 2320.19   2
   0  -1  -3 210777. 5648.63  16
   0  -1   3 225222. 5574.03   2
   0  -1   3 217238. 5628.73   8
   0   1   3 220815. 5666.29  14
   0   1   3 215371. 5384.33  10
   0  -1  -3 218310. 5370.59  11
   0   1  -3 220530. 5625.31   8
   0   1   3 208065. 5680.18  13
   0   1   3 207246. 5619.84   1
   0   1   3 226441. 5348.36   2
   0   1   3 217915. 5103.82   4
   0   1   3 213899. 5400.31   6
   0   1  -3 218517. 5144.65   9
   0  -1  -3 222848. 5470.06   8
   0  -1   3 222893. 5520.17  16
   0  -1  -3 208979. 5442.62   9
   0  -1   3 210529. 5480.06   1
   0   1  -3 218137. 5508.39  16
   0   1   3 216688. 5461.72   8
   0   1  -3 216864. 5569.32   2
   0  -1  -3 216336. 5342.99   2
   0   1   4 81318.4 2452.29  10
   0   1   4 82281.9 2748.33   1
   0   1   4 81981.8 2483.73   6
   0  -1   4 83115.8 2618.07   1
   0  -1  -4 81633.6 2518.75   9
   0  -1   4 82413.2 2727.23   8
   0   1  -4 78232.1 2611.59  16
   0  -1  -4 84375.7 2466.10   2
   0  -1  -4 86121.3 2422.05  11
   0   1  -4 81138.7 2222.41   9
   0   1   4 80249.5 2572.89   8
   0   1   4 84123.8 2445.62   2
   0   1   4 82096.7 2102.39   4
   0   1  -4 79145.8 2630.82   2
   0  -1  -4 84201.7 2773.56  16
   0   1   5 21821.3 1119.32   6
   0   1   5 20164.7 1400.46  13
   0   1  -5 21045.7 895.580   9
   0  -1  -5 20057.6 1087.09   2
   0   1   5 20614.9 702.772   4
   0  -1  -5 20553.6 972.727  11
   0   1  -5 18661.4 1205.39  16
   0   1  -5 19759.9 1190.80   2
   0   1   5 20451.3 1296.68   1
   0   1   5 21582.5 1080.49  10
   0   1   5 23371.3 1266.46   8
   0  -1  -5 22518.4 1369.07  16
   0  -1   5 21519.4 1350.91   8
   0  -1  -5 19344.0 1072.68   9
   0  -1   5 20671.6 1224.63   1
   0   1   6 64639.8 2687.69   1
   0  -1   6 60556.5 2523.64   1
   0   1   6 63618.1 2346.91   6
   0  -1  -6 62109.6 2674.78  16
   0  -1  -6 65407.2 2356.56   2
   0   1  -6 66298.9 2042.98   9
   0   1   6 59582.9 2774.29  13
   0   1   6 66334.0 2319.48  10
   0  -1   6 60219.6 2608.42   8
   0   1  -6 65633.2 2632.39  16
   0   1  -6 65303.0 2552.99   2
   0  -1  -6 70193.8 2397.66   9
   0   1   6 68600.5 2590.57   8
   0  -1  -7 31646.3 1552.99   9
   0   1  -7 25902.9 1641.43   2
   0  -1   7 29007.3 1776.38   1
   0   1  -7 28564.7 1743.57  16
   0   1   7 26005.1 1461.99   6
   0   1   7 26986.1 1860.47   1
   0  -1   7 34049.8 1926.67   8
   0   1   7 29208.2 1484.42  10
   0   1   7 31470.1 1770.11   8
   0   1   7 29527.3 1961.30  13
   0  -1   7 31886.9 1534.66  10
   0  -1  -7 28203.6 1540.52   2
   0  -1  -7 29908.2 1869.08  16
   0   1  -8 46710.1 2456.18  16
   0   1   8 44122.9 2626.12  13
   0  -1   8 43000.3 2367.06   1
   0  -1  -8 46706.9 2564.18  16
   0  -1   8 47545.4 2522.32   8
   0   1   8 49852.0 2594.38   1
   0   1  -8 43912.2 2314.05   2
   0  -1  -9 7723.58 1234.63  16
   0  -1   9 5852.79 1027.28   1
   0  -1   9 5729.97 1086.47   8
   0   1   9 5135.49 1074.05   1
   0  -1   9 7472.97 1326.30  13
   0   1   9 3998.94 1087.79  13
   0   1  -9 7605.29 1202.02  16
   0   2   0 375370. 8037.45  12
   0  -2   0 374460. 8025.33  10
   0  -2   0 400036. 8041.57   5
   0  -2   0 378002. 8013.88  11
   0  -2   0 383958. 7972.12   9
   0  -2   0 386555. 7913.08   8
   0  -2   0 397881. 8052.51  12
   0  -2   0 377257. 7913.50   2
   0  -2   0 401233. 7802.28   1
   0  -2   0 390802. 7799.39  16
   0   2   0 387726. 7917.24   8
   0   2   0 415854. 8054.47  10
   0   2   0 399690. 8019.49  11
   0   2   1 215982. 5380.09   1
   0  -2  -1 220627. 5408.56  12
   0  -2  -1 222355. 5187.60   3
   0  -2  -1 226113. 5476.30  13
   0  -2   1 233094. 5170.79   9
   0  -2  -1 227196. 5393.40   1
   0   2   1 216597. 5381.70  14
   0  -2  -1 227435. 5439.50  11
   0   2  -1 221515. 5416.29   5
   0   2   1 216835. 5377.93  10
   0   2   1 219653. 5364.83   6
   0  -2   1 228495. 5293.41  11
   0   2  -1 216675. 5430.44   2
   0   2   1 216390. 5386.06  16
   0  -2  -1 209940. 5376.44  16
   0   2   1 211291. 5416.45  11
   0   2   1 216643. 5456.96  13
   0   2   1 221640. 5417.14  12
   0  -2   1 235526. 5452.35   2
   0  -2   1 238071. 5469.77   8
   0   2  -1 221776. 5279.33  11
   0  -2  -1 228119. 5373.70   6
   0   2  -1 205827. 5433.74  12
   0  -2   1 226976. 5472.49  12
   0  -2  -1 226832. 5458.76   9
   0   2   1 220293. 5183.47   3
   0   2  -1 228726. 5451.39   8
   0  -2  -1 222121. 5394.05  14
   0  -2  -1 231593. 5409.68  10
   0  -2  -2 355484. 8317.89  11
   0   2   2 338946. 8059.17   3
   0   2   2 360858. 8387.99  14
   0  -2  -2 354227. 8452.94  13
   0  -2   2 341601. 8421.65   8
   0  -2   2 348851. 8355.31  15
   0   2  -2 339763. 8096.66  16
   0  -2  -2 357783. 8278.10  10
   0   2  -2 354054. 8031.05  11
   0   2   2 342211. 8224.22   6
   0  -2   2 343600. 8088.92   1
   0   2   2 344061. 8399.32   1
   0  -2   2 362349. 8417.55   2
   0   2   2 331365. 7949.11   2
   0   2   2 361504. 8420.38  16
   0  -2  -2 344681. 8394.84   1
   0  -2  -2 349786. 8096.39   8
   0   2   2 340746. 8438.51  13
   0   2  -2 348782. 8415.57   2
   0  -2  -2 336638. 8359.31  14
   0  -2  -2 353709. 7951.58   2
   0  -2  -2 340147. 8081.08   4
   0  -2  -2 326704. 8355.29   9
   0   2  -2 351568. 8433.33   8
   0  -2  -2 344597. 8413.35  16
   0  -2  -2 359507. 8253.70   6
   0   2   2 339302. 8251.77  10
   0  -2   2 349896. 8109.16  16
   0   2   3 69326.4 2088.77  10
   0  -2  -3 66523.8 2289.50  16
   0   2   3 70089.0 2344.88  13
   0  -2  -3 64024.3 1986.50   8
   0   2   3 69764.1 2073.42   6
   0  -2   3 69616.2 2042.94  16
   0  -2  -3 66763.2 1855.01   2
   0  -2  -3 68680.2 2196.09   9
   0   2  -3 69843.9 2058.62  16
   0  -2  -3 67445.7 2082.77  10
   0  -2   3 65808.2 2019.06   1
   0  -2  -3 68651.2 2105.36  11
   0   2   3 73398.8 1879.01   2
   0   2  -3 71664.7 2305.31   2
   0  -2  -3 67712.1 1829.11   4
   0  -2   3 64906.2 2281.33   8
   0   2   3 69382.8 2302.14   1
   0   2  -4 195011. 5243.68   2
   0  -2   4 185022. 5264.20   8
   0  -2  -4 184187. 5075.26   9
   0  -2  -4 184215. 4913.70   8
   0   2   4 186398. 4933.21  10
   0  -2   4 183438. 4984.36   1
   0   2  -4 186117. 4985.57  16
   0  -2  -4 186538. 4752.93   2
   0  -2  -4 189285. 4956.03  11
   0   2   4 185829. 5271.88   1
   0   2   4 198376. 4770.29   2
   0   2   4 187889. 4931.97   6
   0  -2  -4 184868. 5275.23  16
   0   2   4 193086. 5354.80  13
   0   2   5 8262.91 984.428  13
   0   2  -5 10111.3 952.814   2
   0   2   5 9247.37 769.724   6
   0   2   5 8597.76 725.942  10
   0   2  -5 8141.93 801.785  16
   0  -2  -5 9959.84 976.728  16
   0   2   5 9097.24 949.646   1
   0  -2   5 10904.6 1051.89   8
   0   2   5 11019.4 702.238   2
   0  -2   5 11300.8 884.359   1
   0  -2  -5 12517.1 755.782   2
   0  -2  -5 11358.4 895.492   9
   0   2   6 28010.9 1689.68   1
   0   2  -6 27009.1 1597.98   2
   0  -2   6 27710.7 1701.40   8
   0   2   6 28729.9 1809.23  13
   0  -2   6 27086.8 1481.86   1
   0   2  -6 26741.7 1531.12  16
   0   2   6 27464.7 1379.43   6
   0  -2  -6 25043.0 1653.86  16
   0   2   6 25973.1 1330.94  10
   0  -2  -6 25933.2 1271.60   2
   0  -2  -6 27871.5 1469.52   9
   0  -2  -7 21603.6 1380.05   9
   0   2  -7 20949.7 1476.07  16
   0   2  -7 22335.9 1540.70   2
   0   2   7 21023.3 1250.27  10
   0   2   7 22508.7 1755.56  13
   0   2   7 21023.9 1574.71   1
   0  -2  -7 22424.0 1678.44  16
   0   2   7 23146.7 1314.68   6
   0  -2  -7 20649.5 1208.69   2
   0  -2   7 20669.4 1590.11   8
   0  -2   7 20014.4 1417.48   1
   0   2  -8 17137.6 1459.11   2
   0  -2  -8 16922.8 1596.42  16
   0  -2   8 19944.1 1708.75   8
   0   2   8 17515.8 1706.92  13
   0   2   8 17322.3 1565.42   1
   0  -2   8 15884.0 1391.79   1
   0   2  -8 15424.6 1419.24  16
   0   2   9 10495.9 1549.95  13
   0  -2  -9 11016.1 1455.63  16
   0  -2   9 7572.43 1104.11   1
   0   2  -9 10555.7 1230.91  16
   0  -2   9 10919.6 1394.48   8
   0   2  -9 8683.94 1221.16   2
   0   2   9 11684.1 1432.64   1
   0  -3   0-27.1064 317.882  10
   0  -3   0-25.3722 402.811   5
   0   3   0-252.577 347.906  11
   0  -3   0 162.958 239.865   2
   0   3   0-107.102 360.566  12
   0   3   0 261.916 194.893   1
   0   3   0 204.544 267.351   2
   0  -3   0-96.9605 268.712   8
   0  -3   0-18.8043 323.232   9
   0  -3   0 203.218 354.153  12
   0  -3   0 616.284 191.977   1
   0   3   0 38.7935 225.705   8
   0  -3   0 969.724 205.676  16
   0  -3   0-7.60910 223.505  11
   0  -3   0 204.531 273.221   3
   0  -3   1 59782.7 1863.33   8
   0  -3  -1 60384.2 1911.43   9
   0   3  -1 56413.4 1909.84  12
   0  -3  -1 62858.0 1890.34  10
   0  -3   1 61084.1 1652.01   9
   0   3   1 59050.6 1623.70   3
   0   3  -1 57978.4 1867.30   5
   0  -3  -1 62869.6 1941.98  13
   0  -3  -1 61988.9 1844.87  14
   0   3   1 54725.2 1877.22  11
   0   3  -1 59925.6 1857.58   8
   0  -3  -1 62781.6 1565.40   2
   0  -3  -1 61348.7 1894.39  11
   0   3   1 60499.3 1887.07  12
   0  -3  -1 58829.1 1628.86   3
   0   3  -1 60853.1 1876.78   2
   0  -3   1 59137.6 1869.38   2
   0   3  -1 57590.5 1761.04  11
   0   3   1 58415.7 1921.43  13
   0  -3  -1 64477.9 1859.91   6
   0  -3   1 64592.3 1955.90  12
   0  -3  -1 61672.4 1889.47  12
   0  -3   1 59579.8 1759.26  11
   0  -3  -1 60073.8 1792.14  16
   0   3   1 60766.1 1789.57   1
   0   3   1 60938.2 1873.40  10
   0  -3  -1 62937.6 1791.78   1
   0   3   2 440.751 371.585   1
   0  -3   2 1232.42 406.360   2
   0  -3  -2 590.465 344.638   1
   0  -3   2 188.389 441.497   8
   0  -3  -2 623.445 462.641   9
   0   3   2 675.505 177.245   3
   0  -3   2 855.201 174.383   1
   0  -3  -2 867.804 307.725  10
   0   3  -2 713.838 383.397   8
   0   3  -2 609.908 255.250  11
   0  -3  -2 1215.16 337.098  12
   0  -3  -2 643.027 423.297  14
   0  -3  -2 1044.57 322.614  11
   0   3   2 556.088 441.126  13
   0   3   2 479.819 342.444  10
   0   3   2 709.761 343.567  14
   0   3   2 370.594 309.366   6
   0   3  -2 983.364 443.513  12
   0   3  -2 842.892 184.009  16
   0  -3  -2 1202.26 323.932   6
   0  -3   2 252.202 385.645  15
   0  -3  -2 319.874 404.285  13
   0  -3  -2 1137.83 426.686  16
   0   3  -2 568.094 461.689   2
   0   3   3 193279. 4994.63  10
   0   3  -3 192134. 4655.83  11
   0  -3   3 186430. 4738.90   1
   0  -3  -3 187993. 4731.89   4
   0  -3   3 190812. 5238.26   8
   0   3  -3 195612. 5227.42   2
   0  -3  -3 186456. 5145.35  14
   0   3   3 198479. 5234.62   1
   0   3   3 190853. 5259.96  13
   0  -3  -3 196430. 5175.77   9
   0  -3  -3 192069. 4962.60   6
   0   3  -3 189998. 4773.04  16
   0  -3  -3 193254. 4753.05   8
   0  -3  -3 192358. 4522.75   2
   0   3   3 194060. 4706.29   3
   0  -3   3 186527. 5106.42  15
   0   3   3 193747. 4957.70   6
   0  -3  -3 187824. 5198.81  16
   0  -3  -3 184143. 4989.10  10
   0  -3  -4 46240.2 1638.76   8
   0   3   4 45629.6 1754.05  10
   0   3   4 45574.2 1713.67   6
   0  -3   4 50413.8 1695.03   1
   0  -3  -4 43894.5 1984.21  16
   0   3   4 47687.0 2073.58  13
   0  -3  -4 48950.2 1941.87   9
   0   3   4 48050.7 1581.63   3
   0  -3  -4 51871.8 1464.45   2
   0   3  -4 51465.8 1720.42  16
   0   3   4 48847.0 1451.63   2
   0   3  -4 47423.3 1996.58   2
   0   3  -4 46375.6 1383.43  11
   0   3   4 47807.1 2011.17   1
   0  -3   4 46882.1 2039.75   8
   0   3   5 1620.13 318.397   2
   0  -3  -5 1905.49 603.689   9
   0   3   5 2019.32 488.191  10
   0  -3   5 2165.39 462.532   1
   0  -3   5 2444.04 759.686   8
   0   3  -5 1936.05 590.198   2
   0   3  -5 2222.66 227.105  11
   0  -3  -5 2811.10 380.392   2
   0   3   5 2285.74 459.036   6
   0  -3  -5 2051.90 714.425  16
   0   3   5 1044.21 581.666   1
   0   3  -5 2058.33 483.016  16
   0   3   5 1508.29 721.437  13
   0   3   6 26622.0 1381.14  10
   0  -3   6 26784.2 1735.44   8
   0  -3  -6 28782.8 1774.08  16
   0  -3   6 25570.9 1416.46   1
   0   3   6 26891.2 1382.43   6
   0   3   6 26738.1 1719.52   1
   0   3   6 26411.6 1748.66  13
   0  -3  -6 28282.7 1214.19   2
   0   3  -6 27030.5 1471.70  16
   0   3  -6 27631.0 1695.85   2
   0  -3  -6 26741.0 1569.04   9
   0  -3  -7 5932.75 995.465  16
   0   3   7 7709.97 783.988   6
   0   3  -7 7082.71 908.736  16
   0  -3  -7 7587.44 946.727   9
   0   3   7 7473.20 1163.85  13
   0   3   7 6901.78 773.918  10
   0   3  -7 8016.69 1062.73   2
   0  -3   7 7570.67 872.272   1
   0   3   7 8035.41 1134.96   1
   0  -3   7 6683.61 1088.78   8
   0  -3   8 2068.33 674.279   1
   0   3   8 4220.21 996.978   1
   0   3  -8 3002.06 742.630  16
   0  -3   8 1956.09 837.143   8
   0  -3  -8 2474.41 755.239   9
   0  -3  -8 2898.42 987.301  16
   0   3   8 2018.78 946.182  13
   0   3  -8 2077.43 801.690   2
   0   3  -9 23282.7 1911.45   2
   0  -3   9 23126.3 2043.66   8
   0   3   9 28559.8 2262.27  13
   0   4   0 720726. 16338.5   1
   0   4   0 702478. 16791.5  12
   0  -4   0 723334. 16545.1   8
   0  -4   0 714546. 16760.2  10
   0  -4   0 696263. 16558.8   3
   0   4   0 692832. 16713.3  11
   0  -4   0 706439. 16334.6   1
   0   4   0 713822. 16556.9   2
   0  -4   0 715358. 16550.7   2
   0  -4   0 727330. 16795.7  12
   0  -4   0 711987. 16347.0  16
   0  -4   0 705128. 16646.4   9
   0  -4   0 711471. 16770.6   5
   0   4   0 732057. 16560.3   8
   0  -4   0 732134. 16748.2  11
   0  -4   0 714429. 16791.8  13
   0   4   1 38574.4 1229.59   3
   0  -4  -1 44516.3 1508.19   6
   0   4  -1 36727.4 1508.95  12
   0  -4  -1 40011.4 1358.65   1
   0   4   1 38794.8 1503.43  10
   0   4  -1 37772.3 1454.78   2
   0  -4  -1 41227.5 1464.54  14
   0  -4   1 38106.1 1511.96   5
   0  -4   1 42443.9 1585.60  12
   0  -4   1 38657.3 1488.77  10
   0  -4   1 41269.3 1308.23   9
   0   4   1 37289.3 1344.85   1
   0   4  -1 38857.5 1477.83   5
   0  -4  -1 42145.4 1541.90  12
   0  -4  -1 41111.0 1259.82   3
   0  -4   1 44620.3 1512.94   2
   0  -4  -1 40045.8 1539.68   9
   0  -4  -1 39458.2 1367.81  16
   0   4   1 37783.3 1492.71  12
   0  -4  -1 38056.5 1060.36   7
   0  -4   1 42718.4 1437.35  11
   0   4  -1 35526.2 1410.74   8
   0   4   1 36763.8 1508.08  11
   0  -4   1 36772.8 1428.46   8
   0  -4  -1 41013.0 1231.38   8
   0   4  -1 36308.6 1364.48  11
   0  -4  -1 41139.8 1195.10   2
   0   4   1 36909.6 1535.24  13
   0  -4  -1 40849.6 1510.53  10
   0   4   2 52084.5 1871.94   6
   0   4   2 55128.3 1980.35  12
   0   4   2 57772.7 1960.55  10
   0   4  -2 58772.2 2059.76   2
   0   4   2 58230.0 1609.31   3
   0  -4   2 55907.7 2014.94   8
   0   4  -2 57362.4 1774.43  11
   0   4   2 60583.3 2119.53  13
   0  -4   2 61087.3 1821.16  11
   0   4   2 53509.1 1930.04   1
   0   4  -2 59619.7 2088.21  12
   0  -4  -2 57665.4 1971.65  14
   0  -4  -2 58675.8 1969.54  16
   0  -4   2 58810.7 1562.79   9
   0  -4  -2 54699.2 1428.71   2
   0  -4  -2 56603.6 1593.72   3
   0  -4  -2 61321.8 1935.99   6
   0  -4  -2 54658.7 2053.98   9
   0   4  -3 60832.6 1735.38  16
   0   4   3 61110.9 2315.48  13
   0   4   3 62116.3 1759.84   3
   0  -4  -3 63105.6 1802.36   8
   0  -4   3 59132.9 2267.98   8
   0  -4  -3 65873.3 2323.82  16
   0   4   3 57995.9 2041.10   6
   0   4  -3 59848.7 2288.56   2
   0   4   3 62139.4 2138.66  10
   0  -4  -3 64581.1 2255.29  14
   0  -4   3 61606.1 1722.95   1
   0  -4  -3 63771.1 2302.27   9
   0   4  -3 60601.5 2274.26  12
   0  -4   3 63428.5 2201.45  15
   0  -4  -3 62377.6 1934.71   4
   0   4  -3 59611.3 1827.57  11
   0   4   3 60422.8 2232.56   1
   0   4   4 87726.7 2743.40   6
   0   4  -4 89672.4 3032.01  12
   0  -4   4 85586.3 2482.79   1
   0  -4   4 81077.4 3016.37   8
   0  -4   4 80950.2 2892.44  15
   0   4   4 86344.4 3096.37  13
   0   4   4 85255.5 2411.18   3
   0   4   4 88830.3 3049.88   1
   0  -4  -4 81011.4 2942.24  14
   0   4  -4 88730.5 2522.43  16
   0  -4  -4 83931.1 2467.24   8
   0   4  -4 85821.0 3036.87   2
   0  -4  -4 85089.6 2465.66   4
   0   4  -4 85055.4 2335.39  11
   0   4   4 86315.3 2787.41  10
   0  -4  -4 86263.1 2153.45   2
   0  -4  -4 80718.4 2940.83   9
   0  -4  -4 86498.1 3041.40  16
   0   4  -5 5040.35 831.381   2
   0  -4  -5 6809.45 416.223   2
   0  -4   5 6565.53 621.924   1
   0  -4  -5 7994.11 920.182   9
   0  -4   5 8679.05 1071.57   8
   0   4   5 6104.25 852.147   1
   0   4  -5 5689.78 888.557  12
   0   4   5 5580.54 507.399   3
   0   4   5 6544.38 699.696   6
   0   4   5 5844.25 910.444  13
   0   4  -5 5829.03 372.347  11
   0   4   5 6145.11 700.589  10
   0  -4  -5 7052.65 937.598  16
   0   4  -5 5302.07 596.894  16
   0   4   6 3447.27 894.960  13
   0   4   6 1670.26 488.391  10
   0   4  -6 2177.06 500.093  16
   0  -4  -6 2175.10 685.502   9
   0   4   6 3457.90 581.453   6
   0   4  -6 2182.13 665.374   2
   0  -4   6 2869.54 803.078   8
   0  -4   6 1571.85 464.821   1
   0  -4  -6 1306.93 638.583  16
   0   4   6 2858.50 705.341   1
   0   4   7 7699.76 1138.16  13
   0  -4   7 6593.47 1147.76   8
   0  -4  -7 6966.93 1084.83  16
   0   4  -7 7528.53 1079.67   2
   0   4   7 7005.39 827.756   6
   0  -4   7 6024.03 789.995   1
   0   4   7 6821.06 810.534  10
   0  -4  -7 6515.69 964.213   9
   0   4  -7 6645.84 813.609  16
   0   4   7 7823.25 1136.96   1
   0  -4   8 9806.62 1297.79   8
   0  -4  -8 10495.3 1402.81  16
   0   4   8 10536.9 1389.38  13
   0   4   8 11915.2 1409.13   1
   0  -4  -8 8437.23 1145.83   9
   0   4  -8 8850.67 1227.98   2
   0   4  -8 8427.21 1176.46  12
   0  -5   0 97.8842 269.748   2
   0   5   0 313.941 406.811  11
   0  -5   0-128.352 304.799   3
   0  -5   0 244.913 200.198  16
   0  -5   0-71.1776 298.150   8
   0  -5   0-142.775 190.728   1
   0   5   0-88.0438 189.842   1
   0  -5   0-39.4038 487.342   5
   0   5   0-213.797 384.663  12
   0  -5   0 224.967 353.841   9
   0   5   1 25983.9 1255.68  10
   0   5  -1 24798.9 809.945   7
   0  -5  -1 23930.9 1034.43  16
   0   5   1 25251.2 1047.08   1
   0  -5   1 24791.6 1038.28   9
   0   5  -1 26141.1 1308.29  12
   0   5  -1 24061.0 1133.34  11
   0  -5  -1 23893.9 972.837   3
   0  -5   1 25823.3 1168.66   8
   0  -5  -1 25492.5 1254.92   9
   0   5   1 22854.3 1210.38  11
   0  -5  -1 23798.6 904.147   2
   0   5   1 22054.1 1185.01  12
   0  -5  -1 24554.1 1031.63   1
   0   5  -1 22824.2 1162.98   2
   0  -5   1 24626.4 1155.32   3
   0  -5   1 23661.8 1236.88   5
   0  -5  -1 25704.9 954.101   8
   0   5   2 13686.3 605.556   3
   0   5   2 11536.7 816.747   1
   0   5   2 10208.6 846.880  12
   0   5  -2 12873.6 763.654  11
   0   5  -2 13094.8 939.193   2
   0  -5   2 12274.2 911.598   8
   0  -5   2 11987.1 617.589   9
   0   5   2 13604.2 1000.26  13
   0  -5  -2 11037.2 930.415   9
   0  -5  -2 12278.9 845.162  16
   0   5   2 12307.6 950.722  11
   0   5  -2 14650.4 1006.46  12
   0   5   2 12216.4 887.350  10
   0  -5  -2 11654.7 471.933   2
   0  -5  -2 12193.0 870.415  14
   0  -5   2 12280.3 769.730  11
   0  -5  -2 12119.6 604.148   3
   0  -5   3 6880.19 843.390   8
   0  -5  -3 5753.56 706.284  16
   0   5   3 7667.79 714.945   6
   0  -5  -3 7113.98 451.595   8
   0   5  -3 7403.80 850.363   2
   0   5   3 6618.30 723.424   1
   0   5   3 6067.36 671.456  10
   0  -5  -3 6813.02 786.656  14
   0  -5   3 6033.85 309.000   1
   0   5   3 6709.63 805.789  13
   0   5  -3 7117.56 813.602  12
   0   5   3 6619.25 420.265   3
   0   5  -3 6493.08 324.911  16
   0  -5  -3 6592.42 796.251   9
   0   5  -3 6408.35 524.315  11
   0  -5   3 6692.71 708.657  15
   0   5  -4 26154.6 1639.82   2
   0   5  -4 31645.9 1128.27  16
   0  -5   4 31402.1 1104.61   1
   0  -5   4 31458.6 1746.28   8
   0   5   4 29350.5 1088.55   3
   0  -5  -4 29884.0 1278.79   4
   0  -5  -4 30021.2 1662.26   9
   0  -5  -4 33259.2 1698.63  14
   0   5  -4 31296.5 1174.37  11
   0   5   4 31378.1 1521.68  10
   0   5   4 30969.1 1662.02   1
   0   5   4 26987.8 1631.80  13
   0   5   4 30180.8 1451.44   6
   0  -5  -4 29785.6 1145.27   8
   0   5  -4 29437.0 1666.98  12
   0  -5   4 32597.1 1597.30  15
   0  -5  -4 32429.6 1705.62  16
   0  -5  -5 25859.8 1129.63   4
   0   5   5 26847.1 1733.19  13
   0  -5   5 26795.8 1726.90   8
   0   5  -5 25045.5 1639.72   2
   0   5  -5 25496.4 958.783  11
   0   5   5 24349.3 1387.57  10
   0  -5  -5 24652.3 1634.09  16
   0   5   5 24437.9 1351.23   6
   0  -5   5 27538.6 1164.28   1
   0  -5  -5 24964.1 1604.59   9
   0   5  -5 26159.2 1175.65  16
   0   5  -5 25377.1 1628.19  12
   0   5   5 23890.5 1631.12   1
   0   5  -6 68784.9 2414.81  16
   0  -5  -6 65092.5 2882.37   9
   0   5  -6 65487.9 2986.45   2
   0  -5  -6 61693.4 2958.77  16
   0  -5   6 68550.5 3068.37   8
   0   5   6 70632.2 3087.86   1
   0   5   6 71480.9 2670.64  10
   0   5   6 68871.3 2590.02   6
   0   5  -6 70547.8 2962.01  12
   0   5   6 64513.4 3035.54  13
   0  -5   6 68612.4 2378.35   1
   0  -5  -7 27877.6 1992.88  16
   0  -5  -7 28638.4 1914.90   9
   0   5   7 27060.7 1956.33   1
   0   5  -7 27424.6 1937.39   2
   0   5   7 27683.5 2000.68  13
   0   5  -7 25599.2 1852.07  12
   0  -5   7 28585.0 2022.27   8
   0   5   7 27191.8 1597.75  10
   0   5  -8 12822.6 1427.01  12
   0  -5   8 13436.8 1584.66   8
   0   5   8 11406.3 1440.48   1
   0  -5  -8 11996.7 1368.02   9
   0   5   8 14422.7 1617.26  13
   0   5  -8 13241.5 1510.82   2
   0  -5  -8 13166.8 1563.07  16
   0  -5  -9 14599.6 1645.54   7
   0   6   0 57509.0 2243.92  12
   0  -6   0 57375.6 2107.92   9
   0  -6   0 58157.6 1960.85   8
   0  -6   0 59279.3 1728.02  16
   0   6   0 60594.7 2212.23  11
   0  -6   0 58409.7 2007.72   3
   0  -6   0 55960.2 1944.06   2
   0  -6   0 58237.3 2264.85   5
   0   6   0 61885.9 1741.46   1
   0  -6  -1 189868. 4867.79   3
   0   6   1 188485. 4900.88   1
   0  -6   1 193207. 5130.88   8
   0   6  -1 190838. 5154.19   2
   0  -6   1 187702. 5290.99   5
   0  -6   1 185929. 4966.43   9
   0   6   1 179567. 5272.81  11
   0  -6  -1 183189. 5229.22   9
   0   6   1 189998. 5310.70  12
   0   6  -1 187795. 4495.67   7
   0   6  -1 189885. 4498.47   7
   0  -6  -1 194343. 4823.94   8
   0   6   1 176315. 5225.05  10
   0  -6   1 186516. 5137.62   3
   0  -6  -1 186255. 4768.97   2
   0   6  -1 190592. 5151.54  11
   0   6  -1 186063. 5328.89  12
   0  -6  -1 191448. 4907.22  16
   0  -6  -1 185208. 4880.44   1
   0   6   2 77765.3 2850.35  11
   0   6   2 83428.6 2832.24  10
   0  -6   2 80137.5 2796.91   8
   0  -6  -2 81917.3 2894.14   9
   0   6   2 82574.5 2334.02   3
   0   6   2 78139.3 2901.29  13
   0   6  -2 73145.9 2788.89   2
   0  -6  -2 86368.9 2297.60   8
   0   6  -2 83226.0 2916.06  12
   0  -6  -2 79994.8 2185.66   7
   0   6   2 87158.1 2710.56   1
   0  -6   2 78293.6 2370.69   9
   0  -6  -2 81931.8 2190.93   7
   0  -6  -2 81283.2 2333.45   3
   0   6   2 81299.7 2841.20  12
   0  -6  -2 78895.3 2153.39   2
   0  -6  -2 85881.6 2703.26  16
   0  -6  -2 81425.5 2763.25  14
   0  -6   2 79961.6 2784.49   3
   0   6  -2 82053.6 2621.22  11
   0  -6   3 4530.98 796.313   8
   0  -6  -3 3594.89 721.811  14
   0  -6   3 4093.74 629.256  15
   0  -6   3 4440.31 363.550   9
   0   6  -3 3966.19 714.515   2
   0   6   3 3923.10 679.182  10
   0  -6  -3 5269.81 729.547  16
   0  -6  -3 5422.58 894.256   9
   0   6   3 3781.52 660.069   1
   0   6   3 4486.23 367.849   3
   0   6  -3 4717.74 790.713  12
   0   6   3 4300.81 774.617  13
   0   6  -3 3082.78 459.315  11
   0   6   4 21714.2 1325.39  10
   0  -6  -4 24911.0 1505.65  14
   0  -6   4 21588.4 1490.42   8
   0   6  -4 18955.5 1406.15   2
   0   6   4 22897.0 1455.37   1
   0   6   4 21556.5 1542.46  13
   0   6  -4 22048.0 773.549  16
   0  -6  -4 21232.9 902.333   8
   0  -6  -4 22181.7 1168.03   4
   0   6   4 22217.1 879.740   3
   0  -6  -4 22623.6 1551.47   9
   0   6  -4 22099.1 1036.01  11
   0  -6  -4 22667.2 1455.22  16
   0   6  -4 24069.4 1521.42  12
   0  -6   4 23512.9 1416.95  15
   0  -6  -5 20609.4 1083.70   4
   0  -6  -5 21203.8 1553.86   9
   0  -6   5 21458.5 1606.47   8
   0  -6  -5 19704.9 1470.02  16
   0   6  -5 20847.5 1518.66  12
   0  -6   5 21502.2 1445.25  15
   0   6   5 21134.7 1560.26  13
   0   6   5 19778.0 1311.39  10
   0   6  -5 18585.4 1475.19   2
   0   6   5 18503.1 1231.03   6
   0   6   5 21531.4 1514.65   1
   0   6   6 19922.4 1664.21  13
   0   6   6 21863.4 1663.85   1
   0   6  -6 18519.4 1579.22   2
   0   6   6 18025.9 1297.84  10
   0   6   6 19621.9 1296.39   6
   0  -6  -6 19968.8 1642.49  16
   0  -6   6 19097.4 1627.11   8
   0  -6  -6 19422.8 1560.59   9
   0   6  -6 18519.8 1555.80  12
   0   6  -7 4432.98 998.625  12
   0   6  -7 4616.26 1045.36   2
   0   6   7 3132.23 919.615  13
   0  -6  -7 5058.98 1055.46  16
   0  -6   7 3837.17 1027.49   8
   0   6   7 4491.37 995.030   1
   0  -6  -7 5082.95 1067.46   9
   0   6   7 4463.84 773.089  10
   0   6   8 3496.44 1052.66   1
   0  -6   8 5063.95 1234.83   8
   0  -6  -8 3356.87 990.148   9
   0   6  -8 4969.85 999.749  12
   0   6  -8 2334.17 872.438   2
   0  -6  -8 4348.03 1046.99  16
   0   6   8 3202.07 1042.71  13
   0  -6  -9 12535.6 1490.56   7
   0  -7   0 252.739 374.857   3
   0  -7   0 114.734 235.629  16
   0   7   0 187.036 498.759  12
   0  -7   0 134.081 373.333   8
   0  -7   0 436.317 611.248   5
   0  -7   0-600.050 517.569   9
   0   7   0-86.9133 434.522  11
   0  -7  -1 8932.91 934.410   9
   0  -7   1 9589.92 787.520   9
   0  -7  -1 11247.2 709.125   8
   0  -7  -1 9872.15 646.255   2
   0  -7  -1 9525.72 1017.17   5
   0  -7   1 10380.8 854.292   3
   0   7   1 10306.7 985.398  11
   0   7   1 8450.92 882.703  12
   0  -7   1 8749.13 936.522   5
   0  -7   1 9505.51 810.409   8
   0   7   1 8933.78 678.906   1
   0  -7  -1 9638.46 697.586   3
   0   7  -1 9189.80 936.378  12
   0  -7  -1 10727.3 730.980  16
   0   7  -1 9160.60 368.794   7
   0   7  -1 9318.18 372.255   7
   0   7  -1 8792.04 846.086  11
   0  -7   2 50600.6 2143.93   8
   0   7   2 52680.3 2269.00  12
   0   7   2 54167.3 2035.13   1
   0  -7  -2 51229.9 2264.02   9
   0   7  -2 50342.7 2268.78  12
   0  -7  -2 49165.5 1422.42   7
   0   7  -2 47638.1 2203.16   2
   0  -7  -2 48997.5 1968.98  16
   0   7   2 51884.3 2212.52  10
   0  -7   2 52367.2 1823.29   9
   0   7  -2 53487.7 2046.86  11
   0  -7   2 52590.5 2181.48   3
   0  -7  -2 54648.0 1760.18   3
   0  -7  -2 51779.1 1573.37   2
   0   7  -2 54363.9 1672.49   7
   0  -7  -2 52010.0 1438.38   7
   0  -7  -2 52967.5 2152.87  14
   0  -7  -2 54881.0 1702.57   8
   0   7  -3 3418.01 772.507  12
   0  -7  -3 3546.71 411.914   7
   0   7   3 3361.67 729.094  13
   0   7  -3 4176.31 578.917  11
   0   7   3 3443.75 366.255   3
   0  -7  -3 5226.15 754.715  16
   0  -7  -3 3420.15 715.252  14
   0   7  -3 4583.62 768.799   2
   0  -7  -3 2667.76 714.864   9
   0   7   3 3434.49 686.291  10
   0  -7  -3 4297.34 415.679   3
   0  -7   3 3620.22 780.076   8
   0   7   3 4499.40 710.073   1
   0  -7   3 3643.78 665.844  15
   0  -7  -3 4221.14 441.201   7
   0   7  -3 3748.15 513.034   7
   0  -7   3 3742.03 726.647   3
   0  -7  -3 4218.69 379.412   8
   0  -7   3 4463.55 452.183   9
   0   7   4 35593.0 1923.56   1
   0  -7   4 32463.4 1926.92   8
   0  -7  -4 36839.9 1657.69   4
   0  -7  -4 34275.2 1882.28  14
   0   7  -4 35753.0 2003.75  12
   0   7   4 36685.4 1843.88  10
   0  -7  -4 38879.7 1977.70  16
   0  -7  -4 34443.9 1990.25   9
   0   7  -4 36062.7 1514.35  11
   0   7  -4 34308.1 2035.55   2
   0   7   4 33172.5 1970.59  13
   0  -7   4 36067.6 1823.39  15
   0  -7  -5 1099.81 696.660  16
   0  -7  -5 700.990 780.522   9
   0   7   5 1146.26 528.027  10
   0   7  -5 2784.44 775.820   2
   0  -7  -5 1728.54 776.962  14
   0   7   5 640.432 550.011   1
   0  -7   5 882.300 574.271  15
   0   7   5 1033.75 675.228  13
   0   7  -5 651.881 609.708  12
   0  -7   5 793.237 742.071   8
   0  -7  -5 1774.87 460.590   4
   0  -7   6 2368.81 911.811   8
   0  -7  -6 2679.42 843.343  16
   0   7  -6 2453.23 824.357  12
   0   7   6 2801.35 639.327  10
   0  -7  -6 2607.03 921.795   9
   0   7   6 2107.87 766.639   1
   0   7   6 1450.44 819.261  13
   0   7  -6 2913.61 945.629   2
   0   7  -7 35507.6 2317.21  12
   0   7   7 34482.8 2282.18   1
   0  -7   7 36975.7 2441.25   8
   0  -7  -7 37563.0 2406.02  16
   0   7  -7 34227.0 2322.25   2
   0  -7  -7 34535.0 2260.29   9
   0   7   7 33961.2 1976.83  10
   0   7   7 33377.0 2326.07  13
   0  -7  -7 30469.8 1918.09   7
   0  -7   7 37751.4 2382.62   3
   0   7  -8 1011.31 794.446  12
   0   7  -8 1161.20 696.536   7
   0  -8   0 44788.5 1976.13   9
   0  -8   0 42029.6 1751.59   8
   0   8   0 43277.1 2127.32  12
   0  -8   0 43362.6 1819.03   3
   0   8   0 44682.3 2072.89  11
   0  -8   0 46472.1 2149.98   5
   0  -8   0 43176.1 1452.20  16
   0  -8   1 31074.8 1734.70   5
   0  -8  -1 26376.6 1205.06   8
   0   8   1 24821.6 1565.60  12
   0  -8   1 26820.6 1402.66   9
   0  -8  -1 26848.1 1279.53   3
   0  -8   1 29155.6 1466.58   8
   0  -8  -1 26928.6 1221.28  16
   0   8   1 26055.3 1571.71  11
   0   8   1 24013.7 1174.62   1
   0  -8  -1 25241.8 1558.38   9
   0  -8  -1 27837.0 1650.25   5
   0   8  -1 24143.0 1456.84  11
   0   8  -1 24592.7 1591.20  12
   0  -8   1 29210.7 1499.80   3
   0  -8   2 210.038 438.094   9
   0  -8  -2 474.080 585.536   9
   0   8  -2 522.796 217.583   7
   0   8  -2-258.287 668.182  12
   0  -8   2 703.848 494.250   3
   0  -8  -2 222.556 296.533   3
   0  -8  -2 385.093 572.633  14
   0  -8  -2-51.5648 425.958  16
   0   8   2-214.342 605.111  12
   0   8   2-220.798 528.293  10
   0   8   2-173.378 410.250   1
   0  -8   2-808.553 608.993   8
   0  -8  -2 133.793 269.994   8
   0   8  -2-483.803 527.178   2
   0   8  -2-106.859 458.257  11
   0   8  -3 24600.5 1624.85   2
   0   8   3 24914.5 1598.15  10
   0  -8  -3 24658.4 1570.41  14
   0  -8   3 26969.3 1151.83   9
   0  -8  -3 22750.0 1422.17  16
   0   8   3 25406.2 1499.50   1
   0   8  -3 24410.3 1664.60  12
   0  -8  -3 24253.3 1670.84   9
   0   8  -3 26402.8 1202.04   7
   0   8   3 24057.6 1669.49  13
   0  -8  -3 26767.6 1029.15   8
   0  -8  -3 27022.8 1091.08   3
   0   8  -3 22892.9 1323.89  11
   0  -8   3 24619.7 1610.59   8
   0  -8   3 25823.9 1611.66   3
   0   8  -4 57305.4 2677.44   2
   0  -8  -4 48192.4 2422.72  14
   0  -8  -4 51765.7 2404.27  16
   0   8   4 51790.9 2439.05  10
   0  -8  -4 52748.7 2228.26   4
   0  -8  -4 51662.5 2611.41   9
   0   8   4 52831.2 2444.44   1
   0   8  -4 55414.0 2147.20   7
   0   8  -4 55901.8 2101.64  11
   0  -8   4 51205.3 2360.96  15
   0   8  -4 53664.2 2605.60  12
   0   8   4 51773.1 2620.88  13
   0  -8   4 54217.4 2623.95   8
   0  -8   4 53818.4 2567.10   3
   0   8  -5 17369.2 1510.52  12
   0  -8  -5 17638.1 1587.93   9
   0  -8   5 18529.4 1641.39   8
   0  -8  -5 18803.3 1511.39  16
   0   8  -5 19543.0 1323.38   7
   0  -8  -5 18319.2 1554.02  14
   0   8   5 21059.7 1716.96  13
   0  -8  -5 20823.8 1272.96   4
   0   8  -5 16266.9 1577.55   2
   0  -8   5 19106.3 1438.39  15
   0   8   5 18914.5 1440.66  10
   0  -8   5 19245.8 1574.55   3
   0   8   5 17195.3 1483.53   1
   0  -8  -6 3679.92 928.746  16
   0   8   6 3964.29 1016.79  13
   0  -8   6 3264.62 805.186   3
   0   8   6 3478.02 972.900   1
   0   8   6 3659.52 785.914  10
   0  -8  -6 2956.92 976.751   9
   0   8  -6 2980.26 945.247   2
   0   8  -6 3025.84 866.173  12
   0  -8   6 2747.27 1002.27   8
   0   8  -6 3223.51 773.025   7
   0   8   7 2702.40 871.629   1
   0  -8   7 3304.71 914.718   3
   0  -8  -7 1978.16 877.131  16
   0   8   7 4121.46 1004.26  13
   0   8  -7 2898.75 838.250   7
   0  -8   7 2419.55 1080.38   8
   0   8  -7 3743.01 952.449  12
   0  -8  -7 3667.00 1132.92   9
   0   8  -8 1940.88 820.459   7
   0  -9   0-542.286 574.075   9
   0  -9   0 177.059 438.588   8
   0  -9   0 171.342 635.916   5
   0  -9   0 248.563 277.932  16
   0  -9   0 60.6345 405.654   3
   0   9   0 68.9789 530.459  11
   0   9   0-12.6742 569.411  12
   0  -9   1 8389.70 1030.54   5
   0   9   1 6724.61 922.202  12
   0  -9  -1 8753.49 1047.48   9
   0  -9  -1 7532.85 1037.47   5
   0  -9   1 6100.69 777.544   3
   0  -9   1 7375.15 860.117   9
   0   9   1 6724.19 910.727  11
   0   9   1 7663.00 673.433   1
   0   9  -1 7396.23 883.758  11
   0  -9   1 6998.85 826.848   8
   0  -9  -1 7737.95 668.370  16
   0  -9  -1 8183.03 694.286   8
   0   9  -1 6507.71 943.154  12
   0  -9  -1 8358.38 747.901   3
   0  -9  -2 26094.2 1405.67  16
   0  -9  -2 25661.3 1235.29   3
   0  -9   2 26166.7 1613.23   3
   0   9  -2 24628.4 1489.77  11
   0  -9   2 26129.0 1353.28   9
   0   9  -2 24452.0 1706.09  12
   0  -9  -2 25023.5 1578.68  14
   0   9   2 24560.8 1361.93   1
   0  -9  -2 25840.4 1717.21   9
   0  -9  -2 22965.6 1657.41   5
   0  -9  -2 25970.0 1153.10   8
   0   9   2 25033.5 1691.41  12
   0  -9   2 25588.4 1558.67   8
   0  -9   3 9566.08 1063.78   3
   0   9   3 7451.31 895.326   1
   0  -9   3 8042.09 1052.72   8
   0  -9  -3 7943.15 1135.65   9
   0  -9  -3 8549.95 1025.40  14
   0   9  -3 8969.06 877.605  11
   0   9  -3 7586.38 1024.09  12
   0  -9  -3 8356.85 896.130  16
   0   9   3 7724.56 1024.46  10
   0   9   4 3217.76 735.048   1
   0   9  -4 3435.88 603.451  11
   0   9   4 4377.32 833.164  10
   0  -9  -4 2725.04 683.340  16
   0  -9   4 4192.78 800.638  15
   0  -9  -4 3502.88 864.078  14
   0  -9  -4 3167.26 868.807   9
   0  -9  -4 3782.65 710.823   4
   0   9  -4 3813.45 865.043  12
   0   9   4 1905.11 686.818  13
   0  -9   4 1859.29 773.042   8
   0  -9   4 2716.71 813.327   3
   0  -9   5 7601.03 1032.85  15
   0   9  -5 8761.40 1249.76  12
   0  -9  -5 9152.50 1195.21  14
   0  -9   5 7731.84 1147.85   3
   0  -9  -5 8803.84 1147.78  16
   0   9   5 9286.36 1128.07  10
   0   9   5 9716.96 1288.11  13
   0  -9  -5 9617.40 1288.28   9
   0  -9   5 8717.58 1209.94   8
   0   9   5 9544.96 1187.19   1
   0  -9   6 7597.12 1265.27   8
   0   9   6 6451.01 1203.97  13
   0   9  -6 8406.13 1271.86  12
   0  -9   6 5934.97 1067.63   3
   0  -9  -6 5132.00 1000.87  16
   0   9   6 7541.46 1169.52   1
   0  -9  -6 7685.11 1335.47   9
   0   9   6 8364.30 1100.82  10
   0   9  -7 7564.71 1276.66  12
   0 -10   0 19890.3 1563.11   5
   0  10   0 18287.5 1528.03  12
   0 -10   0 15632.2 1167.90   3
   0 -10   0 16015.1 1313.95   9
   0  10   0 17979.2 1429.90  11
   0 -10   0 17433.2 1165.69   8
   0  10  -1 39537.7 2240.13  12
   0 -10   1 35580.7 1879.23   8
   0 -10   1 38165.0 2182.57   5
   0  10   1 40485.1 2262.63  12
   0 -10  -1 38425.5 2075.86  14
   0 -10  -1 39290.0 1792.53   3
   0  10  -1 38413.5 2069.05  11
   0 -10   1 38210.2 1980.41   3
   0 -10   1 40613.7 1980.61   9
   0 -10  -1 42309.5 1735.04   8
   0 -10  -1 39185.2 2232.89   5
   0 -10  -1 38037.9 2105.44   9
   0 -10  -2 61795.6 2391.99  16
   0 -10   2 58210.0 2602.83   8
   0 -10  -2 59461.9 2890.14   5
   0 -10   2 58813.7 2655.55   3
   0  10   2 58297.0 2332.50   1
   0 -10  -2 57805.4 2634.50  14
   0  10  -2 58535.8 2861.17  12
   0  10   2 54255.8 2730.38  12
   0 -10  -2 61541.2 2862.91   9
   0 -10   2 60354.1 2367.70   9
   0  10  -2 58235.8 2597.79  11
   0  10   3 11611.5 1081.01   1
   0 -10  -3 10519.7 1155.09  14
   0 -10   3 8649.39 1082.02   3
   0  10   3 9588.94 1182.56  12
   0 -10  -3 10007.4 1023.68  16
   0  10  -3 11775.7 1306.42  12
   0 -10  -3 11658.1 1341.78   5
   0  10  -3 11638.4 1071.65  11
   0 -10  -3 9676.98 1250.72   9
   0 -10   3 9890.43 1172.25   8
   0 -10   4 2729.13 934.792   8
   0 -10  -4 2682.15 755.100  16
   0 -10  -4 1640.68 643.551   4
   0  10  -4 3080.88 831.444  12
   0 -10   4 1837.64 719.919   3
   0 -10  -4 2307.73 840.627   9
   0  10   4 2512.38 754.748   1
   0 -10  -4 3134.78 833.632  14
   0  10   4 2127.58 773.269  10
   0 -10   4 2684.43 712.685  15
   0  10   5 10260.0 1231.17  10
   0 -10   5 9235.80 1278.44   8
   0  10  -5 8529.49 1248.90  12
   0 -10  -5 10479.6 1231.76  16
   0 -10   5 9234.61 1288.99   3
   0  10   5 12994.5 1523.58  13
   0 -10  -5 10346.5 1409.19   9
   0  10   5 8544.94 1163.77   1
   0 -10  -5 8935.87 1208.31  14
   0 -10   5 12124.6 1266.35  15
   0  10  -6 3120.67 1027.22  12
   0 -10  -6 2708.62 899.249  16
   0  10   6 1354.92 747.652  10
   0  10   6 1952.67 803.768   1
   0 -10   6 3284.50 1106.08   8
   0  11   0 697.556 702.909  12
   0 -11   0 245.264 443.042   8
   0 -11   0-58.6588 672.566   5
   0 -11   0-108.579 587.571   9
   0 -11   0-122.685 440.601   3
   0  11  -1 3356.24 918.792  12
   0 -11   1 2788.59 940.820   5
   0 -11  -1 3597.65 939.827   9
   0 -11   1 3013.29 687.550   8
   0  11   1 3366.64 832.640  12
   0 -11  -1 4971.94 919.115  14
   0 -11  -1 4613.10 1003.34   5
   0 -11   1 3975.49 785.900   9
   0 -11   1 4307.71 836.785   3
   0 -11   2 7258.20 983.041   8
   0 -11  -2 8090.89 1227.39   5
   0  11   2 7435.10 1118.01  12
   0  11  -2 8728.25 1041.62  11
   0 -11  -2 8040.69 1096.00  14
   0 -11   2 7310.19 989.128   3
   0  11  -2 6383.72 1125.23  12
   0 -11  -2 10001.4 1248.38   9
   0 -11   3 3561.16 860.162   8
   0  11  -3 4328.08 1071.63  12
   0 -11  -3 3484.41 923.243   9
   0 -11  -3 3754.91 968.420   5
   0 -11   3 1880.03 734.397   3
   0 -11  -3 4036.38 852.233  14
   0 -11  -4 19405.2 1651.67  14
   0 -11  -4 19147.7 1778.35   5
   0 -11  -4 17426.7 1449.04   4
   0 -11   4 17206.8 1488.62  15
   0  11  -4 18109.6 1716.45  12
   0 -11  -4 16839.2 1694.18   9
   0  11   4 19230.1 1531.05   1
   0 -11  -4 19408.8 1536.89  16
   0 -11   4 21517.6 1772.86   8
   0 -11   4 18109.5 1656.32   3
   0 -11   5 23109.3 1983.93   8
   0 -11   5 22963.9 1996.82   3
   0  11  -5 21272.6 1920.11  12
   0 -11  -5 23427.8 1889.65  14
   0 -11  -5 24145.1 1858.40  16
   0  11   5 22242.4 1785.73   1
   0 -11   5 22480.1 1742.27  15
   0 -11  -6 10570.2 1387.88  16
   0 -11  -6 9240.75 1377.64  14
   0  12   0 21668.0 1866.27  12
   0 -12   0 22222.8 1881.58   5
   0 -12   0 20315.3 1652.20   9
   0 -12  -1 6942.66 1106.69   9
   0  12  -1 7828.44 1185.16  12
   0 -12  -1 5824.18 987.831  14
   0 -12  -1 6235.47 1130.10   5
   0 -12   1 6436.70 969.841   9
   0  12   1 6778.21 1157.24  12
   0 -12   1 7155.68 967.865   3
   0 -12   2 5156.47 908.709   3
   0 -12  -2 4896.78 974.976  14
   0 -12  -2 3608.64 997.625   9
   0  12   2 2983.48 883.204  12
   0  12  -2 5981.28 1134.18  12
   0 -12   2 4639.84 911.875   8
   0 -12  -2 5010.19 1094.24   5
   0 -12  -3 15882.1 1695.62   5
   0 -12   3 16208.5 1541.28   8
   0 -12   3 16940.2 1576.32   3
   0 -12  -3 16093.1 1679.01   9
   0  12  -3 16972.8 1734.92  12
   0 -12  -3 15028.9 1520.31  14
   0 -12   4 4985.81 1175.92   8
   0 -12  -4 4736.91 974.586   4
   0 -12   4 3358.38 962.797   3
   0 -12  -4 3053.45 940.149  14
   0 -12  -5 1349.08 970.438  14
   0 -13   0 950.495 779.781   9
   0  13   0 283.874 824.391  12
   0 -13   0-1606.43 1027.44   5
   0 -13  -1 2191.05 965.355   9
   0 -13  -1 3266.92 905.119  14
   0  13   1 3316.76 940.401  12
   0 -13  -1 2796.80 1033.01   5
   0 -13  -2 1963.01 788.326  14
   0 -13   2 725.603 675.380   3
   0 -13  -2 2207.29 1009.51   9
   0 -13   3 659.517 732.262   8
   0 -13  -3 1495.30 851.256  14
   0 -13   3 1404.39 773.612   3
   0 -14   0 17070.5 1710.44  14
   0 -14  -1 2965.26 916.508  14
  -1   0   9 521.967 915.575  13
   1   0  -9 860.107 722.026  16
  -1   0   9 56.6474 693.934   8
  -1   0   9 101.119 688.121   1
  -1   0   8 17988.3 1513.17   1
   1   0  -8 17178.0 1321.41   2
  -1   0   8 15453.7 1392.03   8
   1   0  -8 17100.9 1513.66  16
  -1   0   7 15162.1 1281.53   1
  -1   0   7 17412.4 1309.42   8
   1   0  -7 18037.7 1280.63   2
  -1   0   7 18364.8 1062.97   6
   1   0  -7 17840.9 1439.93  16
  -1   0   6 1695.48 348.768  10
   1   0  -6 2397.67 713.084  16
  -1   0   6 2259.92 621.184   1
   1   0  -6 2198.47 546.565   2
  -1   0   6 2085.77 635.506   8
   1   0  -5 911.607 421.044   9
   1   0  -5 1060.74 215.403  11
   1   0  -5 887.823 446.071   2
  -1   0   5 1216.92 488.541   8
   1   0  -5 1799.19 606.474  16
  -1   0   5 1188.20 275.375  10
  -1   0   5 665.146 481.186   1
   1   0  -4 4142.28 298.512  11
  -1   0   4 3617.94 321.301  10
  -1   0   4 4016.70 528.473   8
   1   0  -4 3843.80 484.200   9
   1   0  -4 5067.51 645.824  16
  -1   0   4 3998.08 415.711   9
   1   0  -4 3770.08 507.777   2
  -1   0   4 4773.07 622.202   1
   1   0  -3 1267.15 186.664  11
  -1   0   3 1481.55 345.579   2
  -1   0   3 1109.44 280.208   9
  -1   0   3 1452.67 193.127  10
   1   0  -3 1156.88 309.075   8
   1   0  -3 1552.09 381.266   2
   1   0  -3 1456.93 362.370   9
   1   0  -3 1614.34 423.516  16
  -1   0   3 1857.18 385.665  16
  -1   0   2 37057.7 1176.61   9
  -1   0   2 38741.4 1019.41  11
   1   0  -2 37434.7 1284.22  16
   1   0  -2 36434.3 1173.47   8
   1   0  -2 37762.9 1286.91   7
   1   0  -2 38291.5 1243.03   2
  -1   0   2 35431.2 1251.08   2
  -1   0   2 36991.3 1271.84  16
  -1   0   2 36614.7 1189.90   8
  -1   0   1 35422.6 1002.76  16
   1   0  -1 36096.9 876.363   4
   1   0  -1 35592.5 999.725  16
   1   0  -1 34550.4 989.969   7
  -1   0   1 36608.6 999.398   7
   1   0   1 2155.87 318.525  15
  -1   0  -1 2843.81 334.574  15
   1   0   1 2281.07 318.575   7
  -1   0  -1 2252.36 374.755   7
   1   0   1 2478.07 277.801   3
  -1   0  -1 2358.57 380.659   8
   1   0   1 2526.06 342.355  14
   1   0   1 2685.54 334.514   1
  -1   0  -1 2651.61 330.907   1
  -1   0  -2 851.375 326.456   8
   1   0   2 968.769 411.020   8
  -1   0  -2 1065.07 347.730  15
   1   0   2 900.162 340.212   1
   1   0   2 648.279 294.810   2
  -1   0  -2 1019.90 361.237   1
   1   0   2 919.898 443.620  14
  -1   0  -3 54941.6 1968.45  16
   1   0   3 56657.0 1970.43   1
  -1   0  -3 55463.8 1850.99   2
   1   0   3 55829.9 1996.55   8
   1   0   3 59711.8 1869.07   2
   1   0   4 103940. 3367.05   1
  -1   0  -4 112590. 3094.65   9
  -1   0  -4 107647. 3412.14  16
  -1   0  -4 112073. 3251.50   2
   1   0   4 109624. 3456.28   8
   1   0   5 73986.3 2820.78   1
   1   0   5 83629.4 2945.44   8
   1   0   5 78006.9 2714.14  10
  -1   0  -5 77701.6 2651.49   2
  -1   0  -5 79109.9 2889.71  16
  -1   0  -5 80042.8 2477.07   9
   1   0   6 60059.2 2583.03   1
   1   0   6 63273.0 2659.66   8
  -1   0  -6 61152.5 2157.51   9
   1   0   6 64202.5 2446.73  10
  -1   0  -6 62029.0 2636.82  16
   1   0   6 56726.4 2419.92   6
   1   0   7-646.710 716.210  13
   1   0   7-141.061 511.937  10
  -1   0  -7 322.704 589.279  16
   1   0   7-495.695 721.300   1
   1   0   7-564.290 676.130   8
   1   0   7-483.167 580.666   6
  -1   0  -8 13720.7 1443.88  16
   1   0   8 16863.2 1386.87   6
   1   0   8 16540.1 1642.16  13
   1   0   8 18106.0 1548.50   1
  -1   0  -8 16161.4 1641.92   7
   1   0   9 24719.5 2134.86  13
  -1   0  -9 24953.5 2041.07  16
   1   0   9 21520.6 1857.91   1
   1   1 -10 5068.23 1089.80  16
  -1  -1  10 7340.13 1207.77   1
  -1   1   9 21325.7 2041.16  13
   1   1  -9 20520.3 1719.60  16
   1  -1  -9 22914.6 1880.44  16
  -1  -1   9 22278.7 1772.25   8
  -1  -1   9 23638.0 1784.86   1
   1   1  -9 25184.1 1798.86   2
  -1   1   9 21456.1 1867.41   1
  -1   1   8 28760.7 1937.85   1
  -1   1   8 27292.1 2033.47  13
   1  -1  -8 30165.4 1696.95   2
   1   1  -8 27986.6 1833.72  16
  -1   1   8 27951.8 1780.49   8
  -1  -1   8 27001.6 1850.21   8
   1   1  -8 30245.4 1840.61   2
  -1  -1   8 29863.6 1876.53   1
   1  -1  -8 26377.0 1881.12  16
  -1  -1   7 1621.78 647.551   8
   1   1  -7 2135.13 692.972  16
  -1  -1   7 2483.94 684.762   1
   1   1  -7 1491.52 608.479   2
  -1   1   7 2798.70 763.747   1
   1  -1  -7 2469.64 590.923   9
  -1   1   7 1844.71 853.474  13
   1  -1  -7 2396.59 758.481  16
   1  -1  -7 2039.04 588.122   2
  -1   1   7 1511.11 566.916   8
  -1   1   7 2865.05 471.953   6
   1   1  -6 53052.4 2231.26   2
  -1   1   6 51867.0 1754.28  10
  -1   1   6 49668.7 2442.99  13
   1  -1  -6 46791.9 1992.49   2
   1   1  -6 51802.9 2237.90  16
  -1   1   6 55714.7 2138.01   8
  -1  -1   6 50224.4 1751.45  10
   1  -1  -6 54114.9 2351.95  16
  -1   1   6 52935.5 1831.22   6
  -1  -1   6 50314.2 2187.59   1
  -1   1   6 50263.9 2280.24   1
   1  -1  -6 49577.1 1988.53   9
  -1  -1   6 50986.7 2234.21   8
  -1   1   5 115626. 3381.73   8
  -1   1   5 112269. 3048.66  10
  -1  -1   5 114761. 3506.52   1
  -1  -1   5 107569. 3508.68   8
   1  -1  -5 111841. 3068.61  11
  -1   1   5 114145. 3629.51   1
   1  -1  -5 108796. 3330.76   2
   1   1  -5 112364. 3527.45   2
   1  -1  -5 109515. 3639.08  16
   1   1  -5 112039. 3513.37  16
  -1   1   5 113434. 3099.35   6
   1  -1  -5 114113. 3367.26   9
   1  -1  -4 57119.3 1657.48  11
  -1   1   4 51145.5 1811.29   9
  -1   1   4 51949.3 1778.32   8
  -1  -1   4 53059.0 1895.43   1
   1  -1  -4 53601.7 1774.44   8
  -1  -1   4 54513.1 1970.05   8
   1  -1  -4 55670.6 1816.16   2
  -1   1   4 51586.5 1991.40   1
   1  -1  -4 53056.7 2036.61  16
   1   1  -4 50230.3 1927.05   2
  -1   1   4 52646.6 1563.61  10
  -1  -1   4 53930.6 1604.32   9
   1  -1  -4 54209.6 1861.92   9
  -1   1   4 51175.1 1571.85   6
   1   1  -4 52017.3 1905.58  16
  -1   1   4 52809.4 1792.79   2
  -1   1   3 35804.9 1221.95   8
  -1   1   3 36817.8 1328.68   9
   1   1  -3 38215.2 1405.11   8
  -1  -1   3 38026.8 1399.75   2
  -1   1   3 37352.3 1445.13  16
   1  -1  -3 34974.9 1199.85   8
  -1  -1   3 34983.7 1122.94   9
  -1   1   3 36522.0 1182.00  11
   1  -1  -3 35349.2 1264.65   2
   1   1  -3 37708.0 1412.90   2
  -1  -1   3 35205.2 1340.63  16
  -1   1   3 36885.4 1075.80  10
  -1   1   3 37765.9 1463.19   1
  -1   1   3 37689.5 1277.00   2
   1   1  -3 35865.4 1367.07  16
   1  -1  -3 34405.6 1441.03  16
   1  -1  -3 35660.0 1340.72   9
   1  -1  -3 35834.2 1179.02  11
  -1  -1   3 35334.5 1375.38   8
  -1   1   3 36472.0 1068.98   6
  -1  -1   2 720002. 16069.5   8
   1  -1  -2 722989. 15807.4   8
   1   1  -2 735109. 15867.7  12
  -1   1   2 722669. 15794.9   8
  -1  -1   2 746581. 16098.7   2
   1   1  -2 722358. 16081.3   2
   1  -1  -2 715435. 15940.5   2
  -1   1   2 762508. 16133.4  16
   1  -1  -2 734120. 15730.6  10
  -1   1   2 728133. 16049.3   9
   1   1  -2 730944. 15997.0  16
  -1   1   2 742009. 15729.1  10
   1   1  -2 737582. 16074.8   8
  -1   1   2 739039. 15906.4  11
   1  -1  -2 731017. 16115.5  16
  -1   1   2 751710. 15949.5   2
  -1  -1   2 732228. 15990.0  16
  -1   1   2 733157. 15677.0   6
   1   1  -2 735182. 16082.3   7
   1  -1  -2 728565. 15907.4  11
   1  -1  -2 693213. 16020.5   9
  -1   1   2 725743. 16129.9  13
   1  -1  -2 721659. 16060.2   7
   1   1  -1 10504.0 500.869   7
  -1  -1   1 9696.00 526.493   2
   1  -1  -1 11123.5 386.954  12
   1   1  -1 10150.0 484.701  16
  -1   1   1 9824.41 372.830  12
   1  -1  -1 10877.2 512.941  13
   1  -1  -1 10197.4 515.080   3
  -1   1   1 10051.1 516.069  16
  -1  -1   1 11115.2 441.805   6
  -1   1   1 10291.3 524.787   9
  -1   1   1 10383.5 510.030  13
  -1   1   1 8659.13 477.286   3
   1   1  -1 8531.60 525.335   2
  -1   1   1 9766.17 491.099   7
   1   1  -1 10333.9 437.287  12
  -1  -1   1 12266.9 529.347   7
   1  -1  -1 11644.3 563.772  16
   1  -1  -1 11014.9 496.370   7
  -1  -1   1 10826.5 531.863   8
  -1  -1   1 11934.0 503.651  16
  -1  -1   1 10952.0 419.881  10
  -1  -1   1 11494.8 447.174  12
   1   1  -1 10425.1 415.054  10
  -1  -1   1 10836.1 478.358   4
  -1   1   1 9448.88 511.818  11
  -1  -1   0 14983.6 2861.83  10
   1   1   0-0.09545 2755.10   2
  -1  -1   0 2395.86 2837.02   4
  -1  -1   0 15473.7 2844.38   6
  -1   1   0 9240.05 2770.87   8
   1  -1   0 8518.96 2771.75   7
  -1   1   0 8640.15 2779.36   7
   1   1   0-0.11770 2757.47   7
   1   1   0 21380.2 2863.79   6
   1   1   1 386023. 8787.57   6
   1  -1   1 415649. 8856.38   8
   1   1   1 398714. 8774.37   7
  -1  -1  -1 408592. 8816.27  10
   1   1   1 376586. 8780.83  10
  -1   1  -1 382177. 8652.34   1
   1  -1   1 394956. 8821.74  15
  -1  -1  -1 473888. 8910.29   1
   1  -1   1 383997. 8763.13   3
  -1  -1  -1 389395. 8821.58  14
   1   1   1 371185. 8807.59  14
   1   1   1 403390. 8826.01   1
  -1  -1  -1 440291. 8838.94   7
   1   1   1 384246. 8706.59   4
   1   1   1 384107. 8694.01  13
  -1   1  -1 404774. 8849.24   8
  -1  -1  -1 382271. 8789.13   6
   1  -1   1 389308. 8785.99   7
  -1  -1  -1 386270. 8699.67  13
  -1   1  -1 383184. 8779.37   7
  -1   1  -2 206179. 5241.15  15
   1  -1   2 207072. 5177.62   2
  -1  -1  -2 204581. 5158.46   8
   1   1   2 205088. 4996.91   4
   1   1   2 200997. 5157.79  10
   1   1   2 200037. 5244.18  14
   1   1   2 204746. 4916.21   2
   1  -1   2 202296. 5060.23   1
   1  -1   2 203670. 5242.39  15
   1  -1   2 198047. 5238.94   8
  -1   1  -2 204483. 5070.23   1
   1   1   2 202181. 5210.77   1
   1   1   2 198304. 5141.59  13
   1   1   2 201793. 5166.75   6
  -1   1  -2 207853. 5257.16   8
  -1  -1  -2 208517. 5241.93   1
  -1  -1  -3 39017.9 1568.38   8
   1   1   3 42355.7 1618.68   6
   1   1   3 44578.3 1419.08   4
   1   1   3 44508.4 1636.73  10
   1  -1   3 42581.5 1729.30   8
  -1   1  -3 45203.0 1589.50   1
   1  -1   3 42434.7 1575.60   1
  -1  -1  -3 42294.8 1712.28  16
  -1   1  -3 43167.3 1599.87  16
   1   1   3 45547.0 1431.01   2
  -1   1  -3 43329.0 1628.45   2
   1   1   3 42224.4 1693.84   1
   1   1   3 45491.1 1704.46  13
  -1  -1  -4 66848.7 2207.13   9
  -1   1  -4 65394.3 2331.91  16
   1  -1   4 67137.5 2484.13   8
   1   1   4 67473.3 2465.79  13
   1   1   4 66381.6 2331.73   6
   1  -1   4 63795.1 2299.68   1
   1   1   4 66721.5 2309.50  10
  -1  -1  -4 63079.8 2422.46  16
   1   1   4 69266.0 2021.66   4
  -1   1  -4 67900.7 2333.99   2
   1   1   4 63447.9 2418.93   1
  -1   1  -4 67515.1 1962.20   9
   1   1   4 67446.6 2106.82   2
  -1  -1  -5 8538.42 768.767   9
   1  -1   5 7693.13 811.234   1
  -1  -1  -5 7216.36 928.644  16
   1  -1   5 6945.76 876.503   8
  -1   1  -5 8583.44 593.497   9
  -1   1  -5 8976.76 846.805   2
   1   1   5 7004.54 774.250   6
   1   1   5 7414.68 543.161   4
  -1   1  -5 7562.55 821.638  16
   1   1   5 10035.0 833.812  10
   1   1   5 7235.80 893.355   1
   1   1   5 6598.08 932.782  13
  -1  -1  -6 3541.88 808.712  16
   1   1   6 3711.65 663.161   6
   1   1   6 2931.16 715.179   1
   1   1   6 2469.64 753.209  13
  -1  -1  -6 4048.94 610.395   9
   1   1   6 3739.33 667.258  10
  -1   1  -6 3411.56 431.399   9
   1  -1   6 3978.74 745.572   1
   1  -1   6 4815.01 884.370   8
  -1   1  -6 2961.15 662.375  16
  -1   1  -7 8301.10 1049.55  16
  -1  -1  -7 9057.53 1106.11  16
   1  -1   7 8968.17 1161.04   8
  -1  -1  -7 8005.03 833.792   9
   1  -1   7 7350.40 942.492   1
   1   1   7 9106.32 1170.30  13
   1   1   7 8395.63 897.257  10
   1  -1   7 7040.85 881.701  10
   1   1   7 7679.83 1055.73   1
   1   1   7 6279.32 876.210   6
   1  -1   8 1303.11 621.205   6
   1  -1   8 764.737 743.229   8
  -1  -1  -8 582.309 678.717  16
   1  -1   8 1390.96 882.207  13
  -1   1  -8 1652.53 711.542  16
  -1   1  -8 1383.20 835.258   7
  -1  -1  -8 706.897 682.741   7
   1   1   8 536.692 851.821  13
   1   1   8 298.851 618.400   1
   1  -1   8 519.434 581.352   1
   1  -1   9 12693.2 1429.53   1
  -1   1  -9 11839.7 1398.04  16
   1   1   9 9907.55 1436.23  13
   1  -1   9 10006.2 1504.96  13
   1   1   9 10113.4 1347.61   1
  -1  -1  -9 11606.6 1468.07  16
  -1   2   9 317.397 699.140   1
   1  -2  -9 112.119 922.289  16
  -1   2   9 479.886 889.494  13
   1   2  -9 790.509 722.635   2
  -1  -2   9 1012.93 740.177   8
   1   2  -9 293.795 714.323  16
  -1  -2   9 52.3800 604.858   1
   1   2  -8 64054.7 2839.54  16
   1   2  -8 58371.3 2821.24   2
   1  -2  -8 61321.4 2601.53   9
  -1   2   8 60462.2 3113.84  13
  -1  -2   8 67413.7 3035.04   8
   1  -2  -8 58979.1 2969.96  16
  -1   2   8 66559.4 3084.53   1
  -1   2   8 66120.0 2684.60   8
  -1  -2   8 57142.4 2751.41   1
  -1   2   7 20018.2 1624.21  13
  -1  -2   7 18486.1 1314.83   1
   1   2  -7 17235.8 1363.98   2
   1  -2  -7 17868.4 1148.11   2
   1  -2  -7 18624.9 1294.97   9
  -1   2   7 18416.4 1225.41   8
   1  -2  -7 18803.6 1523.72  16
   1   2  -7 19366.0 1360.56  16
  -1  -2   7 17754.8 1430.84   8
  -1   2   7 18388.7 1459.80   1
  -1   2   6 6560.91 576.339  10
   1  -2  -6 5554.70 905.184  16
  -1  -2   6 6713.29 926.314   8
   1   2  -6 7400.94 823.551  16
   1  -2  -6 6995.30 685.833   2
   1  -2  -6 6288.90 809.667   9
  -1   2   6 8563.22 794.348   8
  -1   2   6 4911.50 836.733   1
   1   2  -6 7822.46 896.927   2
  -1   2   6 7567.21 603.681   6
  -1  -2   6 7989.73 850.612   1
  -1   2   6 5742.16 972.000  13
  -1  -2   5 54354.0 2274.71   8
   1   2  -5 56361.6 2259.99   2
  -1  -2   5 60551.3 2159.02   1
  -1   2   5 52682.7 2367.20  13
   1  -2  -5 55725.2 2340.22  16
   1  -2  -5 57995.4 1963.27   2
  -1   2   5 57369.1 1969.88   8
  -1   2   5 57854.4 1845.30  10
  -1   2   5 55629.9 2300.02   1
   1  -2  -5 56418.3 2165.98   9
   1  -2  -5 56379.6 1923.49  11
   1   2  -5 59239.6 2177.22  16
  -1   2   5 57554.8 1835.43   6
   1   2  -4 9923.68 816.923   2
  -1  -2   4 9064.72 437.288   9
   1  -2  -4 9476.16 577.587   8
  -1   2   4 10137.6 974.104  13
  -1   2   4 9842.31 541.868   6
   1  -2  -4 9987.96 631.449   2
   1  -2  -4 8845.28 607.753  11
  -1   2   4 9618.60 613.230   2
   1  -2  -4 8736.19 778.378   9
   1  -2  -4 8400.63 858.625  16
  -1   2   4 9043.64 550.254  10
   1   2  -4 9084.04 709.311  16
  -1  -2   4 9804.16 839.868   8
  -1   2   4 9626.38 870.594   1
  -1  -2   4 9152.01 691.889   1
  -1   2   4 10376.7 619.894   8
   1  -2  -3 144813. 3675.47   2
  -1   2   3 146291. 3935.85   9
   1  -2  -3 138803. 3988.21  16
  -1  -2   3 146600. 3472.30   9
   1   2  -3 139712. 3974.21   2
   1   2  -3 144450. 3869.92  15
  -1   2   3 139390. 3842.82  14
   1  -2  -3 145476. 3573.76   6
   1  -2  -3 144631. 3626.97  10
  -1   2   3 140195. 4040.59  13
  -1   2   3 144238. 4001.41   1
   1  -2  -3 144500. 3542.12   8
  -1   2   3 142547. 3777.54  11
  -1   2   3 140627. 3612.61  10
  -1  -2   3 146242. 3772.44  16
  -1   2   3 146166. 3799.15   3
  -1   2   3 139949. 3557.03   6
   1   2  -3 140759. 3768.64  16
  -1   2   3 137361. 3541.63   8
   1  -2  -3 142186. 3780.23  11
   1  -2  -3 141837. 3934.50   9
   1   2  -3 143315. 3813.67  12
   1  -2  -3 147285. 3716.24  12
  -1  -2   3 144279. 3997.87   8
  -1   2   2 165336. 4043.29  14
  -1   2   2 171360. 4247.82  16
   1  -2  -2 160183. 4246.26   9
  -1   2   2 161487. 3990.54  10
   1   2  -2 166446. 4050.96  15
  -1  -2   2 159254. 4014.71  16
  -1  -2   2 163439. 3819.41  11
  -1   2   2 161766. 4089.99   3
   1   2  -2 158987. 4216.43   2
  -1  -2   2 161651. 4012.25  10
  -1   2   2 158330. 4135.11  11
  -1   2   2 166775. 4239.86   9
   1  -2  -2 158975. 3989.90   2
   1  -2  -2 161338. 4002.31  12
   1   2  -2 170119. 4171.11   7
   1  -2  -2 163757. 3922.86   6
  -1  -2   2 151496. 4226.86   2
  -1  -2   2 152985. 4224.18   8
   1  -2  -2 167909. 4156.83  11
   1   2  -2 163062. 4248.73   8
   1  -2  -2 162203. 3997.70  10
   1   2  -2 162925. 4029.16  16
   1  -2  -2 158186. 4107.24   7
   1  -2  -2 154143. 4205.53  16
   1  -2  -2 164909. 4274.08  13
  -1   2   2 162919. 4267.29  13
   1   2  -2 157742. 4097.34  12
   1  -2  -1 5712.64 472.126   5
  -1   2   1 6055.10 432.357  16
   1   2  -1 5869.22 456.124   2
  -1   2   1 5774.70 520.348   9
  -1   2   1 5429.16 510.879  11
  -1   2   1 5386.74 453.288  13
  -1  -2   1 6454.39 393.722   5
  -1  -2   1 7073.48 407.581   7
  -1  -2   1 6263.33 514.260   8
   1   2  -1 6178.93 442.125  10
  -1   2   1 5787.79 385.497   7
   1  -2  -1 6611.71 500.024  13
   1  -2  -1 6437.02 384.928   7
  -1  -2   1 6707.01 310.209  15
  -1   2   1 5189.50 399.530  12
   1  -2  -1 6304.55 330.183  14
  -1  -2   1 5959.01 437.504  12
   1  -2  -1 6409.02 418.747  12
  -1  -2   1 5825.63 417.998  10
  -1  -2   1 6498.28 464.524   2
  -1   2   1 5173.42 421.355   3
   1   2  -1 5420.88 433.458  12
   1  -2  -1 6491.03 577.603   9
   1  -2  -1 6085.94 454.664  16
   1  -2  -1 5952.16 460.303   3
   1   2  -1 5619.54 381.581   7
   1  -2  -1 6345.30 492.647  11
   1   2   0 136580. 3304.03  10
   1   2   0 121409. 3292.45   6
  -1   2   0 127345. 3225.89   9
  -1  -2   0 131603. 3298.29   4
   1  -2   0 132103. 3183.17   8
  -1  -2   0 126315. 3099.48   7
  -1  -2   0 130668. 3287.34   6
   1  -2   0 125651. 3140.74   7
  -1  -2   0 125320. 3110.10   2
  -1   2   0 128538. 3146.55   7
   1   2   0 133493. 3120.25   2
  -1   2   0 123557. 3081.57  16
  -1  -2   0 124710. 3272.76  12
  -1   2   0 124996. 3300.44   5
  -1   2   0 117184. 3266.50  11
   1  -2   0 128390. 3291.03   3
  -1  -2   0 132843. 3298.93  10
  -1   2   0 124556. 3165.42   8
  -1   2   0 126264. 3277.83   3
  -1   2   0 126533. 3273.13  12
   1   2   0 120597. 3099.23   7
   1   2   0 133554. 3307.81  12
   1  -2   1 996979. 22424.6   2
  -1   2  -1 980819. 22288.9   7
   1   2   1 997183. 22420.9  14
  -1  -2  -1 988161. 22394.1  10
   1  -2   1 961436. 22378.8   8
  -1  -2  -1 979481. 22338.0  13
   1   2   1 971730. 22371.7  10
  -1  -2  -1 934251. 22213.6   7
  -1   2  -1 974604. 22377.2   8
  -1  -2  -1 982790. 22375.9   6
  -1  -2  -1 959328. 22401.9  14
  -1  -2  -1 959764. 22352.2   1
  -1  -2  -1 946699. 22278.9   4
   1  -2   1 988837. 22392.8   3
   1   2   1 963097. 22324.3  13
  -1   2  -1 986999. 22078.6   1
   1   2   1 991107. 22374.9   6
   1   2   1 931744. 22343.0   1
  -1   2  -2 98692.7 2601.98   1
   1  -2   2 98834.0 2909.43   8
   1   2   2 99676.3 2656.94   4
  -1  -2  -2 100442. 2828.91  10
  -1  -2  -2 101447. 2850.65  13
   1  -2   2 97015.9 2587.22   1
   1  -2   2 99008.9 2891.78  15
  -1  -2  -2 95918.7 2650.55   4
   1   2   2 94650.8 2864.02   1
   1   2   2 92636.0 2383.71   2
  -1  -2  -2 95861.4 2908.22  14
   1  -2   2 97491.5 2848.07   3
  -1  -2  -2 100960. 2789.54   7
  -1  -2  -2 102332. 2826.60   6
  -1   2  -2 95169.5 2806.37   7
   1  -2   2 102274. 2882.03   2
  -1  -2  -2 95765.5 2859.92   1
   1   2   2 92688.9 2805.22  13
   1   2   2 103674. 2925.85  14
   1   2   2 97154.2 2812.66   6
  -1   2  -2 96779.2 2893.40   8
   1   2   2 97037.0 2816.24  10
  -1  -2  -3 40787.5 1751.99  16
   1   2   3 44385.1 1693.86  10
   1   2   3 42920.0 1760.26  13
  -1  -2  -3 44052.8 1627.13   8
   1   2   3 45690.6 1703.75   6
  -1   2  -3 42720.9 1754.59   2
   1  -2   3 44223.6 1816.67   8
   1  -2   3 41897.9 1768.55  15
   1  -2   3 44273.6 1549.66   1
   1   2   3 47594.3 1493.00   4
  -1   2  -3 44068.5 1553.90   1
   1   2   3 45345.4 1809.10   1
   1   2   3 48230.4 1355.20   2
  -1   2  -3 43341.4 1568.82  16
  -1  -2  -4 27777.4 1477.99  16
   1   2   4 25513.2 1028.15   4
   1   2   4 26460.1 1434.50  13
   1  -2   4 28580.4 1514.90   8
   1   2   4 24079.6 1407.74   1
   1   2   4 23693.0 1264.37  10
   1   2   4 25598.2 1287.19   6
  -1   2  -4 24548.2 839.529   9
   1   2   4 25764.6 1002.90   2
   1  -2   4 27310.2 1243.19   1
  -1  -2  -4 26232.4 1309.60   9
  -1   2  -4 26057.6 1248.89  16
  -1   2  -4 24011.4 1326.93   2
   1  -2   5 30423.0 1755.38   8
   1   2   5 34383.1 1339.45   2
  -1   2  -5 33786.3 1093.18   9
   1   2   5 34172.5 1809.85   1
   1   2   5 35093.8 1272.88   4
   1   2   5 33004.3 1803.25  13
   1  -2   5 33379.9 1579.65   1
  -1  -2  -5 34066.1 1832.57  16
  -1   2  -5 35288.3 1741.12   2
  -1  -2  -5 35047.5 1614.49   9
   1   2   5 33764.3 1613.65  10
  -1   2  -5 32233.9 1605.24  16
   1   2   5 32508.1 1607.72   6
   1   2   6 12876.5 1244.12   1
  -1  -2  -6 13774.9 1247.99  16
   1   2   6 13316.4 1046.88  10
  -1   2  -6 11799.6 1041.58  16
   1  -2   6 11470.9 1187.06   8
   1   2   6 12466.9 1052.85   6
   1   2   6 11288.4 1206.47  13
  -1  -2  -6 11830.1 980.992   9
   1  -2   6 11822.7 1014.72   1
  -1   2  -6 12090.1 1142.79   2
  -1  -2  -7 13992.9 1165.46   9
   1   2   7 14707.6 1180.17  10
  -1  -2  -7 17666.9 1522.83  16
   1  -2   7 15609.4 1463.31   8
  -1   2  -7 15542.9 1298.11  16
   1  -2   7 13651.8 1222.26   1
   1   2   7 16197.3 1501.70  13
   1   2   7 15344.7 1223.50   6
   1   2   7 14799.0 1448.37   1
  -1  -2  -8 10465.0 1358.09   7
   1   2   8 8021.23 1151.54   1
   1  -2   8 10225.1 1207.46   3
  -1  -2  -8 9765.50 1350.43  16
  -1   2  -8 8165.94 1121.66  16
   1   2   8 7596.55 1251.04  13
   1  -2   8 12313.2 1265.58   1
  -1   2  -8 10268.9 1354.93   7
   1  -2   8 11897.3 1454.61   8
  -1   2  -9 2732.98 900.577  16
   1   2   9 4480.44 1225.80  13
   1  -2   9 2655.65 986.183   8
   1  -2   9 3477.52 907.826   3
  -1  -3   9 11785.5 1493.90   8
  -1   3   9 15240.8 1626.75   1
  -1   3   9 14966.0 1660.48  13
   1   3  -9 14509.8 1525.79   2
   1  -3  -9 13443.5 1592.03  16
  -1  -3   8 24142.4 1611.03   1
  -1   3   8 23141.6 1922.00  13
   1  -3  -8 24429.6 1891.26  16
   1   3  -8 21371.2 1556.78  16
   1   3  -8 21109.4 1575.01  12
   1   3  -8 24642.9 1792.32   2
   1  -3  -8 27514.5 1721.51   9
  -1   3   8 24787.3 1866.66   1
  -1  -3   8 23918.5 1875.48   8
   1   3  -7 34467.0 1978.90   2
  -1   3   7 26842.7 1837.02   1
  -1  -3   7 34436.1 2017.92   8
   1  -3  -7 31016.8 1965.16  16
   1   3  -7 30817.0 1703.61  16
   1  -3  -7 30964.3 1760.48   9
  -1  -3   7 31690.1 1691.73   1
  -1   3   7 27621.5 1949.60  13
  -1  -3   6 31045.0 1558.58   1
  -1   3   6 30581.3 1880.80  13
  -1   3   6 33813.7 1893.29   1
  -1  -3   6 33523.2 1875.76   8
   1  -3  -6 31673.7 1382.29   2
  -1   3   6 30762.6 1327.53   6
   1   3  -6 32853.7 1614.59  16
   1  -3  -6 30861.7 1854.31  16
   1  -3  -6 32762.3 1733.18   9
  -1   3   6 33436.2 1398.34  10
   1   3  -6 34393.9 1852.03   2
  -1   3   5 62552.3 2112.99  10
   1   3  -5 67695.7 2595.47   2
  -1   3   5 65564.4 2085.05   6
   1  -3  -5 66116.7 2089.47   2
   1  -3  -5 64462.9 2061.00   8
  -1   3   5 65678.9 2615.61   1
   1   3  -5 70347.6 2340.87  16
  -1  -3   5 66095.3 2612.40   8
   1  -3  -5 67603.1 2514.14   9
   1  -3  -5 62054.3 2586.10  16
  -1  -3   5 66831.1 2285.76   1
   1   3  -5 68454.3 2453.75  12
  -1   3   5 65479.8 2678.42  13
   1  -3  -4 71180.8 2145.81   6
  -1  -3   4 74696.2 2277.69  16
   1  -3  -4 73948.5 2021.08   8
   1  -3  -4 71326.0 2102.79   2
   1   3  -4 72967.3 2425.95  12
  -1   3   4 70902.4 2643.61  13
  -1  -3   4 68606.0 2547.54   8
   1  -3  -4 70426.4 1884.49   4
  -1   3   4 69117.4 2543.77   1
  -1  -3   4 75082.2 2258.52   1
   1   3  -4 73718.3 2280.37  16
   1  -3  -4 70995.9 2515.90   9
   1  -3  -4 74063.6 2604.07  16
  -1   3   4 71393.7 2266.42   3
   1  -3  -4 70630.3 2204.33  10
  -1   3   4 71605.7 2128.41   6
  -1   3   4 69817.0 2182.41  10
   1   3  -4 66677.6 2518.85   2
   1   3  -3 49441.3 1907.10   2
   1  -3  -3 54385.7 1689.03  10
   1  -3  -3 51948.5 1940.80   9
   1  -3  -3 55822.0 1959.77  16
  -1   3   3 50335.1 1951.09  13
   1   3  -3 52522.8 1816.74  12
   1  -3  -3 51763.6 1360.80   8
  -1  -3   3 54592.8 1967.77   8
  -1   3   3 47384.6 1858.54   1
   1   3  -3 49512.3 1606.01  16
  -1   3   3 47069.0 1626.24  10
  -1  -3   3 52868.4 1620.26  16
  -1   3   3 48676.4 1781.09  11
   1  -3  -3 50820.1 1552.37   2
   1  -3  -3 52754.1 1777.17   7
  -1   3   3 51683.5 1753.31  14
   1  -3  -3 53262.4 1717.81  12
   1  -3  -3 53118.6 1817.16  11
  -1   3   3 47457.0 1644.57   3
   1  -3  -3 52151.2 1602.22   6
  -1  -3   2 283696. 6561.29  11
   1   3  -2 283155. 6973.66   8
   1   3  -2 270363. 6835.62  12
  -1  -3   2 275049. 6919.50   2
   1  -3  -2 287298. 6759.86  10
   1  -3  -2 285328. 6765.58  12
  -1   3   2 277655. 6716.56   3
  -1   3   2 275385. 6751.05  12
  -1  -3   2 275684. 6556.72  16
   1  -3  -2 288933. 6986.42  13
   1  -3  -2 276214. 6669.20   6
   1   3  -2 281602. 6744.01   7
  -1   3   2 283489. 6904.81  11
   1  -3  -2 273658. 6701.76   3
  -1   3   2 262204. 6715.31  10
   1  -3  -2 267658. 6679.85   7
  -1   3   2 274283. 6945.95   9
  -1   3   2 272072. 6677.05  14
   1   3  -2 267946. 6893.66   2
  -1  -3   2 264476. 6935.98   8
  -1  -3   2 283700. 6861.22  12
  -1   3   2 273818. 6855.80   1
   1  -3  -2 277715. 6695.94  14
  -1  -3   2 284548. 6769.72  10
   1  -3  -2 266994. 6932.43   9
   1  -3  -2 275152. 6859.10  16
   1   3  -2 273503. 6564.76  16
  -1  -3   2 281083. 6669.08  15
  -1   3   2 266782. 6851.73  16
   1   3  -2 281456. 6712.31   5
   1  -3  -2 274974. 6892.65  11
  -1   3   2 269109. 6944.98  13
  -1  -3   1 67821.0 2073.75  10
  -1  -3   1 71078.7 2136.24   8
   1  -3  -1 71264.7 2083.32  10
   1   3  -1 68649.6 2107.13  12
   1  -3  -1 68825.8 2133.19  11
  -1   3   1 69693.9 1991.63  16
   1   3  -1 68821.5 1872.80   7
  -1   3   1 67237.4 2111.87  13
  -1  -3   1 72068.1 2071.66   2
  -1   3   1 71656.6 2077.03  12
  -1   3   1 70890.8 1749.33   8
   1  -3  -1 71745.3 2130.11  13
  -1   3   1 73084.6 2052.77   3
   1   3  -1 69787.0 2056.60   2
  -1   3   1 70101.9 1864.97   7
  -1  -3   1 70596.8 2116.34  12
   1  -3  -1 70870.3 1871.80   7
  -1  -3   1 68007.9 2010.18   5
  -1   3   1 66031.6 2128.66  11
   1  -3  -1 70069.5 2165.12   5
   1  -3  -1 70765.2 1749.04   8
  -1   3   1 71163.0 2152.65   9
   1  -3  -1 71665.3 2000.63  16
  -1  -3   1 69831.0 1999.06  11
   1  -3  -1 65849.8 2138.67   9
   1   3  -1 68679.7 2074.37  10
   1  -3  -1 73143.7 2055.68   3
   1  -3  -1 70148.9 2058.42  12
   1  -3   0 193999. 4974.12   9
   1   3   0 204074. 5099.50   6
   1  -3   0 198046. 4751.04  16
   1   3   0 195799. 5082.73  12
  -1  -3   0 187644. 4821.96   2
   1   3   0 203995. 4728.85   7
  -1   3   0 207927. 4995.36   9
  -1  -3   0 198084. 4900.41   1
  -1   3   0 201251. 5113.25   5
  -1   3   0 201576. 4800.24   7
   1  -3   0 211292. 5115.75  12
  -1  -3   0 199971. 5097.80  12
  -1  -3   0 206805. 5085.04   6
  -1   3   0 207137. 4751.05  16
  -1   3   0 198679. 4890.16   8
   1  -3   0 204829. 5099.37  11
  -1   3   0 200366. 5083.49  11
  -1  -3   0 201196. 5060.54  11
   1  -3   0 200630. 4896.35   8
   1  -3   0 199630. 5052.50   3
  -1   3   0 202136. 5048.48   3
   1  -3   0 182012. 5079.03   5
   1  -3   0 204756. 4796.63   7
   1   3   0 195046. 4812.23   2
   1  -3   0 200970. 5014.43  13
   1   3   0 199251. 5082.45  10
  -1  -3   0 205934. 5083.92  13
  -1   3   0 195387. 5067.11  12
  -1  -3   0 196184. 5064.62  10
  -1  -3   0 197626. 4722.64   7
  -1  -3  -1 123410. 3237.38   6
  -1   3  -1 128920. 3339.94  12
  -1   3  -1 123376. 3298.57   5
  -1   3  -1 123245. 2965.11   9
  -1   3  -1 123318. 2776.35   1
  -1  -3  -1 121815. 3275.16  14
  -1   3  -1 131320. 3242.20   8
   1   3   1 122991. 3251.87  10
   1   3   1 121895. 3244.15  13
  -1  -3  -1 117814. 3251.83  12
   1   3   1 119056. 3166.90   1
  -1  -3  -1 125694. 3208.18   1
  -1   3  -1 124039. 3064.31   7
  -1  -3  -1 123536. 3169.97   4
  -1  -3  -1 120701. 2971.28   7
   1  -3   1 121859. 3263.34   3
   1  -3   1 127641. 3276.83   2
  -1   3  -1 115407. 3156.89  11
  -1  -3  -1 122317. 3251.96  10
  -1  -3  -1 124636. 3244.28  13
   1   3   1 115000. 3219.56   6
   1  -3   1 119052. 3198.40   8
   1  -3   2 78277.4 2558.43  15
   1   3   2 78411.4 2531.19  13
  -1   3  -2 78472.6 2345.56  11
  -1  -3  -2 80581.2 2363.97   4
  -1   3  -2 80028.5 2436.93   7
  -1   3  -2 82426.5 2048.11   9
  -1   3  -2 82670.3 2144.28   1
  -1   3  -2 79770.4 2133.93  16
   1  -3   2 80846.5 2573.99   8
   1   3   2 81047.0 2548.39   1
  -1  -3  -2 81277.9 2591.36  14
  -1  -3  -2 81111.4 2364.82   7
   1   3   2 74684.4 2465.07   6
   1  -3   2 78957.5 2544.38   3
   1   3   2 76299.5 2497.14  10
   1   3   3 63252.0 1603.26   2
   1  -3   3 67254.2 2390.83   8
  -1  -3  -3 63542.5 2319.33  16
   1  -3   3 63036.2 2307.28  15
   1  -3   3 63631.3 1928.45   1
  -1  -3  -3 62119.9 2350.46  14
   1   3   3 61043.3 2280.69  13
   1   3   3 62501.1 2191.92   6
  -1   3  -3 62413.3 1924.55   1
  -1   3  -3 65220.3 2332.45   2
   1   3   3 62350.8 2213.91  10
  -1   3  -3 63558.8 1944.69  16
   1   3   3 63644.8 2319.71   1
  -1  -3  -3 63324.3 1994.34   4
  -1  -3  -3 67853.2 2101.53   8
   1   3   4 9217.47 923.372   1
   1   3   4 10716.4 965.190  13
   1  -3   4 9661.16 992.917   8
  -1  -3  -4 10367.8 988.418  16
   1   3   4 9292.70 814.368   6
  -1   3  -4 10561.0 759.594  16
   1  -3   4 8910.54 690.280   1
  -1  -3  -4 9381.49 874.246   9
   1   3   4 10763.2 503.810   2
  -1   3  -4 9622.85 952.143   2
   1   3   4 9735.12 846.207  10
   1  -3   4 10491.7 960.863  15
   1  -3   5 3011.70 539.569   1
   1   3   5 2542.91 737.842  13
  -1  -3  -5 3365.50 837.917  16
   1   3   5 3214.41 350.208   2
   1   3   5 3063.92 593.977   6
  -1   3  -5 2914.33 699.542   2
  -1  -3  -5 3317.36 708.292   9
  -1   3  -5 2598.68 541.880  16
   1  -3   5 2126.08 683.048   8
   1   3   5 3266.99 734.982   1
   1   3   5 3188.43 612.871  10
   1  -3   6 1857.10 534.919   1
   1   3   6 1800.20 583.597  10
  -1  -3  -6 753.758 518.776   9
   1   3   6 1510.13 607.764   1
  -1   3  -6 1405.32 618.506   2
  -1  -3  -6 1685.90 640.474  16
   1   3   6 2639.54 769.737  13
   1  -3   6 1379.66 754.385   8
  -1   3  -6 1752.68 534.677  16
   1   3   6 2435.81 588.338   6
   1  -3   7 18501.6 1615.13   8
  -1  -3  -7 15703.9 1481.12   7
   1   3   7 15014.5 1220.74   6
   1   3   7 13212.6 1444.45  13
   1   3   7 14680.7 1193.78  10
  -1   3  -7 14573.4 1246.31  16
  -1  -3  -7 16735.0 1308.97   9
  -1   3  -7 16938.1 1514.73   7
  -1  -3  -7 13941.7 1437.52  16
   1   3   7 17216.5 1520.73   1
   1  -3   7 13521.6 1173.38   1
  -1  -3  -8 21127.8 1819.53  16
   1   3   8 23700.8 1943.02  13
  -1   3  -8 20190.4 1570.21  16
  -1  -3  -8 21601.0 1823.53   7
   1  -3   8 19732.2 1684.52   3
   1  -3   8 18845.9 1781.25   8
  -1   3  -8 20396.6 1801.83   7
   1   3   8 22084.5 1820.45   1
   1  -3   9 10226.9 1286.80   3
   1   4  -9 11490.7 1425.09   2
  -1  -4   9 9767.33 1413.44   8
  -1   4   8 3008.53 979.164  13
   1  -4  -8 2517.97 837.876  16
  -1  -4   8 2331.78 856.248   8
   1  -4  -8 1527.78 784.702   9
  -1   4   8 1637.23 870.641   1
   1   4  -8 2641.97 801.202  12
   1   4  -8 2555.02 855.777   2
  -1  -4   7 21062.7 1307.38   1
   1   4  -7 19485.5 1565.17   2
   1   4  -7 19034.8 1450.81  12
   1   4  -7 21631.4 1369.57  16
  -1   4   7 18774.7 1571.95   1
  -1  -4   7 19826.6 1638.58   8
   1  -4  -7 19780.0 1630.49  16
   1  -4  -7 22060.6 1559.66   9
  -1   4   7 20735.5 1746.24  13
   1  -4  -6 1394.05 329.510   2
  -1   4   6 899.852 382.574   6
  -1   4   6 1788.81 637.405   1
  -1  -4   6 1771.03 494.785   1
  -1  -4   6 869.378 661.986   8
   1   4  -6 1429.53 694.797   2
  -1   4   6 1162.50 417.803  10
   1   4  -6 944.847 431.427  16
   1   4  -6 1372.36 621.187  12
   1  -4  -6 1434.65 711.747  16
  -1   4   6 2247.01 836.758  13
   1  -4  -6 172.174 693.763   9
   1  -4  -5 46200.4 2118.04   9
  -1  -4   5 44425.0 1713.40   1
   1  -4  -5 44188.0 1480.30   8
  -1   4   5 47860.2 2184.92   1
   1  -4  -5 47256.4 1381.59   4
   1   4  -5 45010.6 2003.94  12
   1  -4  -5 47910.4 1558.42   2
   1   4  -5 44948.5 2151.03   2
  -1  -4   5 45039.3 2166.43   8
  -1   4   5 45800.3 1757.27  10
   1   4  -5 46277.2 1777.17  16
   1  -4  -5 45790.3 2166.95  16
  -1   4   5 43527.5 2168.69  13
  -1   4   5 46204.1 1694.73   6
  -1   4   4 25024.8 1301.82  11
  -1  -4   4 24313.2 1435.52   8
   1  -4  -4 25911.8 845.007   8
  -1   4   4 23393.8 1365.03   1
  -1   4   4 24393.5 1485.62  13
  -1  -4   4 25987.7 1078.89  16
   1   4  -4 25326.9 1354.53  12
   1  -4  -4 24780.0 1439.10  16
  -1   4   4 24814.2 1115.77   3
   1  -4  -4 23705.3 1090.63   6
   1  -4  -4 24887.0 1445.90   9
   1   4  -4 25536.7 1089.28  16
  -1   4   4 24034.3 1152.54  10
   1   4  -4 27645.2 1470.45   2
  -1  -4   4 24693.9 1053.74   1
   1  -4  -4 26568.5 971.651   2
   1   4  -3 59786.2 1923.09   5
  -1   4   3 53479.1 1848.29  10
  -1   4   3 53968.9 1767.42   3
  -1   4   3 51320.4 1981.53  11
   1  -4  -3 52581.1 1816.20   7
  -1   4   3 56844.0 1892.96  14
   1   4  -3 53611.1 2075.09   2
   1  -4  -3 48376.0 1973.69  16
  -1  -4   3 57153.9 1618.26  11
  -1  -4   3 48732.4 2030.91   8
   1   4  -3 54328.6 2000.07  12
  -1   4   3 53345.5 2115.88  13
   1  -4  -3 53132.4 1778.27   6
  -1  -4   3 57321.5 1636.97  16
   1  -4  -3 53970.8 1864.92  10
   1  -4  -3 52445.2 1617.93   2
   1  -4  -3 55266.0 2120.89   9
   1  -4  -3 51307.9 1887.52  14
  -1   4   3 55601.4 2039.61   1
   1   4  -3 57462.3 1655.64  16
  -1  -4   3 51592.0 1842.40  15
  -1   4   2 1402.42 484.003  13
  -1   4   2 1328.56 355.699  16
   1  -4  -2 977.829 335.055  10
   1  -4  -2 1534.64 322.989   6
  -1  -4   2 1564.93 460.350   8
   1  -4  -2 1394.76 352.125   3
   1   4  -2 1440.24 349.710   5
   1  -4  -2 1266.66 388.416  16
   1   4  -2 1159.72 432.451  12
   1   4  -2 1011.06 462.334   2
   1  -4  -2 1293.58 262.055   7
  -1   4   2 1215.37 411.345   1
  -1  -4   2 1604.16 224.952  16
  -1  -4   2 1370.15 324.540  15
  -1   4   2 1021.76 443.418  11
   1  -4  -2 1487.56 354.611  14
   1  -4  -2 1983.77 400.894  12
  -1   4   2 1533.88 412.561  12
  -1   4   2 799.333 364.648  10
   1  -4  -2 140.829 540.454   9
  -1  -4   2 1330.52 268.744  11
  -1  -4   2 1450.90 365.287  10
   1   4  -2 1157.68 275.577   7
  -1   4   2 1358.97 298.638   3
   1  -4  -1 8216.09 642.937  10
  -1   4   1 9146.38 729.871  13
   1   4  -1 9843.56 711.073  10
  -1  -4   1 8924.15 647.648   5
   1  -4  -1 8997.88 570.199  16
   1  -4  -1 7871.02 693.187   9
   1  -4  -1 9617.83 444.855   8
   1  -4  -1 9590.03 638.847   3
   1   4  -1 8676.67 644.526   2
   1  -4  -1 8875.78 440.682   7
  -1   4   1 8936.57 554.336   1
   1   4  -1 9109.40 700.700  12
  -1   4   1 8976.42 598.470   3
   1  -4  -1 8663.86 657.922  12
  -1   4   1 9155.07 445.143   7
  -1  -4   1 9291.74 613.039   2
  -1  -4   1 9053.77 684.956  12
  -1  -4   1 8950.56 603.658  11
   1  -4  -1 9687.02 711.412  13
  -1   4   1 10135.4 706.247   9
  -1   4   1 8445.91 664.185  12
  -1  -4   1 8725.13 646.027  10
   1  -4  -1 8078.41 746.389   5
  -1   4   1 8493.97 687.935  11
   1   4  -1 9758.01 450.766   7
  -1  -4   1 8522.08 666.356   8
  -1   4   1 9444.11 437.912   8
  -1   4   1 10057.1 578.298  16
   1  -4   0 219426. 5185.26  16
   1  -4   0 225991. 5615.66  13
  -1   4   0 214729. 5619.97  11
  -1   4   0 221922. 5202.24   7
  -1   4   0 220510. 5515.01   9
   1  -4   0 216652. 5507.97   9
   1  -4   0 216733. 5684.05   5
   1  -4   0 209123. 5555.71   3
   1  -4   0 224015. 5408.54   8
  -1  -4   0 227274. 5674.92  13
  -1   4   0 218529. 5400.01   8
   1  -4   0 225345. 5640.16  11
   1   4   0 229631. 5703.59  12
  -1  -4   0 210568. 5366.74   1
  -1  -4   0 218051. 5101.04   7
   1   4   0 219078. 5324.67   2
   1  -4   0 217235. 5658.33  12
  -1   4   0 214606. 5180.57  16
  -1  -4   0 231015. 5696.77  12
   1  -4   0 206722. 5552.55   2
  -1   4   0 212023. 5633.02  12
   1  -4   0 220151. 5190.50   7
  -1  -4   0 215639. 5321.17   2
   1   4   0 215935. 5629.76  10
  -1   4   0 221350. 5571.45   3
   1   4   0 211612. 5100.80   7
  -1  -4   0 213820. 5623.23  10
  -1  -4   0 224365. 5616.89  11
  -1  -4  -1 23381.2 700.391   3
  -1  -4  -1 23984.0 1034.08   1
   1  -4   1 21771.5 908.255   9
  -1   4  -1 20654.0 1018.25   8
   1   4   1 21594.7 1134.56  12
   1  -4   1 23894.9 1097.03   8
   1   4   1 23614.9 716.865   2
   1   4   1 22158.3 1123.80  13
  -1   4  -1 23551.4 1076.38  11
  -1   4  -1 23173.3 1188.85  12
   1   4   1 21938.8 1105.63   6
  -1  -4  -1 22068.9 813.934   7
   1   4   1 21733.1 1019.44   1
  -1  -4  -1 22780.0 1136.05  14
  -1  -4  -1 20970.8 711.673   2
  -1   4  -1 21263.5 888.500   7
   1  -4   1 23083.9 1118.69   3
   1   4   1 21702.2 1100.47  10
  -1   4  -1 23756.0 915.843   9
   1  -4   2 58554.5 2137.07   3
   1   4   2 55491.9 2038.18   6
  -1   4  -2 57920.8 1533.50  16
   1   4   2 58451.3 2118.52  13
  -1   4  -2 61639.7 2220.02  12
   1  -4   2 55174.9 2085.41   8
  -1  -4  -2 58449.3 2069.30  16
  -1  -4  -2 59900.8 1974.49   4
  -1   4  -2 56220.2 1528.78   1
  -1  -4  -2 63250.4 2203.20  14
   1   4   2 55923.5 2047.42   1
  -1   4  -2 58707.5 1615.62   9
  -1   4  -2 58264.6 1925.39  11
  -1  -4  -2 58814.6 1834.17   7
  -1   4  -2 57209.4 1914.41   7
   1   4   2 57327.4 2076.05  10
  -1  -4  -3 34677.6 1640.39   9
  -1  -4  -3 34593.8 1371.57   8
  -1  -4  -3 33042.2 1603.23  16
   1   4   3 35782.5 1579.17  10
   1  -4   3 31787.0 1603.59   3
  -1   4  -3 34913.9 1180.14  16
  -1  -4  -3 36834.6 1723.48  14
  -1   4  -3 33244.2 1506.62   7
  -1   4  -3 34583.4 1655.03   2
  -1   4  -3 36742.2 1187.67   1
  -1  -4  -3 35462.7 1392.43   4
   1  -4   3 33769.6 1613.76  15
   1   4   3 35471.8 1642.30   1
   1   4   3 32842.0 1607.41  13
  -1   4  -3 34639.6 1357.09  11
  -1  -4  -3 32446.0 1412.77   7
   1  -4   3 32052.0 1627.27   8
   1   4   3 35833.3 1562.47   6
   1   4   4 94751.2 2460.53   3
  -1  -4  -4 96308.3 3288.15   9
  -1   4  -4 94229.2 3345.64   2
   1   4   4 91857.9 3111.58   6
   1  -4   4 93961.1 3288.96  15
   1  -4   4 95868.8 3406.61   8
  -1   4  -4 99023.3 2821.64  16
   1   4   4 94623.4 3328.51   1
   1  -4   4 94040.6 2771.65   1
   1   4   4 96581.6 3196.05  10
   1   4   4 98409.5 3357.97  13
  -1  -4  -4 95145.6 3368.12  16
  -1  -4  -4 96731.1 3395.11  14
  -1   4  -4 96431.1 2810.11  11
   1  -4   5 30110.6 1349.28   1
  -1   4  -5 30147.0 1754.47   2
  -1  -4  -5 27721.9 1737.21  16
  -1   4  -5 28508.5 1364.17  16
   1  -4   5 30222.1 1868.05   8
   1   4   5 29678.9 1572.97   6
  -1  -4  -5 28215.0 1636.08   9
   1   4   5 24284.3 1676.01   1
   1   4   5 29705.4 1756.67  13
   1   4   5 28507.4 1585.28  10
  -1   4  -5 31200.2 1242.47  11
   1   4   6 20434.7 1602.03  13
  -1   4  -6 22694.3 1317.04  16
  -1  -4  -6 22845.0 1680.96  16
  -1  -4  -6 23503.2 1553.71   9
   1  -4   6 21549.2 1660.24   8
  -1  -4  -6 21866.0 1545.31   7
   1   4   6 21540.5 1398.68  10
   1   4   6 23805.7 1439.38   6
   1   4   6 20934.2 1586.01   1
   1  -4   6 20969.2 1243.55   1
   1   4   7 2655.12 663.622   6
  -1  -4  -7 3118.09 941.721  16
  -1   4  -7 866.692 512.692  16
  -1   4  -7 500.334 691.843   7
   1  -4   7 1743.93 702.375   3
   1   4   7 1385.14 558.251  10
  -1  -4  -7 1786.48 664.095   7
   1  -4   7 2210.63 905.223   8
   1   4   7 1757.66 789.733  13
  -1  -4  -7 3127.43 804.137   9
   1   4   7 1682.91 797.953   1
  -1  -4  -8 24591.4 2029.67  16
  -1  -4  -8 24652.7 1783.27   9
   1   4   8 24678.3 2007.27   1
   1  -4   8 25172.2 1899.27   3
   1   4   8 23398.2 1994.92  13
  -1   4  -8 26412.4 2041.40   7
   1  -4   8 23584.5 1981.77   8
  -1  -4  -8 23915.4 1893.48   7
   1   5  -9-1447.08 956.694   2
   1  -5  -8 32054.2 2128.05   9
  -1  -5   8 38281.2 2471.02   8
   1  -5  -8 33325.3 2287.72  16
   1   5  -8 33985.2 2282.50   2
  -1   5   8 35702.6 2439.43  13
  -1   5   8 40819.1 2485.88   1
   1   5  -8 38937.9 2229.82  12
   1   5  -7 3016.40 786.111  12
  -1   5   7 3204.17 847.042   1
   1  -5  -7 3117.30 882.762  16
  -1  -5   7 4172.68 1015.18   8
  -1   5   7 2040.50 825.326  13
   1  -5  -7 1640.77 800.555   9
   1   5  -7 746.100 669.041   2
  -1   5   6 26355.0 1333.60   6
  -1  -5   6 32635.8 1966.43   8
   1   5  -6 28164.5 1663.35  12
   1   5  -6 29063.2 1397.15  16
   1  -5  -6 26581.5 1773.44  16
   1  -5  -6 29332.5 1816.26   9
   1   5  -6 25024.8 1707.42   2
  -1   5   6 27889.8 1860.08  13
  -1   5   6 25413.8 1741.34   1
  -1  -5   6 26798.2 1317.39   1
  -1   5   6 30493.5 1462.62  10
   1  -5  -5 36745.3 1234.35   2
   1   5  -5 38666.4 2012.19   2
   1  -5  -5 36977.4 1319.15   4
   1   5  -5 39229.0 1497.87  16
  -1  -5   5 35773.9 1414.93   1
   1  -5  -5 37032.7 1964.97  16
  -1   5   5 35094.9 1973.17  13
  -1   5   5 36227.0 1622.63  10
   1   5  -5 37990.1 1867.29  12
   1  -5  -5 35515.1 1924.98   9
  -1  -5   5 36816.3 2010.45   8
  -1   5   5 36017.5 1919.80   1
   1  -5  -4 51334.2 2235.93   9
   1  -5  -4 54205.4 2081.78  14
   1   5  -4 50474.7 2219.79   2
  -1   5   4 52044.3 2182.99   1
  -1  -5   4 53717.0 2293.67   8
  -1   5   4 52412.2 2127.00  11
   1  -5  -4 47131.5 1292.62   8
  -1   5   4 51178.4 1782.84   3
  -1  -5   4 52792.5 1636.30   1
  -1  -5   4 53880.1 2030.68  15
   1  -5  -4 54314.8 1558.46   2
  -1   5   4 50138.9 1936.63  10
  -1  -5   4 52793.3 1645.10  16
   1   5  -4 55815.0 2207.79  12
   1  -5  -4 50079.3 2165.18  16
  -1   5   4 53124.0 2308.86  13
   1   5  -4 52013.9 1654.55  16
   1  -5  -3 35772.9 1358.33   3
  -1  -5   3 35766.5 1123.40  16
  -1   5   3 37382.9 1363.86   3
   1  -5  -3 36329.6 1513.57  14
   1  -5  -3 35290.3 1613.05  16
  -1   5   3 36547.4 1653.01  11
  -1  -5   3 36189.9 1707.15   8
   1  -5  -3 30937.5 1184.00   2
   1   5  -3 35711.9 1690.30   2
  -1   5   3 33572.4 1510.29  12
  -1   5   3 34944.7 1711.41  13
   1  -5  -3 37203.2 1376.93   7
  -1   5   3 35568.6 1589.70   1
  -1   5   3 31857.5 1468.70  10
   1   5  -3 35968.8 1642.37  12
  -1  -5   3 36507.3 1303.54  11
  -1  -5   3 36075.2 1457.04  15
   1  -5  -3 35686.2 1723.00   9
   1  -5  -2 143238. 3548.59   7
   1   5  -2 140156. 4006.54   2
  -1  -5   2 148391. 4084.06   8
   1  -5  -2 133778. 3783.80  14
   1  -5  -2 137619. 3747.07   3
  -1   5   2 139972. 4114.46  13
  -1   5   2 140784. 3963.54  12
   1  -5  -2 132486. 3257.71   8
  -1  -5   2 141772. 3773.51  11
  -1   5   2 140658. 3867.17   1
  -1  -5   2 136789. 3387.62  16
   1  -5  -2 135689. 3847.33  16
  -1   5   2 145774. 3776.15   3
  -1   5   2 138611. 4074.32  11
   1   5  -2 139208. 4044.69  12
   1   5  -2 142004. 3657.10   7
   1  -5  -2 131031. 4050.68   9
  -1   5   1 193899. 5023.81   1
   1   5  -1 185984. 5298.39  10
  -1  -5   1 201153. 5312.43   8
   1  -5  -1 201989. 5375.49   9
  -1   5   1 201401. 5049.86  16
  -1  -5   1 202083. 4853.10   1
   1   5  -1 196616. 4773.24   7
  -1   5   1 200676. 5182.85   3
  -1   5   1 195424. 5401.79  11
  -1  -5   1 195379. 5270.52   5
   1  -5  -1 194288. 5418.52   5
  -1  -5   1 200260. 5197.83   2
   1  -5  -1 205943. 4764.60   7
   1   5  -1 199203. 5416.05  12
   1  -5  -1 200783. 5121.55   2
  -1   5   1 190735. 5328.18  12
   1  -5  -1 203150. 4877.94   8
  -1   5   1 199113. 4879.38   8
   1   5  -1 198967. 5210.70   2
   1  -5  -1 198013. 5032.62  16
   1  -5  -1 205452. 5204.16   3
  -1  -5   0 1231.17 310.955   3
   1  -5   0 1972.44 442.165   3
   1  -5   0 1609.41 238.934  16
   1   5   0 1605.54 504.825  10
   1  -5   0 1102.14 524.186   5
   1  -5   0 1087.70 447.299   9
  -1   5   0 1496.61 222.530  16
   1  -5   0 1402.87 348.627   8
  -1   5   0 1396.73 310.712   8
  -1  -5   0 1591.04 310.104   1
   1   5   0 1076.60 115.978   7
  -1  -5   0 1130.18 121.366   7
  -1  -5   0 1609.71 304.988   2
  -1   5   0 1156.48 190.564   7
  -1   5   0 1596.93 456.811  12
  -1  -5   0 1560.33 369.398   8
  -1   5   0 1055.77 211.950   1
  -1   5   0 1364.28 372.552   9
  -1   5   0 1841.28 472.522  11
   1   5   0 1239.35 312.449   2
   1   5   0 1698.91 478.779  12
   1   5   1 6556.18 703.074  10
  -1   5  -1 5131.28 679.045  12
  -1   5  -1 5946.27 502.981   9
   1   5   1 5125.79 360.926   2
  -1  -5  -1 6421.05 387.811   3
  -1  -5  -1 5875.42 356.250   2
  -1  -5  -1 6335.38 366.865   7
   1  -5   1 6020.12 624.682   8
   1   5   1 5498.53 696.117  12
  -1  -5  -1 6139.03 707.197  14
   1  -5   1 5336.71 626.476   3
   1  -5   1 5745.53 541.742   9
  -1   5  -1 6361.08 647.941  11
   1   5   1 5799.01 569.387   1
  -1   5  -1 5513.94 439.644   7
  -1  -5  -1 6369.80 567.363   1
   1   5   2 32304.7 1532.92  10
  -1  -5  -2 31042.2 1174.86   7
   1  -5   2 30739.7 1499.26   8
  -1   5  -2 31659.0 1279.42   7
  -1  -5  -2 30817.3 1388.40   4
  -1  -5  -2 30296.0 1438.84  16
   1   5   2 30762.2 1475.97   6
  -1  -5  -2 30480.6 1511.24  14
  -1   5  -2 29084.4 1539.96  12
  -1   5  -2 31725.8 1366.97  11
   1  -5   2 32347.0 1540.52   3
   1   5   2 30782.4 1432.97   1
   1   5   2 31379.6 1547.61  13
   1   5   3 8306.91 875.818  13
  -1   5  -3 8218.49 441.121  16
  -1  -5  -3 9342.40 935.066   9
   1  -5   3 9080.39 915.380  15
  -1  -5  -3 8410.91 726.049   4
  -1   5  -3 9237.27 1016.92  12
  -1   5  -3 9753.67 722.499  11
   1   5   3 10518.8 915.507  10
  -1   5  -3 9061.70 771.307   7
   1   5   3 9247.25 873.085   6
  -1  -5  -3 9865.64 921.332  16
   1  -5   3 7813.07 913.779   8
   1   5   3 8104.22 863.204   1
   1  -5   3 9293.91 902.346   3
  -1  -5  -3 10831.2 759.906   7
  -1  -5  -3 10281.9 999.123  14
   1   5   4 2534.47 737.084  13
   1  -5   4 1075.57 492.968   3
  -1   5  -4 2685.39 711.737   2
   1  -5   4 1649.13 751.136   8
  -1  -5  -4 2330.01 730.642   9
   1   5   4 2487.73 659.025  10
  -1   5  -4 2250.58 784.354  12
  -1  -5  -4 1724.75 651.443  16
   1  -5   4 2046.61 623.707  15
  -1   5  -4 2589.57 376.695  16
   1   5   4 2604.33 683.221   1
  -1   5  -4 2275.19 586.396   7
   1   5   4 1715.12 530.233   6
  -1  -5  -4 2560.62 812.046  14
  -1  -5  -4 2105.04 503.039   7
  -1  -5  -4 3070.20 502.113   4
  -1   5  -4 1374.85 389.122  11
   1  -5   5 13207.9 1230.64  15
  -1  -5  -5 13021.6 1283.55  16
   1  -5   5 12285.2 1199.03   3
   1  -5   5 14611.2 1340.22   8
  -1   5  -5 13682.8 843.750  16
  -1   5  -5 15018.5 1213.89   7
  -1  -5  -5 12603.4 1072.30   7
   1   5   5 14139.8 1259.04  13
  -1  -5  -5 13346.6 1208.77   9
  -1   5  -5 13995.5 817.194  11
  -1   5  -5 13204.6 1336.52  12
   1   5   5 15122.5 1299.84   1
   1   5   5 11543.4 1066.64  10
   1   5   5 15423.8 1132.10   6
  -1  -5  -6 14673.6 1321.62   9
  -1   5  -6 16107.1 1458.84  12
   1   5   6 18092.4 1293.72   6
   1  -5   6 15358.7 1503.15   8
  -1  -5  -6 16092.6 1299.64   7
  -1  -5  -6 15129.7 1406.52  16
  -1   5  -6 15007.2 1344.47   7
   1   5   6 15212.2 1234.69  10
   1   5   6 14423.7 1355.98  13
   1   5   6 15009.3 1423.60   1
   1  -5   6 16041.7 1425.55   3
   1   5   7 12205.7 1421.85   1
   1  -5   7 14314.7 1444.03   3
  -1   5  -7 12001.3 1409.43  12
  -1   5  -7 11375.9 1293.16   7
   1   5   7 11401.8 1162.19  10
   1  -5   7 12779.5 1482.59   8
  -1  -5  -7 13593.7 1346.69   9
  -1  -5  -7 13483.3 1429.51  16
  -1  -5  -7 13328.3 1332.72   7
   1   5   7 12751.2 1409.58  13
   1   5   7 13603.0 1205.84   6
  -1   5  -8 3269.25 1070.03  12
  -1  -5  -8 2056.21 829.598   9
   1   5   8 1900.43 913.792  13
  -1  -5  -8 1858.01 1026.96  16
  -1  -5  -8 2639.37 913.111   7
   1   5   8 1611.31 883.900   1
   1  -5   8 2140.88 980.633   8
   1  -5   8-78.6271 841.211   3
  -1   5  -8 1880.18 823.733   7
   1  -6  -9 15594.8 1656.66   9
   1  -6  -8 9304.28 1291.36   9
   1  -6  -8 11259.8 1450.18  16
   1   6  -8 10993.7 1368.06   2
   1   6  -8 10182.9 1244.11  12
  -1   6   8 10227.1 1364.53   1
  -1  -6   8 9666.85 1422.74   8
  -1   6   8 9289.16 1371.18  13
  -1  -6   7 2742.29 925.008   8
   1   6  -7 3470.88 821.432   2
  -1   6   7 5099.94 1067.86  13
   1   6  -7 3570.75 876.144  12
   1  -6  -7 4220.25 927.046   9
   1  -6  -7 3700.58 973.155  16
  -1   6   7 1723.65 805.241   1
   1   6  -6 1876.89 654.120  12
  -1   6   6 2255.80 548.820  10
   1  -6  -6 1890.71 744.909   9
   1  -6  -6 1793.31 755.181  16
  -1   6   6 1527.06 774.447  13
  -1  -6   6 961.164 774.264   8
  -1   6   6 1817.40 678.312   1
   1   6  -6 2439.99 786.074   2
  -1  -6   5 5831.68 492.004   1
   1  -6  -5 5034.50 905.907  16
   1  -6  -5 4790.14 934.201   9
  -1   6   5 4075.31 812.622   1
  -1  -6   5 5282.40 997.175   8
  -1   6   5 5155.54 940.296  13
   1  -6  -5 3860.34 492.003   4
  -1   6   5 6629.50 749.567  10
   1   6  -5 6858.25 953.087  12
   1   6  -5 6304.08 956.959   2
   1   6  -5 6118.00 524.473  16
   1  -6  -4 3434.18 320.424   2
  -1  -6   4 4048.03 274.459   9
  -1   6   4 4285.14 734.445   1
   1  -6  -4 3629.93 810.518   9
   1  -6  -4 4225.04 774.189  14
  -1  -6   4 3898.17 339.594   1
  -1   6   4 3023.31 675.310  11
  -1  -6   4 3315.86 604.462  15
   1  -6  -4 3511.51 742.175  16
   1   6  -4 3160.11 770.250   2
  -1   6   4 3238.46 841.688  13
  -1  -6   4 3448.60 776.540   8
   1   6  -4 4586.99 767.436  12
  -1   6   4 4125.74 664.409  10
   1  -6  -3 1991.86 338.483   7
  -1   6   3 2008.72 655.348  13
  -1  -6   3 2246.70 342.684   9
  -1  -6   3 1993.99 198.941  16
  -1   6   3 1396.54 535.853   1
  -1  -6   3 2027.30 201.830   1
   1  -6  -3 2369.72 427.081   3
   1  -6  -3 3219.77 756.147   9
  -1   6   3 2636.47 405.129   3
   1   6  -3 1767.94 623.308   2
  -1   6   3 1834.54 523.870  12
  -1  -6   3 3020.05 707.912   8
   1   6  -3 2102.80 645.023  12
   1  -6  -3 2296.35 583.102  14
  -1   6   3 2265.83 618.786  11
  -1   6   3 2506.20 572.586  10
  -1  -6   3 2490.35 482.623  15
   1  -6  -3 2445.37 564.105  16
  -1  -6   2 102231. 2942.41   9
   1  -6  -2 97135.5 3336.74   5
   1  -6  -2 99413.4 2851.73   2
   1  -6  -2 96296.0 3320.80   9
  -1  -6   2 102162. 3206.02   5
   1   6  -2 99954.7 3233.10   2
   1  -6  -2 103559. 2544.52   8
  -1  -6   2 103146. 3292.36   8
   1  -6  -2 102082. 2665.13   7
   1   6  -2 103550. 2786.07   7
  -1  -6   2 96611.8 2513.91  16
   1  -6  -2 100329. 2993.86   3
  -1  -6   2 100745. 2530.46   1
   1  -6  -2 103514. 3092.28  14
   1  -6  -2 103487. 3100.91  16
   1   6  -2 105071. 3370.54  12
  -1   6   2 97884.4 3226.96  12
  -1   6   2 98768.9 3074.75   1
  -1   6   2 109121. 3415.23  11
  -1   6   2 96044.9 3328.57  13
  -1  -6   1 29777.2 1428.60   5
  -1  -6   1 30012.8 1020.27   1
   1  -6  -1 31870.2 1120.77   8
   1  -6  -1 29133.1 1466.07   9
   1   6  -1 28426.5 884.458   7
   1  -6  -1 30439.6 1259.72   2
  -1   6   1 30044.7 1507.12  11
  -1   6   1 27125.6 1141.93   1
   1  -6  -1 28502.9 853.332   7
  -1  -6   1 31061.9 1417.21   8
  -1   6   1 29651.7 1167.51  16
  -1   6   1 28797.0 1449.56  12
   1  -6  -1 28606.4 1514.22   5
   1   6  -1 30096.5 1506.02  12
   1  -6  -1 30280.8 1325.28   3
   1   6  -1 28723.6 1325.03   2
   1  -6  -1 33033.6 1209.17  16
  -1   6   0 7727.86 427.717   1
  -1  -6   0 7569.70 546.701   1
  -1  -6   0 7496.63 785.895   5
   1   6   0 9143.78 639.159   2
   1  -6   0 7187.74 744.065   9
  -1  -6   0 7653.18 578.966   3
  -1  -6   0 8014.96 681.333   8
  -1   6   0 8012.06 610.581   8
   1  -6   0 6418.64 801.042   5
  -1  -6   0 7354.89 559.807   2
   1  -6   0 7508.40 434.756  16
   1  -6   0 7919.45 732.777   3
   1   6   0 8328.13 840.239  12
   1  -6   0 7512.47 618.536   8
  -1   6   0 8054.81 376.983   7
   1   6   0 8080.32 827.507  10
  -1   6   0 8343.33 789.394  11
  -1   6   0 8420.55 827.293  12
   1  -6   1 35139.0 1433.91   9
   1  -6   1 33640.8 1535.56   8
  -1  -6  -1 37682.0 1505.91  16
   1  -6   1 36153.2 1639.30   3
  -1  -6  -1 35327.5 1421.74   8
  -1   6  -1 38306.0 1251.58   7
   1   6   1 37122.8 1479.50   1
  -1   6  -1 36825.2 1622.46  11
  -1  -6  -1 37777.8 1238.73   3
  -1   6  -1 38939.3 1802.14  12
  -1  -6  -1 35579.6 1206.47   2
   1   6   1 35240.0 1680.85  10
  -1  -6  -1 35844.9 1041.09   7
   1   6   1 38325.6 1770.84  12
  -1  -6  -1 34113.0 1643.13  14
  -1  -6  -2 151374. 4607.93  14
  -1  -6  -2 157381. 4672.82   9
  -1  -6  -2 161503. 4495.51  16
   1  -6   2 151659. 4616.05   3
  -1   6  -2 151371. 4373.12  11
   1   6   2 149617. 4641.34  13
   1  -6   2 162894. 4608.18   8
  -1   6  -2 159116. 4755.25  12
  -1   6  -2 155316. 4168.94   7
   1   6   2 149090. 4427.18   1
  -1  -6  -2 148290. 3679.84   3
   1   6   2 149940. 4575.17  10
  -1  -6  -2 159814. 3978.45   7
   1   6   3 35014.1 1728.68   1
   1   6   3 37433.7 1795.62  10
   1  -6   3 34159.9 1738.60  15
  -1  -6  -3 31986.1 1776.58   9
   1  -6   3 34083.7 1777.70   8
  -1  -6  -3 31221.4 1530.04   4
   1   6   3 32882.2 1690.49   6
  -1   6  -3 35185.4 1550.17   7
  -1  -6  -3 33661.9 1806.42  14
   1  -6   3 35068.1 1791.30   3
   1   6   3 33279.6 1781.82  13
  -1   6  -3 33416.2 1491.92  11
  -1  -6  -3 31561.5 1361.56   7
  -1  -6  -3 36042.1 1758.11  16
  -1   6  -3 32736.1 1809.72  12
   1   6   4 77377.4 2877.73   6
  -1   6  -4 76096.3 2085.00  16
  -1   6  -4 80501.7 2557.79  11
   1  -6   4 80657.5 3131.31   8
  -1  -6  -4 75079.6 3007.67  16
  -1   6  -4 73852.8 2767.78   7
   1   6   4 75277.0 3002.64   1
  -1  -6  -4 73233.2 3029.16  14
  -1  -6  -4 72456.6 3037.19   9
   1   6   4 76932.0 3083.21  13
   1   6   4 74567.8 2904.99  10
  -1  -6  -4 74781.4 2644.17   7
  -1  -6  -4 77866.0 2657.38   4
  -1   6  -4 77051.4 3129.87  12
   1  -6   4 78482.1 3092.56   3
   1  -6   4 73215.7 2955.29  15
  -1  -6  -5 37281.4 2132.21  16
  -1  -6  -5 39113.6 2131.54   9
   1  -6   5 39335.4 2231.81   8
   1  -6   5 40728.7 2196.29   3
  -1  -6  -5 41633.6 1741.88   4
  -1  -6  -5 40235.4 2233.41  14
  -1   6  -5 43744.0 2301.97  12
   1  -6   5 34934.5 2058.88  15
  -1   6  -5 41250.3 2063.72   7
   1   6   5 38797.4 1994.67  10
  -1  -6  -5 37552.0 1852.87   7
   1   6   5 41388.5 2214.03   1
   1   6   5 43870.9 2044.32   6
   1   6   5 42778.0 2262.75  13
   1   6   6 424.800 506.893   6
   1  -6   6 310.957 614.366   3
   1   6   6 852.244 651.936   1
  -1  -6  -6 103.569 691.106   9
   1  -6   6 1654.87 771.285   8
   1   6   6 6.39137 731.553  13
   1   6   6 675.402 532.710  10
  -1   6  -6 179.922 756.664  12
  -1  -6  -6 696.503 532.805   7
  -1   6  -6 214.076 626.513   7
  -1  -6  -6 146.979 719.865  16
   1   6   7 27748.8 1789.78   6
  -1  -6  -7 28238.5 1988.31   9
  -1  -6  -7 27895.4 2105.73  16
   1  -6   7 33496.3 2182.57   3
  -1   6  -7 27739.1 1992.85   7
   1   6   7 29683.3 2144.96  13
   1   6   7 29247.8 2142.61   1
  -1   6  -7 28387.0 2128.77  12
   1   6   7 26803.9 1803.35  10
   1  -6   7 32110.2 2302.00   8
  -1  -6  -7 27881.7 1895.62   7
  -1  -6  -8 11500.4 1503.73   9
   1   6   8 14513.2 1635.39  13
  -1   6  -8 12379.9 1462.36   7
  -1  -6  -8 14038.4 1483.88   7
  -1   6  -8 12571.6 1507.69  12
   1   7  -8 3120.86 907.580   2
   1  -7  -8 1822.91 911.711   9
   1   7  -8 1733.38 850.924  12
   1   7  -7 24500.5 1795.19  12
   1  -7  -7 22370.6 1835.39   9
  -1   7   7 22731.5 1948.87  13
   1   7  -7 25291.0 1945.56   2
  -1  -7   7 22673.7 1946.40   8
   1  -7  -7 19763.4 1765.06  16
  -1   7   7 22791.8 1831.96   1
  -1   7   6 28235.0 1614.35  10
   1  -7  -6 27762.8 1957.80   9
   1   7  -6 27839.4 1916.53   2
  -1  -7   6 26538.3 1932.91   8
   1  -7  -6 25475.2 1826.32  16
   1   7  -6 27299.5 1803.84  12
  -1   7   6 27270.3 1878.18   1
  -1   7   6 24147.5 1854.99  13
  -1   7   5 347.819 479.214  10
   1  -7  -5 35.6732 667.792   9
   1   7  -5 192.091 620.265  12
  -1   7   5 930.565 639.031  13
   1  -7  -5 91.5295 353.365   4
   1  -7  -5 234.058 586.403  16
  -1   7   5 44.0305 604.567   1
   1  -7  -5 175.642 663.249  14
   1   7  -5 518.555 656.996   2
  -1  -7   5 60.1831 682.636   8
  -1   7   4 105440. 3615.06  10
   1  -7  -4 109521. 3956.81   9
  -1   7   4 109699. 3756.59   1
  -1  -7   4 110352. 3915.44   8
   1  -7  -4 111685. 3781.37  16
  -1  -7   4 111601. 3563.66  15
   1  -7  -4 109694. 3656.26  14
  -1   7   4 108350. 3959.69  13
   1   7  -4 110910. 3870.60  12
   1   7  -4 108354. 3899.95   2
   1  -7  -3 13755.4 850.630   3
  -1  -7   3 12652.9 1108.03   8
  -1  -7   3 12758.4 744.236   9
   1  -7  -3 10653.8 657.883   2
   1  -7  -3 13244.3 1246.97   9
   1  -7  -3 11720.4 986.389  16
  -1   7   3 11394.0 960.803   1
  -1   7   3 10710.6 999.653  12
   1  -7  -3 13829.2 1023.12  14
   1   7  -3 12511.3 1113.25  12
  -1   7   3 12432.8 1175.55  13
  -1  -7   3 11134.6 877.092  15
  -1   7   3 10115.8 1032.81  11
   1   7  -3 11417.6 1081.21   2
   1  -7  -3 11984.0 683.059   7
  -1  -7   2 222.616 99.2770  16
  -1  -7   2 130.217 98.8084   1
  -1  -7   2 247.716 404.411   9
   1  -7  -2 779.994 685.535   9
   1  -7  -2 217.966 626.343   5
  -1  -7   2-284.872 557.606   5
   1  -7  -2 67.6889 398.647  16
  -1   7   2 614.254 418.347   1
   1   7  -2 1423.14 575.995   2
  -1  -7   2 559.821 519.593   8
   1   7  -2 885.154 234.540   7
  -1  -7   2 203.886 101.238  16
   1  -7  -2 302.292 209.437   8
   1  -7  -2-124.309 424.491  14
  -1   7   2 444.958 574.554  11
   1  -7  -2-8.96791 262.990   2
  -1   7   2 227.415 465.810  12
   1  -7  -2 52.1551 146.381   7
   1   7  -2 391.029 567.070  12
   1  -7  -2 374.553 359.254   3
  -1   7   1 142979. 3800.27   1
  -1  -7   1 135390. 4066.19   9
   1  -7  -1 145035. 4297.75   9
   1  -7  -1 134226. 4368.56   5
   1   7  -1 141864. 4096.97   2
  -1   7   1 132102. 4298.59  11
  -1  -7   1 143106. 3571.74   1
   1   7  -1 141991. 4405.17  12
  -1  -7   1 139280. 3558.32  16
   1  -7  -1 136310. 3716.28   8
  -1  -7   1 138411. 4152.92   8
   1  -7  -1 137871. 4051.54   3
  -1   7   1 139046. 4318.55  12
  -1  -7   1 138979. 4244.45   5
  -1  -7   1 137928. 4053.94   3
   1  -7  -1 139845. 3793.45  16
   1   7   0 12416.5 1046.16  10
  -1  -7   0 14018.7 1028.99   9
   1  -7   0 13768.5 1011.38   9
   1  -7   0 13299.2 1170.09   5
  -1   7   0 10544.8 399.832   7
   1  -7   0 14111.9 875.061   8
   1  -7   0 13443.3 982.062   3
  -1   7   0 11839.1 1015.07  11
  -1  -7   0 13056.1 881.060   8
  -1  -7   0 12937.8 808.331   3
  -1  -7   0 13446.5 749.379   1
  -1  -7   0 12462.8 733.711  16
   1  -7   0 13870.7 606.172  16
  -1   7   0 12546.9 1062.71  12
  -1  -7   0 12803.6 1049.33   5
   1   7   0 12489.5 823.648   2
   1   7   0 11751.6 1025.86  12
  -1   7   0 11966.2 567.290   1
  -1  -7  -1 2923.94 393.110   3
  -1  -7  -1 2808.94 462.320   8
   1  -7   1 2076.61 563.445   3
   1   7   1 3280.16 696.837  10
  -1  -7  -1 2792.45 718.534   9
   1  -7   1 3078.51 593.140   9
  -1  -7  -1 2756.33 651.843  14
  -1  -7  -1 2147.71 481.717  16
   1   7   1 3444.96 767.956  12
   1  -7   1 2259.88 563.762   8
  -1   7  -1 2651.13 675.461  12
  -1  -7  -1 2600.71 335.747   2
  -1   7  -1 2479.62 603.368  11
  -1   7  -1 2826.88 312.996   7
   1   7   2 130917. 3596.88  10
  -1  -7  -2 122591. 3554.12   9
   1  -7   2 121669. 3403.74   8
  -1  -7  -2 126466. 2555.24   7
  -1  -7  -2 127757. 3320.90  16
   1  -7   2 124250. 3515.27   3
   1   7   2 126168. 3276.99   1
  -1  -7  -2 125141. 3541.43  14
  -1  -7  -2 125502. 2427.48   3
  -1   7  -2 128877. 3716.49  12
  -1   7  -2 132670. 2888.14   7
  -1   7  -2 129368. 3321.79  11
   1   7   3 67324.1 2773.31  10
  -1  -7  -3 70966.4 2922.55   9
  -1   7  -3 66684.8 2902.63  12
   1  -7   3 75391.0 2854.38  15
  -1  -7  -3 67779.5 2814.31  14
   1  -7   3 71274.7 2858.45   8
  -1  -7  -3 69733.1 2609.27   4
  -1  -7  -3 68980.0 2732.86  16
   1   7   3 73518.9 2766.25   1
  -1   7  -3 69367.7 2444.99   7
   1  -7   3 66824.3 2798.59   3
   1   7   3 76047.5 2979.80  13
  -1  -7  -3 68602.1 2248.00   7
  -1   7  -3 71515.6 2533.14  11
   1   7   4 4222.10 812.765   1
   1  -7   4 3772.46 830.229   3
   1   7   4 3933.14 758.026   6
  -1  -7  -4 4375.68 927.197   9
  -1   7  -4 3797.82 641.941   7
   1   7   4 4069.70 795.145  10
  -1   7  -4 3510.78 811.602  12
  -1  -7  -4 2934.79 783.671  14
  -1   7  -4 3214.15 524.762  11
  -1  -7  -4 2947.86 577.276   4
  -1  -7  -4 3692.16 577.015   7
   1  -7   4 5445.00 958.454   8
  -1  -7  -4 4848.29 856.161  16
   1  -7   4 3725.26 730.578  15
   1   7   4 4072.30 792.302  13
   1  -7   5 3714.54 825.347  15
   1   7   5 3978.92 897.702  13
   1   7   5 2924.60 794.823   1
   1  -7   5 1500.14 684.777   3
   1   7   5 2693.90 647.952   6
  -1  -7  -5 3403.61 815.215   9
  -1  -7  -5 2942.15 590.941   4
  -1  -7  -5 1995.42 900.586  14
   1  -7   5 2827.27 816.751   8
  -1  -7  -5 2609.01 817.837  16
   1   7   5 2850.74 711.761  10
  -1   7  -5 4027.86 972.570  12
  -1  -7  -5 1708.59 552.083   7
  -1   7  -5 2610.99 647.008   7
   1   7   6 3299.55 910.904   1
  -1  -7  -6 5199.83 1013.65  16
   1  -7   6 4800.08 995.401   3
   1   7   6 4757.08 792.368   6
  -1  -7  -6 4054.14 754.687   7
   1   7   6 4676.83 827.700  10
   1   7   6 5724.34 1081.23  13
  -1  -7  -6 4196.80 990.032   9
  -1   7  -6 3676.53 968.900  12
   1  -7   6 5616.18 1089.59   8
  -1   7  -6 5907.70 913.316   7
  -1  -7  -7 38429.1 2424.44   9
  -1  -7  -7 31931.4 2279.53  16
   1  -7   7 39069.0 2564.89   8
   1  -7   7 36784.3 2394.19   3
   1   7   7 33894.6 2397.90  13
  -1   7  -7 32212.7 2313.28  12
   1   7   7 36855.5 2167.31  10
  -1   7  -7 36159.0 2273.44   7
   1   7   7 35668.5 2375.34   1
  -1  -7  -8 2859.10 1014.81   9
  -1   7  -8 2469.69 842.797   7
   1   8  -8 870.892 782.247  12
   1  -8  -7 13507.3 1545.57   9
   1   8  -7 15245.7 1678.24   2
  -1   8   7 14076.8 1556.29   1
   1   8  -7 14124.9 1502.25  12
  -1   8   7 12985.2 1581.15  13
  -1  -8   7 13840.0 1612.18   8
   1  -8  -7 13373.8 1536.57  16
  -1   8   6 9655.31 1043.20  10
   1  -8  -6 9267.27 1340.86   9
   1  -8  -6 12742.2 1343.38  16
  -1   8   6 13272.4 1364.03   1
   1   8  -6 11787.0 1418.28   2
  -1  -8   6 9622.92 1273.14   8
  -1   8   6 10629.1 1359.01  13
   1   8  -6 10079.3 1224.72  12
  -1   8   5 1438.61 595.266  10
  -1   8   5 2566.51 751.683   1
   1  -8  -5 2271.61 949.343   9
   1  -8  -5 2566.10 521.560   4
  -1  -8   5 2178.96 803.163   8
   1  -8  -5 1991.97 762.785  14
  -1   8   5 2533.37 874.823  13
   1   8  -5 1194.01 717.238  12
   1  -8  -5 1839.55 695.734  16
   1   8  -5 1223.40 734.089   2
  -1  -8   5 2585.87 645.337  15
  -1  -8   4 5343.17 893.488   8
   1   8  -4 7289.97 990.472  12
   1  -8  -4 7478.02 1111.22   9
  -1  -8   4 5518.16 735.568  15
   1  -8  -4 6909.03 873.280  14
   1  -8  -4 8174.80 964.208  16
  -1   8   4 7927.75 1099.25  13
  -1   8   4 4808.13 802.288   1
   1   8  -4 6130.42 968.309   2
   1  -8  -3 4359.63 871.307   5
   1  -8  -3 4843.21 995.141   9
  -1  -8   3 4674.48 539.936   9
  -1  -8   3 4628.99 792.182   8
   1   8  -3 4296.96 844.485   2
   1  -8  -3 3443.94 654.018  16
  -1  -8   3 4342.09 631.322  15
  -1   8   3 4139.06 756.819  12
  -1   8   3 3742.41 771.851  11
   1   8  -3 4862.29 810.818  12
  -1   8   3 3674.54 824.160  13
   1  -8  -3 3533.90 671.316  14
   1  -8  -3 3790.17 537.579   3
  -1   8   3 3603.71 647.364   1
  -1  -8   2 31268.0 1458.91   9
   1   8  -2 28435.2 1634.97   2
  -1  -8   2 30569.0 1694.77   5
   1  -8  -2 32594.2 1134.61   8
  -1  -8   2 30188.4 1661.52   8
   1  -8  -2 30268.6 1456.83  16
   1  -8  -2 30301.5 1806.46   5
  -1  -8   2 31253.8 1635.22   3
   1  -8  -2 31186.4 1582.07  14
   1  -8  -2 30806.4 1462.41   3
  -1   8   2 32235.6 1772.01  12
   1  -8  -2 30761.4 1820.42   9
  -1   8   2 33849.3 1500.71   1
   1   8  -2 30182.7 1763.75  12
  -1   8   2 31851.0 1803.62  11
  -1   8   1 23083.5 1483.70  11
   1   8  -1 20675.9 1247.08   2
  -1  -8   1 23011.7 1298.82   9
   1  -8  -1 20605.5 1408.44   9
   1  -8  -1 20628.4 1475.73   5
  -1  -8   1 20850.6 843.433   1
   1  -8  -1 21377.8 1037.57   8
  -1  -8   1 20662.5 1272.77   8
  -1  -8   1 19452.7 1394.96   5
  -1  -8   1 21568.1 858.477  16
  -1  -8   1 20085.3 1206.23   3
  -1   8   1 22132.5 1038.55   1
  -1   8   1 21980.9 1431.39  12
   1  -8  -1 22050.0 1247.91   3
   1   8  -1 20082.7 1410.70  12
   1  -8  -1 20708.0 1024.66  16
   1  -8   0 36186.6 1796.44   9
  -1  -8   0 38696.7 1715.98   8
   1  -8   0 39639.4 1264.82  16
   1  -8   0 39106.4 2047.08   5
  -1   8   0 39682.3 1250.31   1
   1  -8   0 41458.9 1859.01   3
   1   8   0 36282.1 1944.91  12
  -1   8   0 35151.1 1910.30  12
  -1  -8   0 41744.0 2010.89   5
  -1  -8   0 37777.3 1599.69   3
   1  -8   0 37597.6 1630.65   8
  -1  -8   0 41012.4 1912.25   9
  -1  -8   0 39438.1 1492.27  16
  -1  -8   0 38574.8 1477.82   1
  -1   8   0 41712.5 1980.27  11
   1   8   1 21152.7 1440.36  10
   1  -8   1 21869.3 1269.55   9
  -1  -8  -1 20100.1 984.019   3
  -1  -8  -1 19426.4 947.036   2
   1  -8   1 18667.6 1227.26   8
  -1   8  -1 22109.5 802.025   7
  -1  -8  -1 20377.5 1131.57   8
  -1  -8  -1 17646.5 1326.68   9
   1   8   1 19996.2 1440.28  12
  -1   8  -1 20264.5 1464.72  12
  -1  -8  -1 18928.2 1115.88  16
   1  -8   1 20328.9 1334.11   3
  -1   8  -1 21324.4 1363.62  11
  -1  -8  -1 21426.5 1427.34  14
   1   8   2 183746. 5642.66  10
   1   8   2 186408. 5305.00   1
  -1  -8  -2 175151. 5610.72   9
  -1   8  -2 193463. 4859.74   7
  -1  -8  -2 176239. 5562.68  14
   1  -8   2 185651. 5506.88   8
  -1  -8  -2 178394. 5288.33  16
  -1  -8  -2 184975. 4997.16   8
  -1   8  -2 180844. 5379.84  11
  -1  -8  -2 184572. 4619.43   3
  -1   8  -2 193572. 5814.25  12
   1  -8   2 185870. 5608.63   3
   1  -8   2 184337. 5022.99   9
   1   8   2 174735. 5640.07  12
   1   8   3 93208.3 3407.18   1
   1   8   3 90218.1 3523.17  10
   1   8   3 89899.3 3625.76  13
  -1  -8  -3 97763.0 3704.12   9
   1  -8   3 104319. 3662.65   8
  -1  -8  -3 97802.8 3410.05   4
  -1   8  -3 94691.5 3258.31  11
   1  -8   3 100341. 3688.46   3
  -1   8  -3 94602.0 3723.89  12
  -1  -8  -3 94453.9 3438.71  16
  -1   8  -3 98842.2 3099.32   7
  -1  -8  -3 98797.0 3638.77  14
  -1   8  -4 26525.1 1413.13  11
   1   8   4 25923.1 1784.60  13
  -1  -8  -4 25867.2 1815.12   9
   1  -8   4 27974.2 1851.85   8
   1   8   4 23231.6 1643.78  10
  -1  -8  -4 24975.8 1513.78   4
  -1  -8  -4 25784.2 1715.51  16
   1  -8   4 23596.7 1639.78  15
  -1  -8  -4 24872.3 1754.55  14
   1   8   4 25256.4 1667.10   1
  -1   8  -4 25202.4 1443.02   7
   1  -8   4 23424.8 1712.18   3
  -1   8  -4 23870.9 1762.41  12
   1  -8   5 12896.4 1432.20   8
   1   8   5 14674.9 1468.28  13
   1   8   5 12292.1 1263.79  10
  -1  -8  -5 13981.0 1492.93   9
  -1  -8  -5 14766.6 1435.85  16
  -1   8  -5 12012.4 1122.63   7
  -1  -8  -5 13349.8 1084.32   4
  -1  -8  -5 13319.8 1448.14  14
   1  -8   5 14445.6 1357.55  15
   1   8   5 15208.8 1441.07   1
   1  -8   5 12645.5 1343.22   3
  -1   8  -5 12882.1 1400.36  12
  -1  -8  -6 30157.7 2139.16   9
   1  -8   6 34183.6 2328.91   8
  -1   8  -6 37183.9 2397.10  12
  -1   8  -6 30146.8 1953.29   7
   1   8   6 30729.2 1989.95  10
   1  -8   6 33292.2 2258.93   3
   1   8   6 31217.7 2154.50   1
   1   8   6 31173.0 2227.84  13
  -1  -8  -6 31774.3 2195.04  16
  -1  -8  -7 3986.14 1155.27   9
   1   8   7 5200.84 1118.55  13
  -1   8  -7 3720.91 1061.72  12
   1   8   7 4412.87 909.329  10
  -1   8  -7 5230.51 967.134   7
   1  -9  -7-28.5065 696.029  16
   1  -9  -7 366.422 981.430   9
   1   9  -7 1504.13 868.594  12
  -1   9   7 70.7835 690.299   1
   1  -9  -6 37550.9 2490.15   9
   1   9  -6 40550.1 2521.43   2
   1   9  -6 40403.7 2415.53  12
  -1  -9   6 40613.4 2539.25   8
  -1   9   6 39540.3 2564.97  13
   1  -9  -6 33103.2 2213.77  16
  -1   9   6 39126.1 2371.88   1
  -1  -9   5 54611.7 2854.14   8
   1  -9  -5 56191.2 2954.93   9
   1   9  -5 55121.1 2884.53   2
   1  -9  -5 57109.2 2725.24  16
  -1   9   5 52607.7 2876.75  13
  -1  -9   5 57295.4 2524.64  15
  -1   9   5 57816.8 2757.95   1
   1  -9  -5 59843.8 2673.60  14
   1   9  -5 56041.5 2846.74  12
   1  -9  -4 3024.52 865.920   9
  -1  -9   4 3951.73 701.464  15
  -1   9   4 2285.42 847.314  13
   1  -9  -4 3521.08 770.420  16
   1   9  -4 2947.00 805.682  12
  -1   9   4 3611.85 771.545   1
   1  -9  -4 4481.13 829.045  14
  -1  -9   4 4112.56 898.192   8
  -1  -9   4 2318.57 654.765   3
   1   9  -4 2576.24 765.032   2
  -1   9   3 32219.4 1913.46  12
  -1  -9   3 36615.6 1543.35   9
   1  -9  -3 34765.4 2078.45   5
   1  -9  -3 31997.2 2001.35   9
   1   9  -3 33585.5 1956.46   2
  -1  -9   3 36641.3 1997.75   8
   1  -9  -3 33983.0 1736.25  16
   1  -9  -3 35806.9 1583.39   3
  -1  -9   3 38087.5 1792.08  15
   1  -9  -3 38208.9 1889.56  14
  -1   9   3 31588.8 1972.37  11
  -1  -9   3 31233.9 1863.09   3
  -1   9   3 31189.4 1699.48   1
   1   9  -3 31144.1 1956.00  12
  -1  -9   2 73085.3 2564.05   9
   1  -9  -2 64730.7 2872.59   9
   1  -9  -2 68102.4 2986.14   5
   1  -9  -2 68209.2 2654.15  14
  -1  -9   2 68777.6 2784.86   8
   1  -9  -2 69718.1 2473.22  16
   1  -9  -2 70193.4 2526.60   3
  -1  -9   2 65783.3 2816.32   5
   1   9  -2 65905.3 2956.52  12
  -1  -9   2 70993.4 2751.72   3
  -1   9   2 66739.0 2455.97   1
   1   9  -2 68197.1 2772.09   2
  -1   9   2 66832.9 2933.17  11
  -1   9   2 63147.9 2833.57  12
  -1   9   1 48102.3 2332.33  12
   1   9  -1 50701.3 2434.18  12
   1   9  -1 47591.9 2088.14   2
   1  -9  -1 45721.7 2262.45   9
   1  -9  -1 47511.6 2396.31   5
  -1  -9   1 48068.5 2302.58   5
   1  -9  -1 44351.9 1702.35  16
   1  -9  -1 50810.0 2104.60   3
   1  -9  -1 48049.3 1797.98   8
  -1   9   1 50541.5 1773.51   1
  -1  -9   1 49902.1 2137.24   9
  -1  -9   1 45826.1 2091.56   8
  -1  -9   1 47171.7 2036.38   3
  -1   9   1 46341.2 2335.50  11
   1  -9   0 8028.86 864.751   3
  -1  -9   0 10515.9 1057.49   9
  -1   9   0 9493.00 1067.31  11
  -1  -9   0 9312.95 1068.75   5
   1  -9   0 10334.2 1168.82   5
  -1  -9   0 10390.9 727.699  16
  -1  -9   0 10113.9 828.384   3
   1   9   0 9512.68 1082.39  12
  -1   9   0 9579.26 1059.05  12
   1  -9   0 10482.1 884.592   8
  -1  -9   0 8730.16 838.404   8
   1  -9   0 10980.4 1088.24   9
  -1   9  -1 37108.7 1979.28  11
  -1  -9  -1 39475.7 2046.09   9
  -1  -9  -1 37341.3 2066.84   5
   1  -9   1 38454.0 1822.55   9
   1  -9   1 36950.5 1822.44   8
  -1  -9  -1 35973.7 1645.61   8
   1   9   1 32356.2 1979.94  10
  -1  -9  -1 38896.3 1546.76   3
  -1  -9  -1 39226.1 2069.01  14
  -1  -9  -1 40314.0 1696.26  16
   1   9   1 37081.3 2103.43  12
  -1   9  -1 33928.9 2020.66  12
   1  -9   1 38839.8 1980.97   3
  -1   9  -2 32355.0 2027.94  12
   1   9   2 34529.6 2019.58  10
   1  -9   2 35024.1 1874.61   8
  -1  -9  -2 34589.8 1958.77  14
   1  -9   2 33771.4 1579.55   9
  -1  -9  -2 32417.7 1959.78   9
  -1  -9  -2 33860.8 1727.99  16
   1   9   2 34865.1 2040.46  12
  -1   9  -2 36110.9 1850.83  11
  -1  -9  -2 34761.2 1521.43   8
   1  -9   2 35034.5 1968.82   3
   1  -9   3 3111.26 759.693   3
  -1  -9  -3 3454.29 901.954   9
   1   9   3 3281.87 710.589   1
   1  -9   3 2694.93 799.106   8
  -1  -9  -3 3933.92 727.548  16
  -1   9  -3 2214.79 562.559  11
  -1   9  -3 2533.79 744.006  12
  -1  -9  -3 1706.18 772.370  14
   1   9   3 2582.23 803.188  10
  -1  -9  -3 3991.12 760.533   4
   1   9   4 2931.11 824.543  10
  -1  -9  -4 3480.24 718.315   4
  -1  -9  -4 5153.83 984.686   9
   1  -9   4 4739.36 913.832  15
  -1  -9  -4 5699.12 1039.09  14
   1   9   4 4073.39 928.251  13
   1  -9   4 4705.02 1014.05   3
  -1  -9  -4 4591.77 900.523  16
  -1   9  -4 4261.61 684.639  11
  -1   9  -4 6764.35 1127.17  12
   1  -9   4 3550.25 831.884   8
   1   9   4 7507.01 994.836   1
   1  -9   5 8676.10 1225.85   3
   1   9   5 9169.15 1176.90  10
  -1  -9  -5 9429.04 1291.32   9
  -1  -9  -5 8152.11 1146.74  14
   1  -9   5 10013.9 1306.37   8
  -1   9  -5 8472.50 1261.63  12
  -1  -9  -5 8826.61 1155.12  16
   1   9   5 7293.88 1180.23  13
   1  -9   5 8406.62 1162.74  15
   1   9   5 10222.5 1207.82   1
   1   9   6 9323.32 1233.64   1
   1   9   6 8086.42 1129.86  10
  -1  -9  -6 8559.49 1386.91   9
   1  -9   6 9470.37 1378.16   8
   1  -9   6 9212.36 1298.89   3
  -1  -9  -6 11799.0 1444.30  16
   1  -9   6 7533.52 1121.26  15
  -1   9  -6 9757.67 1374.40  12
   1   9   6 6774.07 1174.47  13
   1   9   7 4472.38 993.216  10
  -1 -10   6 21750.3 1849.17   3
   1  10  -6 15727.4 1650.34   2
   1 -10  -6 17544.5 1873.48   9
  -1  10   6 17339.0 1762.39  13
   1 -10  -6 16541.2 1596.35  16
   1  10  -6 19686.1 1732.32  12
  -1 -10   6 14593.1 1683.32   8
  -1  10   6 15251.7 1580.69   1
  -1 -10   5 1440.89 881.021   8
   1 -10  -5 2491.55 1018.28   9
  -1  10   5 2841.81 814.739   1
   1  10  -5 953.866 841.600   2
  -1  10   5 2791.59 919.405  13
   1 -10  -5 1255.68 744.957  14
   1  10  -5 2495.80 833.662  12
   1 -10  -5 1205.29 702.377  16
  -1 -10   5 2632.44 767.950   3
  -1 -10   4 2513.50 768.058   3
   1 -10  -4 2394.00 776.217  14
  -1  10   4 2421.66 681.392   1
   1 -10  -4 2662.48 934.318   9
   1 -10  -4 3618.65 975.394   5
   1  10  -4 3267.62 866.840   2
  -1 -10   4 3165.22 834.377   8
   1 -10  -4 2915.97 748.773  16
  -1 -10   4 2745.26 628.195  15
   1  10  -4 1690.28 795.496  12
  -1 -10   3 4825.71 897.051   8
  -1 -10   3 4522.11 848.296   3
   1 -10  -3 5124.13 1047.60   9
   1 -10  -3 4145.44 917.666   5
  -1  10   3 4342.39 708.722   1
  -1  10   3 4884.09 878.906  12
   1 -10  -3 5288.77 752.494  16
  -1 -10   3 4723.55 711.929  15
   1  10  -3 3645.57 798.151   2
   1  10  -3 5081.21 992.742  12
   1 -10  -3 4924.04 814.296  14
  -1  10   3 3480.69 818.203  11
  -1 -10   2 21957.2 1527.20   8
   1 -10  -2 21680.9 1675.04   9
  -1 -10   2 22331.0 1374.68   9
   1  10  -2 20443.2 1497.27   2
   1 -10  -2 20900.4 1739.38   5
  -1  10   2 22741.5 1264.56   1
   1 -10  -2 21291.6 1304.29   3
  -1 -10   2 19825.0 1440.85   3
   1 -10  -2 20972.0 1426.12  14
   1 -10  -2 21170.7 1250.12  16
  -1  10   2 19923.3 1600.94  12
   1  10  -2 23700.5 1737.73  12
  -1  10   2 20471.8 1618.16  11
   1 -10  -1 37263.0 2073.48   9
   1 -10  -1 37651.5 2213.13   5
  -1 -10   1 38225.1 2142.14   5
  -1  10   1 35384.6 2104.29  12
  -1 -10   1 38075.0 1936.03   8
   1  10  -1 39947.3 2246.92  12
   1 -10  -1 41398.8 1930.09   3
  -1  10   1 38215.7 2162.46  11
  -1 -10   1 34252.3 1874.80   9
  -1 -10   1 35784.2 1837.85   3
  -1 -10   0 33275.9 1886.17   9
  -1  10   0 30089.1 1966.01  12
   1 -10   0 33970.8 1909.15   9
   1 -10   0 35839.7 1691.50   8
  -1 -10   0 35846.9 1764.84   8
   1 -10   0 32601.3 1818.14   3
   1  10   0 34748.6 2095.90  12
  -1 -10   0 36517.8 1702.48   3
   1 -10   0 34875.6 2112.29   5
  -1  10   0 34523.0 2022.23  11
  -1 -10   0 34068.7 2032.67   5
   1 -10   1 6066.46 896.534   3
  -1 -10  -1 5609.12 955.014   5
   1 -10   1 5876.10 855.224   8
  -1 -10  -1 6011.17 987.440   9
   1 -10   1 5450.29 785.304   9
  -1 -10  -1 4812.48 900.635  14
  -1 -10  -1 5425.76 686.712  16
  -1 -10  -1 5008.76 665.624   8
   1  10   1 6132.18 957.210  12
  -1  10  -1 5516.36 1009.32  12
  -1  10  -1 5369.92 854.189  11
   1 -10   2 8760.89 1067.51   3
   1  10   2 8912.55 1126.44  10
   1 -10   2 6872.13 944.022   8
  -1 -10  -2 9717.45 1212.51   5
  -1 -10  -2 8442.41 1090.61   9
  -1 -10  -2 8395.02 1105.34  14
  -1 -10  -2 9656.75 936.817  16
   1  10   2 10037.2 1238.63  12
  -1  10  -2 7266.28 1092.53  12
  -1  10  -2 7763.32 948.346  11
   1  10   3 16878.7 1485.03  10
  -1 -10  -3 16467.1 1574.03   9
   1 -10   3 19702.0 1605.48   3
  -1 -10  -3 16693.8 1408.69   4
  -1 -10  -3 15974.1 1295.92  16
   1  10   3 15619.6 1312.25   1
  -1  10  -3 15939.1 1554.58  12
  -1 -10  -3 17213.0 1500.24  14
  -1  10  -3 14483.5 1236.05  11
   1 -10   3 16155.7 1426.24   8
  -1 -10  -4 16566.6 1589.79   9
   1 -10   4 16846.3 1586.11   8
  -1 -10  -4 15486.7 1353.01   4
  -1 -10  -4 14793.9 1366.38  16
   1 -10   4 13706.3 1365.48  15
  -1 -10  -4 17718.6 1619.67  14
   1  10   4 17362.1 1464.53   1
  -1  10  -4 14885.0 1542.55  12
   1 -10   4 18303.9 1640.41   3
   1  10   4 13885.5 1415.73  10
   1 -10   5 1846.54 841.041   3
  -1 -10  -5 899.599 911.829   9
   1 -10   5 964.544 843.703   8
  -1  10  -5 607.223 818.544  12
  -1 -10  -5 2270.96 1004.18  14
   1  10   5 2709.16 837.702  13
  -1 -10  -5 1267.54 686.204  16
   1 -10   5 1499.18 731.003  15
   1  10   5 1188.36 802.700   1
   1  10   5 2331.66 806.246  10
   1  10   6 45275.9 2713.22  10
   1  10   6 46536.6 2798.22   1
  -1 -10  -6 48537.8 2938.59  14
  -1 -10  -6 48278.8 2859.91  16
   1 -10   6 51291.2 2817.83  15
  -1  11   6 3878.56 1001.67   1
   1 -11  -6 4469.82 1007.76  16
  -1 -11   5 7676.17 1213.28   3
   1  11  -5 11253.7 1456.41   2
   1 -11  -5 6536.41 1258.60   9
  -1  11   5 8667.48 1163.13   1
   1 -11  -5 9211.93 1356.35   5
   1 -11  -5 8992.54 1183.01  16
  -1 -11   5 7198.66 1182.61   8
   1  11  -5 7451.24 1245.61  12
   1 -11  -4 14800.9 1377.63  14
   1  11  -4 16013.1 1636.51   2
   1 -11  -4 15226.2 1611.24   5
   1 -11  -4 13454.3 1565.46   9
  -1 -11   4 15453.0 1548.54   8
   1  11  -4 17140.1 1670.46  12
   1 -11  -4 16681.6 1401.17  16
  -1 -11   4 17183.2 1575.91   3
  -1  11   4 15133.3 1362.54   1
  -1 -11   3 6798.59 998.889   3
   1 -11  -3 7194.77 1179.87   9
   1 -11  -3 6124.02 940.892  14
   1  11  -3 5908.83 1069.33  12
  -1  11   3 6656.96 1059.69  12
  -1 -11   3 5860.64 985.973   8
   1 -11  -3 6258.72 1111.71   5
  -1 -11   2 13412.8 1154.06   9
   1 -11  -2 10033.0 1326.56   9
   1 -11  -2 12645.1 1403.33   5
  -1 -11   2 13061.6 1289.70   8
   1  11  -2 14011.7 1463.49  12
   1 -11  -2 13391.4 1200.80  14
  -1 -11   2 11794.8 1188.01   3
  -1  11   2 15106.5 1454.24  12
  -1  11   2 14136.7 1447.50  11
  -1 -11   1 956.359 502.650   3
  -1 -11   1 164.372 596.772   9
   1 -11  -1 1390.65 731.380   9
   1 -11  -1 843.953 659.622   5
  -1 -11   1 1468.60 765.516   5
   1 -11  -1 1014.67 609.085   3
  -1 -11   1 1725.83 628.030   8
  -1  11   1 210.955 631.010  12
  -1  11   1 1336.27 704.741  11
   1  11  -1 137.375 625.482  12
  -1 -11   0 30410.4 1905.38   9
   1 -11   0 31086.2 1886.10   9
  -1 -11   0 30505.8 1699.03   8
  -1 -11   0 30967.7 2041.38   5
   1  11   0 31205.9 2099.03  12
   1 -11   0 31742.9 1866.17   3
   1 -11   0 34516.0 2195.34   5
  -1  11   0 31218.1 2105.49  12
  -1  11   0 28339.9 1924.02  11
  -1 -11  -1 9847.85 1223.42   9
   1 -11   1 8369.54 1046.66   9
   1 -11   1 8294.28 1047.88   3
   1 -11   1 8004.27 964.080   8
  -1  11  -1 10371.6 1185.99  11
   1  11   1 9620.20 1198.01  12
  -1  11  -1 8123.31 1196.82  12
  -1 -11  -1 11593.0 1248.47  14
  -1 -11  -1 9138.33 1243.46   5
   1 -11   2 4586.59 916.174   3
  -1 -11  -2 3728.76 945.926   9
   1  11   2 5254.69 1060.89  12
  -1 -11  -2 4939.77 1047.73   5
  -1 -11  -2 4172.24 968.250  14
  -1  11  -2 5266.19 974.941  12
   1 -11   2 4898.06 898.482   8
  -1  11  -2 4107.75 849.889  11
   1 -11   3 4884.77 999.879   3
  -1 -11  -3 5799.82 1166.36   5
  -1 -11  -3 4792.89 1001.25  14
  -1 -11  -3 4170.21 990.336   9
  -1 -11  -3 3694.20 801.922  16
   1 -11   3 5938.95 1041.43   8
  -1  11  -3 4671.09 994.938  12
   1  11   3 4202.01 935.824  10
  -1 -11  -3 5658.61 929.954   4
  -1  11  -3 3769.27 773.071  11
   1 -11   4 7703.86 1186.01   3
   1  11   4 5689.46 1059.88  10
  -1 -11  -4 5454.51 1170.86   9
  -1 -11  -4 5926.88 1017.02  16
  -1 -11  -4 6881.34 1236.43  14
   1 -11   4 4975.31 938.643  15
  -1  11  -4 4878.93 1047.48  12
   1 -11   4 5000.84 1063.61   8
  -1 -11  -4 6849.65 1023.98   4
   1  11   5 4893.42 1078.20  10
  -1 -11  -5 5235.98 1038.36  16
   1 -11   5 3720.53 903.267  15
  -1 -11  -5 3559.33 1070.74  14
   1  11   5 3481.01 915.758   1
   1 -11   5 3443.22 1038.98   8
  -1 -12   4 20298.8 1797.60   8
  -1 -12   4 20770.8 1776.61   3
   1  12  -4 17119.6 1829.94  12
  -1 -12   3 4528.35 998.928   8
  -1  12   3 4602.49 996.632  12
   1 -12  -3 2733.68 998.945   9
  -1 -12   3 2669.12 857.153   3
   1 -12  -3 2716.48 939.776   5
   1 -12  -3 3320.68 865.285  14
   1  12  -3 3946.55 904.127  12
   1 -12  -2 6423.02 1144.13   9
   1 -12  -2 6030.74 1123.89   5
   1 -12  -2 3501.28 801.253  14
   1  12  -2 6793.70 1163.69  12
  -1  12   2 5092.62 1065.04  12
  -1 -12   2 5767.80 932.617   3
  -1 -12   2 6712.15 1040.12   8
   1 -12  -1 27804.4 1831.50  14
  -1 -12   1 25295.5 1781.62   9
   1 -12  -1 28337.9 1982.68   9
   1 -12  -1 25648.6 2059.58   5
  -1 -12   1 26161.9 1746.80   8
  -1  12   1 29000.1 2048.87  12
   1  12  -1 25502.9 2005.86  12
  -1 -12   1 26030.6 2000.75   5
  -1  12   1 24792.9 1969.42  11
   1  12   0 19388.5 1774.25  12
  -1 -12   0 17065.9 1556.39   9
  -1  12   0 15771.8 1554.02  11
  -1 -12   0 17476.0 1679.02   5
   1 -12   0 16787.9 1714.44   5
  -1  12   0 18152.8 1688.55  12
   1 -12   0 19238.7 1599.04   9
   1 -12   0 15424.0 1379.78   3
   1 -12   1 1388.53 694.880   3
  -1  12  -1 801.854 715.886  12
  -1 -12  -1-1410.06 919.684   9
  -1  12  -1 825.761 692.878  11
  -1 -12  -1 1464.45 886.101   5
   1  12   1 931.295 679.046  12
  -1 -12  -1 1443.12 773.550  14
  -1  12  -2 20733.5 1897.77  12
  -1 -12  -2 17102.3 1694.55   9
   1 -12   2 20427.6 1613.17   8
  -1 -12  -2 19633.0 1829.19   5
  -1 -12  -2 18309.0 1710.65  14
  -1  12  -2 19056.5 1617.26  11
   1 -12   2 19768.7 1711.76   3
   1  12   2 18567.9 1818.24  12
  -1 -12  -3 31535.2 2307.68   9
  -1 -12  -3 27204.2 2159.62   5
   1 -12   3 29434.0 2068.98   8
  -1 -12  -3 30875.1 2100.61   4
  -1 -12  -3 25651.3 2072.11  14
  -1  12  -3 26828.8 2180.41  12
   1 -12   3 31035.7 2191.07   3
  -1  12  -3 24316.6 1798.48  11
  -1 -12  -4 11961.4 1552.50  14
   1 -12   4 13261.6 1459.76  15
   1 -12   4 11568.5 1497.76   8
  -1 -12  -4 13423.8 1410.47   4
  -1 -13   3 27565.9 2079.79   8
  -1 -13   3 26040.2 2016.20   3
   1 -13  -2 10801.9 1449.95   9
  -1  13   2 13101.9 1579.19  12
   1 -13  -1 3091.07 1122.70   5
  -1 -13   1 2645.52 944.529   5
  -1  13   1 2954.67 972.626  12
   1 -13  -1 1693.17 733.006  14
   1 -13  -1 2093.27 886.775   9
  -1 -13   0 9133.44 1260.36   9
  -1 -13   0 7991.13 1329.41   5
   1 -13   0 7503.64 1173.22   9
  -1 -13   0 9883.91 1361.94  14
  -1  13   0 8559.47 1303.86  11
   1 -13   1 6563.39 1043.92   3
  -1 -13  -1 5694.52 1132.56  14
  -1 -13  -1 3621.06 1022.73   9
  -1 -13  -1 5115.74 1168.44   5
  -1  13  -1 5246.28 1068.44  11
  -1 -13  -2 1049.85 916.847   9
   1 -13   2-919.032 795.330   3
  -1 -13  -2 531.749 810.004  14
  -1  13  -2-361.513 682.701  11
   1 -13   3 3417.46 946.526  15
  -1 -13  -3 1865.05 856.100  14
   1 -14  -1 4558.04 1155.75   9
  -1 -14   0 10740.9 1392.73   9
  -2   0  10 14880.9 1599.90   1
  -2   0   9-302.200 620.031   1
  -2   0   9 135.594 633.812   8
  -2   0   9-413.430 933.942  13
   2   0  -9 334.937 614.292   2
   2   0  -9 522.773 762.863  16
  -2   0   8 26008.1 1716.70   8
   2   0  -8 22766.2 1587.31   2
  -2   0   8 24976.8 1738.38   1
   2   0  -8 24129.3 1817.12  16
  -2   0   7 305950. 8229.09   8
   2   0  -7 305582. 8253.48   2
  -2   0   7 296944. 8410.17   1
   2   0  -7 301696. 8478.33  16
  -2   0   6-169.968 238.549   6
  -2   0   6-97.0389 138.849  10
   2   0  -6-64.9275 533.606  16
  -2   0   6 62.6217 495.084   1
   2   0  -6 248.830 467.357   2
  -2   0   6 203.996 505.533   8
   2   0  -5 31737.2 1515.96   2
  -2   0   5 34219.0 1475.82   8
   2   0  -5 32382.4 1599.76  16
  -2   0   5 34322.3 1614.20   1
  -2   0   5 30523.7 853.468  10
  -2   0   4 50047.8 1783.62   8
  -2   0   4 50532.7 1438.17  11
   2   0  -4 49982.9 1765.22   8
   2   0  -4 50639.4 1875.61   2
  -2   0   4 50508.6 1760.39   9
   2   0  -4 51408.8 1962.34  16
  -2   0   3 4765.56 364.607  11
  -2   0   3 5303.63 520.277   9
   2   0  -3 6252.77 598.466   2
  -2   0   3 5037.53 503.894  16
   2   0  -3 4848.97 254.003  12
   2   0  -3 4676.32 599.080  16
  -2   0   3 4942.41 469.121   8
   2   0  -3 4230.27 299.128   4
  -2   0   3 4585.42 496.298   2
   2   0  -2 44741.3 1532.49   7
   2   0  -2 44073.0 1143.66   5
   2   0  -2 46277.4 1541.36   2
  -2   0   2 46505.7 1547.24   3
   2   0  -2 44015.3 1332.49   4
  -2   0   2 43640.6 1511.17   2
   2   0  -2 43258.2 1139.74  10
  -2   0   2 44397.4 1546.52   7
   2   0  -2 45736.5 1568.82  16
  -2   0   2 43399.8 1518.23  16
   2   0  -2 44198.5 1139.68   6
  -2   0   1 220170. 5382.35  16
   2   0  -1 214331. 5157.68   6
  -2   0   1 212324. 5326.55   3
   2   0  -1 222246. 5382.49   7
   2   0  -1 211413. 5332.62   3
  -2   0   1 216202. 5366.02   7
   2   0   0 64182.8 1873.41   3
   2   0   0 66906.6 1970.25   7
   2   0   0 62399.5 1798.08  14
  -2   0   0 64933.7 1812.09  14
  -2   0   0 64115.1 2025.66   7
  -2   0   0 68850.0 1882.82   3
   2   0   1 41643.1 1491.45  15
   2   0   1 47216.2 1297.13  13
   2   0   1 43924.7 1584.90   7
  -2   0  -1 44514.8 1610.34   7
   2   0   1 46493.3 1550.65  14
  -2   0  -1 43733.3 1419.68   3
   2   0   1 45273.5 1455.99   3
   2   0   2 46791.1 1756.05  15
  -2   0  -2 50337.7 1840.85   7
   2   0   2 49446.7 1611.92   3
  -2   0  -3 95566.0 3124.39   7
   2   0   3 93646.3 3003.39   1
   2   0   3 97793.5 2837.81   3
   2   0   4 24314.6 1360.28   1
  -2   0  -4 23599.0 1439.75   7
  -2   0  -4 24547.1 1411.65  16
   2   0   4 25168.2 1213.40   3
  -2   0  -5 29357.0 1676.40  16
   2   0   5 32442.5 1501.70   3
   2   0   5 28407.6 1655.33  13
  -2   0  -5 28292.0 1733.01   7
   2   0   5 28779.8 1630.86   1
   2   0   5 27279.5 1573.21  10
  -2   0  -6 37874.4 1628.75   9
   2   0   6 33458.0 1909.69   1
  -2   0  -6 35940.8 2088.46   7
  -2   0  -6 37229.5 2022.06  16
   2   0   6 33717.1 1718.54   3
   2   0   6 34165.5 1911.80   6
   2   0   6 34001.1 1866.95  10
   2   0   6 37380.8 2024.53  13
   2   0   7 7490.26 1029.84   6
   2   0   7 5759.98 908.477  10
   2   0   7 7874.17 914.186   3
  -2   0  -7 6486.71 1029.17  16
   2   0   7 7586.04 1137.43  13
  -2   0  -7 6889.29 1134.50   7
   2   0   7 6393.39 1018.14   1
   2   0   8 8657.14 1149.96   6
   2   0   8 9829.60 1217.65   1
   2   0   8 13690.7 1504.87  13
  -2   0  -8 11151.3 1337.59  16
  -2   0  -8 8844.17 1287.07   7
   2   0   9 18600.9 1902.56  13
  -2  -1  10 4640.79 964.236   1
   2   1 -10 2684.40 960.723  16
   2   1  -9 955.876 691.713   2
   2  -1  -9 327.309 795.046  16
  -2   1   9 92.3979 656.585   1
  -2   1   9 1005.24 907.195  13
  -2  -1   9 1158.14 677.615   8
   2   1  -9 1361.18 731.666  16
  -2  -1   9 1822.55 702.942   1
   2  -1  -8 29565.2 1983.87  16
  -2   1   8 32625.5 1782.66   8
  -2  -1   8 32301.4 1971.04   8
  -2   1   8 30633.7 2009.12   1
   2   1  -8 32093.4 1912.62   2
   2  -1  -8 30566.9 1789.71   2
  -2  -1   8 33576.1 1997.09   1
  -2   1   8 31816.3 2227.09  13
   2   1  -8 35001.5 2051.02  16
   2   1  -7 3186.94 684.011   2
  -2  -1   7 3263.90 727.571   8
   2  -1  -7 3118.25 644.244   2
  -2   1   7 2749.50 607.725   8
  -2   1   7 3151.53 908.383  13
   2  -1  -7 2360.75 687.100  16
  -2  -1   7 3555.51 718.975   1
   2   1  -7 2941.44 753.175  16
  -2   1   7 2768.37 722.449   1
  -2   1   6 47710.1 1913.14   8
  -2  -1   6 46306.2 2078.52   8
   2   1  -6 43349.1 2018.95   2
   2  -1  -6 46353.8 2210.14  16
   2   1  -6 45253.7 2084.55  16
   2  -1  -6 44176.9 1940.15   2
  -2   1   6 46054.6 1345.03  10
  -2  -1   6 44915.4 2058.09   1
  -2   1   6 46378.7 1427.23   6
  -2  -1   6 48425.1 1392.62  10
  -2   1   6 47156.5 2183.12   1
  -2   1   5 11576.7 449.800  10
  -2  -1   5 12530.2 750.703   9
  -2   1   5 13523.1 840.525   8
  -2  -1   5 13005.1 954.949   8
  -2  -1   5 11842.4 516.793   4
   2   1  -5 9676.62 883.880   2
   2  -1  -5 11057.4 1013.41  16
   2  -1  -5 11283.2 862.559   2
  -2   1   5 12808.2 1035.91   1
   2   1  -5 12110.5 982.147  16
  -2  -1   5 12142.2 483.848  10
  -2   1   5 11277.8 477.635   6
  -2  -1   4 197773. 4792.23  10
  -2  -1   4 213381. 4995.45   4
   2   1  -4 204545. 5541.68   2
  -2  -1   4 210677. 5261.78   9
  -2   1   4 210267. 5248.34   8
   2  -1  -4 207159. 5244.35   8
   2  -1  -4 214045. 5443.98   2
   2   1  -4 205913. 5103.07  12
  -2   1   4 202809. 5126.94  11
  -2  -1   4 212168. 5500.07   8
   2   1  -4 208517. 5533.46  16
   2  -1  -4 210591. 5637.93  16
  -2   1   3 26627.0 1153.67   9
  -2   1   3 24562.3 967.989  11
   2   1  -3 24424.8 1139.79  16
   2   1  -3 24720.4 834.336  12
  -2   1   3 24550.7 950.190   8
  -2  -1   3 25562.6 1130.44   8
  -2  -1   3 26267.9 921.063   4
   2   1  -3 25700.4 1195.26   2
   2  -1  -3 24680.1 1214.08  16
   2  -1  -3 25208.8 732.105  12
  -2   1   3 25172.5 1150.04   3
  -2  -1   3 24755.2 1116.99  16
   2  -1  -3 26572.3 1130.74   2
  -2  -1   3 24827.9 707.396  10
   2  -1  -2 251338. 6650.22  16
  -2  -1   2 265300. 6270.44  12
  -2  -1   2 259871. 6627.65   7
  -2   1   2 275500. 6572.77  13
   2  -1  -2 262873. 6361.18   5
  -2   1   2 282305. 6692.78  16
   2   1  -2 265310. 6628.53  16
  -2  -1   2 262538. 6604.55   8
   2   1  -2 269838. 6464.05   4
  -2  -1   2 265499. 6458.37   4
   2  -1  -2 271368. 6639.25   7
  -2   1   2 273188. 6653.71   7
  -2   1   2 271285. 6659.90   3
  -2  -1   2 265203. 6269.81  10
   2   1  -2 274278. 6264.78  12
  -2  -1   2 264014. 6645.27   2
   2   1  -2 266922. 6651.68   2
   2  -1  -2 264559. 6589.52   2
  -2   1   2 265513. 6524.56  11
  -2  -1   2 264715. 6623.21  16
  -2  -1   2 273697. 6323.29   6
   2   1  -2 280391. 6664.59   7
   2   1  -2 270218. 6268.33  10
   2  -1  -1 126002. 3288.04   7
  -2   1   1 119877. 3125.20   5
  -2  -1   1 124558. 3248.58   4
  -2  -1   1 127372. 3301.32   7
   2   1  -1 122065. 3243.47   4
   2   1  -1 124812. 3141.77  10
  -2  -1   1 130197. 3245.49   3
   2  -1  -1 121764. 3308.82   3
  -2   1   1 118707. 3268.54   7
   2   1  -1 136346. 3335.54   7
  -2   1   1 119482. 3280.20   3
  -2  -1   1 124677. 3098.72  12
   2   1  -1 113969. 3246.09   2
  -2   1   1 122216. 3045.80  13
  -2   1   1 116728. 3275.05  16
   2  -1  -1 128522. 3321.21  16
  -2  -1   1 125003. 3163.29   6
  -2  -1   1 129046. 3155.27  10
   2   1  -1 116947. 3130.35   6
   2   1   0 611007. 15339.8  15
  -2  -1   0 701785. 15328.6  13
   2  -1   0 610478. 15561.2   7
  -2  -1   0 713793. 15651.5   7
   2   1   0 752097. 15465.3   3
   2   1   0 740243. 15662.1   4
  -2  -1   0 744268. 15595.5  14
  -2  -1   0 736843. 15461.6   3
  -2   1   0 586599. 15558.3   7
   2  -1   0 590440. 15534.8   3
   2  -1   0 600099. 15330.2  14
  -2   1   0 565270. 15519.7   3
   2   1   0 768015. 15667.0   7
  -2  -1   0 738597. 15662.8   6
   2   1   0 712690. 15625.5   6
   2   1   0 663390. 15628.4  10
   2  -1   1 463197. 11470.5   3
  -2  -1  -1 572898. 11670.1   7
  -2   1  -1 445981. 11540.3   8
  -2   1  -1 464892. 11555.5   7
  -2  -1  -1 454669. 11387.7  15
  -2  -1  -1 466236. 11614.5  14
   2   1   1 480083. 11279.6  13
  -2  -1  -1 568691. 11686.1   1
   2   1   1 466532. 11490.3   4
  -2  -1  -1 457662. 11255.9  13
   2  -1   1 461525. 11441.8  14
   2   1   1 512958. 11602.5   7
   2  -1   1 459512. 11525.5  15
  -2  -1  -1 573399. 11315.6   3
  -2   1  -1 478001. 11481.7   3
   2   1   1 551913. 11664.0  14
   2   1   1 472031. 11567.3   6
   2   1   1 462592. 11256.3   3
   2  -1   1 471457. 11550.3   7
   2   1   1 462974. 11683.3  10
   2   1   2 2372.71 520.567  10
   2   1   2 2150.95 303.646   3
   2   1   2 2984.92 421.818   4
   2  -1   2 1952.77 417.203   3
  -2  -1  -2 1451.03 383.204  15
  -2   1  -2 2316.34 385.348   1
   2  -1   2 2829.68 544.086  15
  -2  -1  -2 2354.22 510.662   7
  -2  -1  -2 1594.66 588.761  14
   2   1   2 2037.45 504.966   6
   2   1   2 3210.38 427.407  13
   2  -1   2 1258.92 364.254   2
  -2   1  -2 3303.51 510.433   7
   2  -1   3 52096.5 2061.72   8
   2   1   3 50745.6 1988.11   6
  -2   1  -3 50237.4 2019.05   7
   2   1   3 47421.9 1939.81   1
  -2  -1  -3 49296.2 1990.80   7
   2   1   3 49863.1 1721.04   2
   2   1   3 52719.8 1892.14  13
   2   1   3 52240.6 1668.42   3
   2  -1   3 48021.3 1837.78   3
   2   1   3 51646.1 1986.55  10
  -2  -1  -4 91462.7 3248.55   7
  -2   1  -4 93292.0 3316.49   7
   2  -1   4 97203.4 3356.46   8
   2   1   4 90939.8 3231.58   1
   2  -1   4 96807.8 3085.54   3
   2   1   4 92652.0 3185.30  10
   2   1   4 98983.9 3188.35  13
   2  -1   4 97527.6 3132.36   1
   2   1   4 94531.7 3213.76   6
  -2  -1  -4 91845.0 3257.16  16
   2   1   4 98548.6 2862.07   3
  -2   1  -4 98373.7 3165.77  16
   2   1   5 10501.3 1029.24  13
   2  -1   5 14451.0 1280.62   8
   2   1   5 14107.3 907.600   3
  -2  -1  -5 13857.3 1199.58  16
   2   1   5 12457.0 1063.72  10
  -2  -1  -5 13160.8 1152.43   7
   2  -1   5 12568.5 1040.14   1
  -2   1  -5 12672.7 1071.52  16
  -2   1  -5 12834.0 1170.31   7
   2  -1   5 12154.2 990.405   3
   2   1   5 13010.9 1112.08   1
   2   1   5 11892.5 1118.60   6
  -2  -1  -6 14767.5 1347.08  16
   2   1   6 10727.5 1090.55   6
   2   1   6 11948.7 1188.66   1
  -2  -1  -6 13707.0 1030.20   9
   2   1   6 14548.8 1287.77  13
  -2   1  -6 11550.9 1128.99  16
   2   1   6 12994.6 966.857   3
   2  -1   6 11471.8 1015.04   3
  -2  -1  -6 9538.33 1123.61   7
  -2   1  -6 12280.9 1263.75   7
   2  -1   6 12671.1 1135.05   1
   2   1   6 13342.7 1170.83  10
   2  -1   7 4469.98 829.055  10
   2   1   7 3297.73 905.416  13
   2   1   7 3760.45 804.237   6
   2   1   7 5001.51 829.955  10
   2  -1   7 5149.71 841.862   3
  -2   1  -7 4174.85 927.983  16
  -2  -1  -7 4786.34 962.763   7
  -2  -1  -7 5165.50 1029.90  16
   2  -1   7 4660.98 947.141  13
  -2   1  -7 4346.48 982.176   7
   2  -1   7 4168.94 799.724   1
   2   1   7 5847.74 983.397   1
  -2  -1  -8 4029.03 997.315   7
   2  -1   8 6206.23 1021.07   6
   2   1   8 5913.32 968.033   6
   2  -1   8 5294.76 1028.83   1
   2   1   8 5546.57 1126.57  13
  -2  -1  -8 4644.59 1116.89  16
   2  -1   8 3951.13 1052.75  13
  -2   1  -8 4411.29 977.926   7
   2   1   8 6142.15 1105.37   1
  -2   1  -8 5065.99 978.090  16
  -2   1  -9 7078.64 1205.74  16
   2  -1   9 6736.17 1273.12  13
  -2  -2  10 7408.77 1246.62   8
   2   2 -10 9245.15 1303.45  16
   2   2 -10 6724.84 1169.52   2
   2  -2  -9 30535.8 2215.84  16
  -2  -2   9 30223.7 2013.90   1
  -2   2   9 31887.6 2264.64   1
   2   2  -9 30376.8 2073.40   2
  -2  -2   9 30095.2 2089.26   8
   2   2  -9 29327.9 2045.01  16
  -2   2   9 29624.8 2312.83  13
  -2   2   8 2407.10 1025.14  13
   2  -2  -8 2599.18 849.409  16
  -2  -2   8 4340.96 843.119   1
   2   2  -8 3100.22 779.141  16
  -2  -2   8 2179.32 811.438   8
   2   2  -8 2385.79 764.948   2
  -2   2   8 2140.73 717.984   1
   2  -2  -8 2586.53 575.993   2
   2   2  -7 7835.07 964.364  16
   2  -2  -7 7415.73 796.488   2
  -2   2   7 8486.18 818.308   8
  -2  -2   7 7553.35 1018.88   8
   2   2  -7 9314.21 1010.89   2
   2   2  -7 10225.5 921.041  12
  -2   2   7 8670.19 1021.97   1
   2  -2  -7 7386.03 1101.41  16
  -2  -2   7 7075.24 882.548   1
  -2   2   7 8661.55 1154.33  13
  -2   2   6 75335.9 2107.11  10
  -2  -2   6 73907.1 2762.86   1
  -2   2   6 75054.7 2500.46   8
  -2  -2   6 82289.4 2974.36   8
  -2  -2   6 75957.7 2150.53   4
   2   2  -6 72357.5 2852.20   2
  -2   2   6 70468.4 2905.27   1
   2  -2  -6 78187.0 3032.99  16
   2   2  -6 74135.6 2543.96  12
   2  -2  -6 77119.3 2624.32   2
   2   2  -6 77016.8 2820.21  16
  -2   2   6 72102.2 3070.14  13
  -2   2   6 73994.0 2078.48   6
  -2   2   5 10833.3 476.968   6
  -2  -2   5 11043.3 548.973  10
  -2   2   5 10466.0 516.077  10
   2  -2  -5 10543.5 677.046   8
   2  -2  -5 10508.2 1023.23  16
  -2  -2   5 10603.1 644.477   9
   2  -2  -5 10729.7 970.694   9
   2  -2  -5 10790.6 728.423  11
  -2   2   5 11900.9 726.389   8
  -2  -2   5 10123.7 948.660   8
  -2  -2   5 10112.5 604.467   4
   2   2  -5 10081.7 942.918   2
   2  -2  -5 10855.4 650.925  12
   2  -2  -5 9504.92 778.867   2
  -2   2   5 11521.3 1012.06   1
  -2   2   5 11017.8 729.946  11
  -2   2   5 10658.3 1138.36  13
   2   2  -5 12290.4 799.159  12
   2   2  -5 10589.0 889.132  16
  -2  -2   4 5064.60 342.265  10
   2  -2  -4 4723.09 723.432  16
   2   2  -4 3966.91 617.324   2
   2  -2  -4 3682.95 632.998   9
  -2   2   4 4776.36 419.255   8
  -2  -2   4 4135.35 415.247   4
   2  -2  -4 5610.18 568.407   2
  -2   2   4 5507.03 551.383  14
  -2  -2   4 4402.44 639.871   8
  -2   2   4 4342.68 779.620  13
   2  -2  -4 3508.76 345.926  12
  -2   2   4 4842.35 480.171  11
   2   2  -4 5140.15 605.425  16
   2   2  -4 5181.20 492.406  12
   2  -2  -4 4941.42 516.935  11
   2  -2  -4 4746.55 327.124  10
   2  -2  -3 116118. 2887.69  10
   2   2  -3 111496. 3354.33   2
  -2  -2   3 113478. 3080.40   4
  -2   2   3 115069. 2873.70   8
  -2  -2   3 111951. 3345.32   8
   2   2  -3 113455. 3238.05  16
   2  -2  -3 118181. 3204.15  11
  -2   2   3 112432. 3352.26  13
   2  -2  -3 118785. 2881.57  12
   2  -2  -3 113676. 3184.14   2
   2   2  -3 111495. 3012.50  12
   2  -2  -3 109166. 3352.43  16
  -2   2   3 110990. 3164.38  11
  -2   2   3 112623. 3026.95  14
  -2   2   3 117542. 3293.25   3
  -2  -2   3 113628. 2900.75  10
   2  -2  -3 112161. 2741.74   6
  -2  -2   3 111821. 3207.19  16
   2   2  -2 23396.8 758.671  15
   2   2  -2 23332.3 864.148  10
  -2   2   2 24366.6 1038.18   7
  -2   2   2 23251.6 1013.80  13
  -2   2   2 22426.7 1019.24   3
   2  -2  -2 21588.8 937.881   5
  -2  -2   2 24572.1 916.745   6
  -2  -2   2 21788.7 965.271   4
  -2   2   2 22622.4 1030.82  16
   2  -2  -2 22067.9 1063.59  16
  -2  -2   2 20228.1 1006.02   2
   2  -2  -2 24632.9 1070.06   3
   2  -2  -2 22465.2 988.001   7
   2   2  -2 23902.1 1015.32   7
   2   2  -2 22762.0 1067.82   2
  -2   2   2 23376.8 777.175  12
  -2  -2   2 21405.4 989.804   7
  -2   2   2 22206.4 1064.53   9
  -2  -2   2 22862.8 1074.61   8
   2   2  -2 24272.9 892.254  12
  -2  -2   2 21695.6 862.945  12
  -2   2   2 22868.3 716.048  14
  -2  -2   2 21776.8 963.485  16
  -2   2   2 20778.4 999.673  11
  -2  -2   2 23644.5 856.103  10
   2  -2  -2 22580.8 784.054  12
   2  -2  -1 79297.0 2112.74  13
   2  -2  -1 76935.1 2213.09   7
  -2   2   1 73327.6 2190.30   5
   2  -2  -1 78440.6 2222.62   5
  -2  -2   1 80175.2 2209.12   7
   2  -2  -1 74084.5 2218.51  16
  -2   2   1 70895.9 2200.73   7
   2   2  -1 73135.5 2198.40   7
   2   2  -1 80288.1 2247.47   2
   2   2  -1 73819.3 2153.80  12
  -2  -2   1 78611.0 2166.64  12
   2   2  -1 73599.6 2161.73  10
  -2  -2   1 76467.3 2216.98   2
  -2   2   1 74861.8 2099.42  12
  -2  -2   1 76722.9 2176.59  10
  -2  -2   1 71530.7 2239.65   4
  -2   2   1 77143.7 2100.90  13
  -2  -2   1 78476.7 2200.73   6
  -2   2   1 77862.6 2222.27  16
  -2   2   1 79272.1 2297.80   3
   2  -2  -1 76687.2 2292.41   3
   2   2  -1 76104.5 2198.12   6
  -2  -2   0 144305. 3700.67   6
   2  -2   0 130119. 3356.46  13
  -2  -2   0 128023. 3283.94  15
  -2   2   0 125991. 3553.46   8
   2   2   0 143504. 3699.30   4
  -2  -2   0 141613. 3723.18   4
   2  -2   0 134327. 3592.27   7
  -2   2   0 131753. 3666.52   3
  -2  -2   0 133585. 3481.18  13
   2  -2   0 130175. 3664.41   3
  -2  -2   0 132532. 3656.82  14
   2   2   0 136049. 3562.47   7
  -2  -2   0 145030. 3681.44  12
   2   2   0 157714. 3560.75   2
  -2  -2   0 131854. 3564.30   7
  -2   2   0 133197. 3599.82   7
  -2  -2   0 148546. 3719.41  10
   2   2   0 149554. 3732.01   6
   2   2   0 150936. 3717.94  10
  -2  -2   0 135142. 3386.91   3
   2   2   1 218978. 5578.44   4
  -2  -2  -1 206292. 5630.07  14
   2  -2   1 219373. 5647.79   8
   2   2   1 223791. 5558.75   7
   2  -2   1 220643. 5593.45   7
  -2  -2  -1 214111. 5564.67   4
  -2  -2  -1 236319. 5465.10  15
   2   2   1 218776. 5430.90  13
   2   2   1 227171. 5670.64  14
   2   2   1 217014. 5152.19   3
  -2   2  -1 219018. 5618.65   3
  -2  -2  -1 219911. 5646.67   1
  -2   2  -1 220359. 5604.47   7
  -2  -2  -1 216953. 5156.76   3
   2  -2   1 217102. 5643.94   3
  -2  -2  -1 225127. 5448.31  13
  -2   2  -1 214419. 5628.71   8
  -2  -2  -1 230479. 5675.23   6
   2   2   1 211023. 5640.60   6
  -2  -2  -1 208308. 5621.78  10
   2   2   1 217257. 5640.97  10
  -2  -2  -1 218027. 5556.50   7
   2   2   2 80825.4 2665.71   6
  -2  -2  -2 86784.9 2549.57  13
   2  -2   2 85437.1 2741.42   8
   2   2   2 80779.5 2507.04  13
   2  -2   2 77342.6 2663.33  15
  -2  -2  -2 83799.3 2552.09  15
  -2  -2  -2 84307.8 2633.34   7
  -2  -2  -2 83773.1 2746.18  14
   2   2   2 81112.3 2672.14   1
   2   2   2 86187.0 2157.67   3
  -2   2  -2 77754.8 2622.62   7
   2  -2   2 84106.8 2638.18   3
  -2   2  -2 81837.8 2441.09   1
   2   2   2 80067.0 2656.25  10
   2   2   2 86986.3 2550.95   4
   2   2   3 11879.8 641.761   2
   2  -2   3 12098.2 902.314   3
  -2  -2  -3 11409.2 900.810   7
  -2   2  -3 12311.7 945.971   7
   2   2   3 11485.7 929.675   1
   2  -2   3 10040.0 973.930   8
   2   2   3 13258.0 611.494   3
   2   2   3 11768.6 876.317  13
   2  -2   3 12494.7 1004.14  15
   2   2   3 12044.5 923.408   6
   2   2   3 11795.4 939.172  10
   2   2   4 86.5992 248.245   2
   2   2   4 566.954 548.229   6
   2   2   4 676.795 291.510   3
   2  -2   4-105.451 460.942   3
   2   2   4 862.934 536.462  10
   2   2   4 675.764 521.050  13
  -2   2  -4 539.255 429.952  16
  -2  -2  -4 86.4178 473.969   7
  -2   2  -4 634.517 543.258   7
  -2  -2  -4 350.553 577.735  16
   2   2   4 1463.38 564.176   1
   2  -2   4 200.606 572.435   8
   2   2   5 46531.8 2244.68   1
   2  -2   5 52253.8 2401.55   8
  -2  -2  -5 47816.2 2327.99  16
  -2   2  -5 45053.9 2040.94  16
   2   2   5 47261.0 2158.91   6
   2   2   5 46182.3 2161.02  13
   2  -2   5 42633.4 1982.53   1
  -2   2  -5 44159.2 2236.94   7
   2   2   5 50715.7 1764.55   3
   2  -2   5 48761.9 2151.80   3
   2   2   5 46720.1 2124.90  10
  -2  -2  -5 45673.0 2228.45   7
  -2  -2  -6 52449.9 2574.43   7
   2  -2   6 53333.7 2658.04   8
  -2  -2  -6 52299.1 2604.54  16
  -2   2  -6 55164.9 2449.81  16
  -2  -2  -6 55897.5 2359.96   9
   2   2   6 54957.9 2623.39   1
  -2   2  -6 49924.8 2580.49   7
   2  -2   6 55342.5 2383.15   1
   2   2   6 54124.5 2450.43   6
   2  -2   6 56819.0 2468.04   3
   2   2   6 51608.1 2393.57  10
   2   2   6 53835.4 2535.00  13
   2   2   7 3376.34 791.660   6
   2  -2   7 4037.09 813.976   3
   2   2   7 3980.58 776.314  10
  -2  -2  -7 4343.11 753.687   9
   2  -2   7 4769.65 1090.68   8
  -2   2  -7 3564.93 821.530  16
   2  -2   7 3699.19 790.119   1
   2   2   7 2814.64 753.020   1
   2   2   7 3131.01 894.885  13
  -2  -2  -7 2819.75 890.019  16
  -2  -2  -7 4541.24 967.275   7
  -2   2  -7 2930.02 894.998   7
   2  -2   8 1590.94 724.543   3
   2   2   8 346.960 625.915   6
  -2   2  -8 1045.15 671.495  16
   2   2   8 1879.69 874.846  13
  -2  -2  -8 1461.88 794.934  16
   2   2   8 2051.31 919.696   1
  -2  -2  -8 483.366 709.227   7
  -2   2  -8 1183.58 875.971   7
  -2  -3   9 1560.88 896.068   8
   2  -3  -9 1152.41 893.762  16
   2   3  -9 451.747 644.266  16
  -2   3   9 1169.84 832.144   1
  -2   3   9-463.589 985.658  13
   2   3  -9 2163.59 895.759   2
  -2  -3   9 842.952 635.082   1
   2  -3  -8 4245.52 983.939  16
  -2   3   8 5900.49 974.235   1
  -2  -3   8 5160.40 828.265   1
   2   3  -8 3752.80 811.765  16
  -2   3   8 4444.92 980.291  13
  -2  -3   8 4418.26 966.527   8
   2   3  -8 3786.19 814.797   2
   2  -3  -7 12848.7 1192.86   9
  -2   3   7 8799.99 1141.74  13
  -2  -3   7 11199.5 1205.56   8
   2   3  -7 10056.6 999.907  16
   2  -3  -7 11670.0 1301.26  16
   2   3  -7 10494.8 953.161  12
  -2  -3   7 12547.9 1064.36   1
   2  -3  -7 12195.4 939.898   2
  -2   3   7 9419.38 1130.37   1
   2   3  -7 11869.1 1192.72   2
  -2   3   6 17317.1 834.524  10
   2   3  -6 19407.9 1222.30  16
   2  -3  -6 16197.7 1279.36   9
  -2   3   6 18325.7 947.267   8
  -2  -3   6 16487.8 1316.75   8
   2   3  -6 16639.6 1294.06   2
   2  -3  -6 16479.2 1370.57  16
  -2   3   6 18384.6 1386.33   1
  -2   3   6 17232.7 1458.78  13
  -2  -3   6 17307.5 1159.40   1
   2   3  -6 19114.5 1148.75  12
   2  -3  -6 15793.9 1004.54   2
  -2  -3   5 3911.88 415.167  10
  -2   3   5 2806.53 372.454  10
   2  -3  -5 3713.71 379.320   8
  -2  -3   5 3432.40 383.200   9
   2  -3  -5 5058.48 836.939   9
   2  -3  -5 4105.50 521.710   2
   2  -3  -5 2900.80 363.436  10
  -2   3   5 3473.92 856.410  13
  -2   3   5 3787.68 397.195   8
  -2  -3   5 3799.99 758.442   8
   2   3  -5 3090.58 573.469  16
  -2   3   5 2371.58 505.746  11
  -2   3   5 3554.20 760.049   1
   2  -3  -5 3523.35 429.795  12
   2   3  -5 3563.23 532.425  12
   2   3  -5 4029.59 673.326   2
   2  -3  -5 2866.90 717.210  16
  -2  -3   4 111266. 3054.92  10
   2   3  -4 112093. 3561.90   2
  -2   3   4 113955. 2854.45   8
  -2   3   4 109667. 3603.56  13
  -2  -3   4 108051. 3525.60   8
   2  -3  -4 113568. 3221.05   2
   2  -3  -4 108542. 3543.64  16
  -2   3   4 115265. 3267.30  14
   2  -3  -4 109324. 3079.89  12
   2  -3  -4 108104. 3514.91   9
  -2   3   4 113629. 3578.28   1
   2   3  -4 118688. 3285.39  12
  -2   3   4 117756. 3369.79  11
   2  -3  -4 113932. 2906.78   6
   2   3  -4 114103. 3322.80  16
   2  -3  -4 112139. 3032.11  10
   2  -3  -3 86932.9 2503.28  10
  -2  -3   3 88494.4 2522.83  10
   2   3  -3 91433.2 2661.15  16
  -2  -3   3 88123.8 2627.18  16
   2  -3  -3 86833.6 2886.31   9
   2   3  -3 94675.0 2447.13   5
   2   3  -3 88694.1 2623.50  12
  -2  -3   3 87190.3 2884.98   8
   2  -3  -3 87024.0 2847.27  16
   2  -3  -3 90234.2 2389.99   6
  -2   3   3 87923.1 2871.29  13
   2   3  -3 87532.2 2859.98   2
  -2   3   3 89543.9 2489.32  12
   2  -3  -3 91054.9 2499.96  12
  -2   3   3 91621.6 2513.08  14
   2  -3  -3 85765.5 2623.26   2
  -2  -3   3 89342.7 2642.89  12
   2   3  -3 95214.8 2546.18  15
  -2  -3   3 92108.1 2359.71  11
  -2   3   3 92381.0 2787.29  11
   2   3  -2 43302.9 1693.03   2
  -2  -3   2 49065.6 1618.96   6
   2   3  -2 45002.9 1553.81  10
   2  -3  -2 50616.8 1580.99  10
   2  -3  -2 48341.5 1809.36   9
   2  -3  -2 50395.3 1703.52   5
  -2  -3   2 50482.8 1417.50   5
  -2   3   2 43448.3 1214.75   8
   2  -3  -2 48779.2 1701.43  13
  -2   3   2 44548.7 1653.33  16
   2  -3  -2 48726.1 1605.48   7
   2  -3  -2 49873.1 1723.98  16
   2   3  -2 50720.9 1628.33   7
  -2   3   2 44427.6 1657.49  13
  -2  -3   2 46793.5 1758.27   8
  -2   3   2 44581.3 1697.02  11
   2  -3  -2 47486.2 1502.48  12
  -2   3   2 43591.1 1475.31  12
   2  -3  -2 48467.6 1695.18   3
  -2   3   2 46928.0 1668.40   3
   2   3  -2 42098.5 1554.68  12
  -2  -3   2 48968.5 1618.81   7
  -2  -3   2 48339.2 1606.11  12
   2  -3  -2 51708.4 1771.06  11
  -2   3   2 45898.9 1590.08   7
  -2  -3   2 47873.2 1585.74  16
   2  -3  -2 50361.6 1342.64  14
  -2  -3   2 49515.7 1579.04  10
   2   3  -1 102249. 2958.85   6
   2  -3  -1 104624. 2857.81  13
  -2   3   1 100544. 2847.94  16
   2   3  -1 100283. 2876.55   2
  -2   3   1 104646. 2981.78   5
   2  -3  -1 105766. 3003.07   5
  -2   3   1 102783. 2667.00   8
  -2  -3   1 103274. 2984.52   4
   2  -3  -1 100272. 2855.90  16
   2  -3  -1 101329. 2823.91   7
  -2   3   1 100532. 2814.84   7
  -2  -3   1 109474. 2945.32  12
   2  -3  -1 103144. 2993.41   3
  -2   3   1 104284. 2858.85  13
  -2  -3   1 107402. 2907.91   2
  -2   3   1 104607. 2986.33   3
   2   3  -1 98531.8 2907.02  12
   2   3  -1 101032. 2899.92  10
  -2   3   1 102628. 2854.48  12
  -2   3   1 99281.7 3015.65  11
   2   3  -1 102978. 2810.48   7
  -2  -3   1 104607. 2798.50   7
  -2   3   1 106192. 3017.57   9
  -2  -3   1 102921. 2929.35   6
  -2  -3   1 104054. 2919.74  10
  -2   3   0 162174. 4543.42  12
   2  -3   0 169427. 4608.39   3
  -2   3   0 173469. 4503.56   9
  -2   3   0 185377. 4670.66   5
   2  -3   0 165746. 4419.19   8
  -2   3   0 176367. 4449.10   8
  -2  -3   0 169575. 4591.99   4
  -2   3   0 176442. 4356.43  16
  -2   3   0 176751. 4457.61   7
  -2  -3   0 168104. 4365.75   7
   2   3   0 176140. 4389.99   7
  -2  -3   0 179425. 4497.30  13
  -2   3   0 179741. 4632.06   3
   2  -3   0 166820. 4419.75   7
  -2  -3   0 172813. 4592.63  12
   2   3   0 173655. 4327.11   2
  -2   3   0 168390. 4611.83  11
  -2  -3   0 172322. 4585.02   6
  -2  -3   0 166852. 4565.02  10
   2   3   0 173553. 4611.17   6
   2   3   0 175024. 4602.16  10
   2  -3   0 171257. 4362.23  13
   2   3   1 86610.7 2496.04   7
   2  -3   1 89451.4 2666.85   8
  -2  -3  -1 84364.9 2626.27   4
   2   3   1 84505.3 2676.75   6
  -2  -3  -1 80841.5 2499.55   7
   2   3   1 86653.6 2553.78  13
  -2  -3  -1 87507.8 2561.33  13
   2  -3   1 88580.5 2579.10   7
  -2   3  -1 87852.6 2584.61   7
  -2  -3  -1 82550.2 2061.23   3
   2  -3   1 87339.0 2701.50   3
   2   3   1 88620.6 2251.37   2
   2   3   1 85233.1 2682.39  10
  -2  -3  -1 87481.3 2722.81  14
   2  -3   2 326734. 8456.75   8
   2  -3   2 331172. 8509.90  15
  -2  -3  -2 326868. 8266.42   4
   2   3   2 330003. 8435.13  10
   2   3   2 330444. 8451.10   1
  -2  -3  -2 339282. 8537.17  14
  -2   3  -2 331388. 8371.46   7
   2   3   2 336596. 8310.70  13
   2   3   2 334445. 8435.59   6
  -2  -3  -2 331960. 8290.58   7
   2  -3   2 338634. 8452.98   3
  -2   3  -2 330592. 8034.70   1
   2   3   3 74528.8 1863.83   3
  -2   3  -3 73902.5 2292.88   1
   2   3   3 70821.9 2516.29  13
   2  -3   3 73969.6 2695.71   8
   2   3   3 72322.5 1960.25   2
   2   3   3 68903.7 2561.29  10
   2  -3   3 72862.7 2668.88  15
  -2   3  -3 71452.3 2598.39   7
  -2  -3  -3 68895.0 2685.29  14
   2   3   3 67472.4 2583.53   1
  -2  -3  -3 69835.4 2504.07   7
   2  -3   3 73630.4 2608.42   3
   2   3   3 67313.0 2542.19   6
  -2  -3  -4 36339.1 1878.60  16
   2  -3   4 35859.4 1913.45   8
   2   3   4 33781.0 1740.64  10
   2   3   4 37899.1 1214.52   2
   2  -3   4 33174.0 1804.46  15
  -2   3  -4 33732.2 1786.42   7
   2   3   4 32180.1 1767.32   1
   2   3   4 37471.4 1191.04   3
   2  -3   4 34766.2 1748.51   3
  -2   3  -4 34087.1 1527.51  16
   2   3   4 31399.6 1681.41   6
   2   3   4 38429.8 1798.38  13
  -2  -3  -4 31425.2 1694.08   7
  -2  -3  -5 15643.4 1212.60   9
   2  -3   5 15134.1 1355.05   8
  -2  -3  -5 15245.5 1246.52   7
   2   3   5 19712.7 1401.02  13
  -2   3  -5 17008.5 1333.36   7
   2   3   5 17054.4 1351.78   1
   2   3   5 17828.9 840.050   3
   2  -3   5 15669.1 1223.75   3
  -2   3  -5 18780.9 1183.89  16
   2   3   5 16529.4 1270.63   6
  -2  -3  -5 14914.2 1304.42  16
   2   3   5 17490.2 1284.38  10
  -2  -3  -6 16339.8 1304.96   9
   2  -3   6 17551.7 1542.94   8
  -2  -3  -6 16276.1 1484.29  16
  -2   3  -6 18538.8 1295.71  16
  -2   3  -6 16074.7 1447.41   7
   2   3   6 18199.8 1511.94   1
   2  -3   6 18064.6 1398.21   3
  -2  -3  -6 15445.1 1366.59   7
   2   3   6 18091.0 1480.75  13
   2   3   6 14355.0 1265.11   6
   2   3   6 15179.2 1293.01  10
   2   3   7 1945.34 682.526   6
  -2  -3  -7 2868.70 943.278  16
   2   3   7 3104.51 755.079  10
   2  -3   7 3210.68 797.990   3
  -2  -3  -7 2637.26 697.725   9
   2  -3   7 2086.83 832.960   8
  -2   3  -7 4740.22 820.427  16
   2   3   7 3414.78 858.516  13
  -2  -3  -7 1749.16 755.751   7
  -2   3  -7 3400.43 877.740   7
   2   3   7 3583.49 868.297   1
   2  -3   8 6821.28 1070.57   3
   2   3   8 6673.17 1176.77  13
   2  -3   8 9175.05 1370.89   8
   2   3   8 6985.73 1239.91   1
  -2  -3  -8 7729.71 1226.50  16
  -2  -3  -8 5265.40 1106.85   7
  -2   3  -8 6389.37 1209.62   7
  -2   4   9 17364.6 1866.37  13
   2  -4  -9 15003.3 1667.32  16
   2   4  -9 17366.5 1651.10   2
  -2  -4   9 15967.2 1661.02   8
  -2   4   9 16367.0 1728.06   1
   2  -4  -8 23472.6 1721.54   9
  -2   4   8 21582.2 1805.95   1
  -2  -4   8 20208.0 1452.12   1
   2   4  -8 18847.4 1652.63   2
  -2  -4   8 22744.1 1814.05   8
  -2   4   8 21692.9 1898.80  13
   2   4  -8 21270.7 1510.34  16
   2  -4  -8 20086.3 1763.50  16
   2   4  -7 40453.9 1930.00  16
  -2  -4   7 36398.1 1820.63   1
   2  -4  -7 36309.4 2048.50   9
   2   4  -7 37689.6 2147.54   2
  -2  -4   7 37056.9 2201.52   8
  -2   4   7 38661.2 2222.42   1
   2  -4  -7 35476.4 2151.94  16
   2   4  -7 38378.7 1883.08  12
  -2   4   7 37569.0 2262.99  13
   2   4  -6 8191.39 994.187   2
  -2   4   6 8387.51 635.969  10
   2  -4  -6 8387.86 1076.56   9
   2  -4  -6 8697.47 736.775   2
  -2   4   6 7116.15 1070.55  13
   2  -4  -6 8140.58 1034.60  16
   2   4  -6 9727.40 875.213  16
   2   4  -6 9245.75 886.532  12
  -2  -4   6 8887.99 821.948   1
  -2  -4   6 7753.21 996.606   8
  -2   4   6 8508.84 1011.37   1
  -2  -4   5 18938.6 783.708   9
   2  -4  -5 18289.7 1350.69   9
  -2  -4   5 19790.9 1399.16   8
   2   4  -5 21596.1 1404.11   2
  -2   4   5 20067.3 1388.71   1
  -2   4   5 22358.7 1517.75  13
   2   4  -5 20936.2 1138.20  16
   2  -4  -5 23019.7 1091.73   2
   2  -4  -5 23121.7 1473.36  16
   2   4  -5 21477.3 1204.95  12
  -2   4   5 21060.2 1212.78  11
   2  -4  -5 19429.6 995.607  10
  -2  -4   4 53374.6 1843.01  10
   2   4  -4 56224.8 2233.40   2
  -2   4   4 53261.5 2185.02   1
   2   4  -4 54722.6 1816.35   5
  -2  -4   4 49412.8 2170.92   8
  -2  -4   4 53367.8 1853.51  16
   2  -4  -4 49794.2 2144.66  16
   2  -4  -4 55215.2 1856.39  12
   2  -4  -4 57352.5 1864.08   2
   2   4  -4 53523.6 1987.26  12
   2  -4  -4 53314.6 2256.96   9
   2   4  -4 53132.2 1881.77  16
  -2  -4   4 53550.6 1481.36  11
  -2   4   4 52612.9 2053.97  11
   2  -4  -4 54676.0 1700.87   6
  -2   4   4 50429.1 2201.83  13
   2  -4  -4 54438.8 1829.47  10
   2  -4  -3 81417.1 2302.21   6
   2  -4  -3 76908.9 2510.69   3
   2   4  -3 81192.4 2303.73   5
   2  -4  -3 75021.5 2702.84   9
  -2  -4   3 75766.7 2696.96   8
   2   4  -3 78761.3 2669.69   2
  -2   4   3 79469.9 2292.17  14
   2  -4  -3 77167.1 2292.39  14
  -2   4   3 74144.7 2648.04  13
   2  -4  -3 78331.1 2399.07  10
  -2   4   3 75882.0 2365.54  12
   2   4  -3 74965.9 2497.90  12
   2  -4  -3 80382.0 2384.55  12
  -2  -4   3 81150.5 2363.17  16
  -2  -4   3 77099.5 2411.73  10
  -2   4   3 77262.6 2609.87  11
  -2  -4   3 80547.8 2222.31  11
   2  -4  -3 76824.2 2616.90  16
   2   4  -2 22960.9 1087.99  10
   2  -4  -2 22805.6 1110.77   3
   2  -4  -2 22495.3 1165.67   5
   2  -4  -2 22066.2 1235.76   9
  -2  -4   2 23303.5 972.716   5
   2  -4  -2 22810.0 1068.23  10
  -2   4   2 22435.4 993.619   7
   2   4  -2 24778.1 1167.44   2
   2  -4  -2 23151.8 868.555  14
   2   4  -2 25079.2 1028.34   7
   2  -4  -2 21820.2 979.040   7
  -2  -4   2 25046.9 1010.45  11
  -2  -4   2 21409.5 1188.79   8
   2  -4  -2 22015.8 1092.09  16
   2   4  -2 23309.4 1117.25  12
   2  -4  -2 23076.4 1042.73  12
  -2  -4   2 22424.1 966.718  16
  -2  -4   2 23073.7 797.738  15
  -2   4   2 21852.6 1026.77  12
  -2   4   2 23759.0 1218.82  11
  -2   4   2 21493.6 1130.97  13
  -2  -4   2 22863.2 1065.16  10
   2   4  -1 64854.9 2190.65  10
   2  -4  -1 66494.7 2045.61  16
   2  -4  -1 65521.9 2274.86   5
  -2   4   1 70451.2 1890.22   8
   2   4  -1 61373.7 2081.97   2
   2  -4  -1 69511.6 2009.74   7
   2   4  -1 69731.7 1972.04   7
  -2  -4   1 67643.3 1954.44   7
  -2   4   1 62225.3 1966.37   7
   2  -4  -1 66772.8 2214.16   3
  -2   4   1 66386.2 2150.54  12
  -2   4   1 68056.0 2309.99  11
   2  -4  -1 69702.5 2178.14  12
  -2  -4   1 73565.5 2140.63   2
  -2   4   1 64076.7 2125.97  13
   2  -4  -1 67638.0 2159.69  13
  -2   4   1 64892.3 2030.60  16
   2   4   0 52129.6 1919.05  10
   2   4   0 55161.1 1953.89   6
  -2   4   0 50683.8 1692.56   7
   2   4   0 53319.9 1621.40   7
  -2   4   0 51931.9 1803.42   9
   2  -4   0 50777.9 1730.62   8
  -2   4   0 51359.3 1725.14   8
  -2  -4   0 49262.2 1897.35   4
  -2  -4   0 50194.1 1759.64   1
   2  -4   0 53777.8 1695.07   7
  -2   4   0 56676.7 1621.77  16
  -2  -4   0 53051.8 1625.61   7
   2   4   0 49704.4 1604.85   2
   2   4   0 55149.5 1954.34  12
   2  -4   0 53848.1 1936.44   3
  -2  -4   0 48432.1 1631.71   2
  -2   4   0 55336.5 1949.77  12
  -2   4   0 52302.8 1937.27  11
   2  -4   0 52941.2 1763.22  13
   2   4   1 1188.03 503.447  10
  -2   4  -1 1085.37 541.809  12
   2   4   1 744.392 470.129   6
   2   4   1 1372.44 221.726   2
  -2   4  -1 1044.20 332.990   9
   2  -4   1 912.297 484.883   3
   2  -4   1 1323.90 494.935   8
  -2   4  -1 1081.70 248.535  16
  -2   4  -1 1386.31 496.800  11
  -2  -4  -1 1611.02 361.896   7
  -2   4  -1 1052.44 361.992   7
  -2  -4  -1 1140.69 446.808   4
   2   4   1 1217.25 296.434   7
   2  -4   1 1240.99 334.190   7
  -2  -4  -1 759.618 563.443  14
  -2   4  -2 106097. 2814.38   9
  -2  -4  -2 105629. 3162.69   4
   2  -4   2 103583. 3315.53   3
  -2  -4  -2 98141.6 3319.45  14
   2   4   2 98313.2 2460.63   2
   2   4   2 103572. 3261.13   1
  -2  -4  -2 99102.4 3021.78   7
   2   4   2 108928. 3244.09  13
   2  -4   2 102916. 3281.89   8
  -2   4  -2 101492. 3150.15   7
  -2   4  -2 100345. 3135.59  11
  -2   4  -2 109261. 2774.81   1
   2   4   2 101365. 3257.11   6
   2   4   2 102323. 3283.39  10
   2   4   3 4591.72 723.991  10
   2   4   3 4846.77 714.919   6
   2  -4   3 4470.67 698.096   3
   2   4   3 4410.63 670.704  13
  -2   4  -3 5428.54 395.459   9
  -2  -4  -3 4357.04 623.845   4
   2  -4   3 3937.60 745.025  15
  -2  -4  -3 5665.19 867.860  14
  -2   4  -3 4732.95 486.035  16
   2  -4   3 4873.99 769.161   8
  -2   4  -3 3935.04 423.295   1
  -2  -4  -3 4103.35 576.986   7
  -2   4  -3 3909.41 668.717   7
   2   4   3 4322.85 710.965   1
   2   4   4 10312.9 1064.62   1
   2   4   4 8501.79 925.239  10
   2   4   4 9366.41 927.280   6
   2  -4   4 10006.9 1021.05   3
  -2  -4  -4 8016.43 1033.64  16
   2   4   4 8690.63 961.245  13
   2  -4   4 8857.25 1085.18   8
   2  -4   4 8710.05 1006.54  15
  -2   4  -4 9941.71 985.130   7
  -2  -4  -4 8675.96 878.332   7
  -2  -4  -4 6919.42 1062.54  14
  -2   4  -4 10479.4 749.802  16
  -2  -4  -5 20477.6 1538.44  16
   2  -4   5 23414.2 1704.34   8
  -2  -4  -5 20526.3 1460.31   9
  -2   4  -5 21621.7 1215.04  16
   2   4   5 19438.3 1493.54   1
   2   4   5 19757.8 1453.75  13
  -2  -4  -5 20412.0 1427.58   7
  -2   4  -5 18199.5 1414.87   7
   2   4   5 20011.4 1382.11   6
   2  -4   5 22073.2 1531.23   3
   2   4   5 18558.5 1388.41  10
   2   4   6 16790.4 1458.74  13
  -2  -4  -6 14528.2 1304.32   9
   2  -4   6 16830.1 1532.73   8
  -2   4  -6 17827.4 1533.99   7
  -2  -4  -6 15766.6 1385.36   7
   2   4   6 17721.5 1534.19   1
   2  -4   6 13961.6 1339.52   3
  -2  -4  -6 19473.0 1598.31  16
   2   4   6 17338.8 1385.46   6
  -2   4  -6 17772.7 1210.52  16
   2   4   6 16568.1 1371.82  10
   2   4   7 9153.30 1122.75  10
   2  -4   7 10751.9 1285.02   3
   2   4   7 9341.21 1111.01   6
   2   4   7 11547.2 1378.59  13
  -2  -4  -7 11246.8 1243.39   9
   2  -4   7 12772.1 1495.16   8
  -2  -4  -7 9147.72 1285.75  16
  -2  -4  -7 10771.4 1300.37   7
  -2   4  -7 9625.95 1286.53   7
   2   4   7 9683.00 1267.03   1
   2  -4   8 13214.8 1446.69   3
   2   4   8 10740.0 1387.40  13
  -2  -4  -8 10934.5 1399.88   7
  -2  -5   9 7822.32 1315.34   8
   2   5  -9 7383.25 1254.33   2
   2  -5  -8 4543.12 995.995   9
  -2  -5   8 5042.12 1101.84   8
  -2   5   8 6669.92 1247.02  13
   2   5  -8 6229.26 1065.91   2
   2  -5  -8 2841.63 915.930  16
  -2   5   8 4852.06 1006.90   1
   2   5  -7 6035.67 982.357   2
  -2   5   7 6308.53 1058.22   1
   2  -5  -7 5490.90 1026.61   9
   2   5  -7 6059.48 776.137  16
  -2  -5   7 4460.92 958.906   8
  -2   5   7 5748.95 1078.79  13
  -2  -5   7 3583.65 618.913   1
   2   5  -7 6399.79 878.358  12
   2  -5  -7 7615.29 1074.76  16
   2  -5  -6 10254.1 1175.38   9
   2   5  -6 11298.5 886.702  16
   2  -5  -6 11673.6 775.921   2
  -2  -5   6 10958.4 855.000   1
   2   5  -6 10468.7 1009.14  12
  -2   5   6 10697.8 1203.33   1
  -2   5   6 7603.45 1056.40  13
   2  -5  -6 10671.9 1187.67  16
  -2  -5   6 10938.9 1201.75   8
   2   5  -6 11582.8 1194.45   2
   2   5  -5 6667.25 924.681   2
  -2   5   5 7135.47 924.377   1
   2  -5  -5 5886.06 897.808  16
  -2  -5   5 7113.32 930.750   8
   2  -5  -5 9087.96 1125.12   9
   2  -5  -5 6869.42 581.256   2
   2   5  -5 6486.53 777.245  12
   2   5  -5 6162.10 635.866  16
  -2   5   5 7221.75 810.553  11
  -2   5   5 7960.78 1007.39  13
   2  -5  -4 53182.1 1907.88   2
   2  -5  -4 57828.1 2437.27   9
  -2   5   4 52706.5 2335.16  13
  -2  -5   4 53914.5 2340.47   8
   2   5  -4 55785.6 2347.48   2
  -2  -5   4 54484.3 1885.65  16
  -2  -5   4 59786.0 1722.57  11
   2   5  -4 56492.2 2186.45  12
  -2   5   4 60357.4 2352.22   1
   2  -5  -4 59375.2 2354.70  16
  -2   5   4 54039.2 2232.57  11
   2  -5  -4 56591.8 1908.49   6
  -2   5   3 4369.98 629.588   1
  -2   5   3 4740.82 733.307  13
   2  -5  -3 5002.21 518.764  14
   2  -5  -3 5438.83 879.234   9
   2  -5  -3 4483.39 682.191  16
  -2   5   3 4580.32 561.199  12
  -2  -5   3 5136.19 466.669  15
  -2  -5   3 4930.31 462.378  16
   2  -5  -3 5165.42 521.107   7
   2  -5  -3 5073.08 595.191   3
  -2  -5   3 4725.74 449.795  11
  -2   5   3 4312.63 645.072  11
   2   5  -3 5404.17 743.703   2
  -2  -5   3 5044.20 733.665   8
   2   5  -3 3964.86 599.929  12
  -2   5   2 131695. 4043.76  11
   2   5  -2 132618. 3877.37  10
   2  -5  -2 137368. 4072.41   9
  -2  -5   2 135769. 3742.39   5
  -2   5   2 130157. 3204.45   8
   2  -5  -2 140210. 3858.84  16
  -2  -5   2 137797. 3619.24  16
  -2   5   2 140351. 3622.44   7
  -2  -5   2 135184. 4041.17   8
   2   5  -2 136962. 3921.41   2
   2  -5  -2 135639. 3558.22  14
   2   5  -2 138650. 3659.38   7
   2  -5  -2 137652. 3632.84   7
  -2   5   2 135751. 3855.23  12
  -2   5   2 129562. 3956.42  13
   2   5  -2 133258. 3952.80  12
   2  -5  -2 142578. 4068.46   5
  -2  -5   2 133457. 3454.89  15
   2  -5  -2 130397. 3861.18   3
   2   5  -1 88366.2 2884.26  10
  -2   5   1 88986.1 2625.93  16
  -2  -5   1 91824.2 2768.74   5
   2  -5  -1 87758.2 2911.72   9
   2  -5  -1 83382.2 2932.98   5
   2  -5  -1 91740.3 2498.64   8
  -2   5   1 95791.5 2511.31   8
  -2   5   1 92248.8 2996.23  11
  -2  -5   1 91408.6 2920.12   8
   2   5  -1 94263.5 2757.77   2
   2  -5  -1 90542.0 2636.97  16
  -2   5   1 89539.8 2533.74   7
   2  -5  -1 90524.4 2550.06   7
   2   5  -1 91893.6 2951.23  12
  -2   5   1 90787.3 2873.21  12
   2   5  -1 91204.8 2505.17   7
   2  -5  -1 88156.6 2859.13   3
  -2  -5   1 90752.1 2500.09   7
   2   5   0 148705. 4275.31  10
   2   5   0 147201. 4280.43   6
   2  -5   0 146089. 3981.89   8
  -2  -5   0 146212. 4261.09   4
  -2   5   0 147810. 3990.27   8
  -2  -5   0 138084. 3853.28   2
   2   5   0 150146. 3865.09   2
  -2   5   0 152271. 3758.82  16
  -2  -5   0 145309. 3747.58   7
  -2   5   0 149981. 3876.89   7
   2   5   0 148994. 3754.22   7
   2  -5   0 148348. 3866.63   7
   2   5   0 149203. 4313.93  12
   2  -5   0 146743. 4259.03   3
  -2   5   0 135937. 4212.23  12
  -2   5   0 141557. 4241.96  11
   2   5   1 42213.6 1831.04  10
   2   5   1 41544.5 1799.75   6
  -2   5  -1 43250.2 1562.04   9
   2  -5   1 40387.5 1672.25   8
  -2  -5  -1 42292.3 1764.76   4
   2   5   1 41898.7 1265.57   2
  -2   5  -1 42503.8 1561.63   7
   2  -5   1 39339.0 1772.77   3
  -2   5  -1 43559.8 1275.52  16
  -2  -5  -1 41845.8 1448.78   7
  -2   5  -1 41346.3 1845.95  12
  -2  -5  -1 39416.6 1107.65   3
  -2   5  -1 40734.0 1736.57  11
  -2  -5  -1 41233.1 1825.51  14
  -2   5  -2 67570.1 2314.28   7
  -2   5  -2 67517.3 2037.91   9
   2  -5   2 63367.8 2450.31   8
  -2  -5  -2 63019.9 2361.04   4
  -2   5  -2 65664.4 2604.47  12
   2   5   2 69144.5 2487.15  13
  -2  -5  -2 64646.3 2559.58  14
   2  -5   2 65388.6 2532.71   3
  -2   5  -2 62208.6 2334.65  11
  -2   5  -2 69197.5 1856.90   1
  -2  -5  -2 64612.7 2173.99   7
   2   5   2 64397.6 2471.26   6
   2   5   2 63656.9 2482.14  10
  -2   5  -3 47562.3 1453.99   9
   2  -5   3 44772.2 2115.98   8
  -2   5  -3 49070.2 1555.45  16
  -2   5  -3 47293.3 1526.24   1
  -2  -5  -3 44996.6 1906.78   4
  -2  -5  -3 43645.9 2159.05  14
   2   5   3 45336.6 2090.46   1
  -2  -5  -3 44986.2 1860.34   7
  -2   5  -3 50928.0 2035.10   7
  -2  -5  -3 43940.1 2095.16  16
  -2   5  -3 46540.4 2221.55  12
   2  -5   3 48377.6 2167.92   3
   2   5   3 48991.4 2118.42  13
  -2   5  -3 48866.5 1924.96  11
   2  -5   3 49002.7 2202.29  15
   2   5   3 46998.1 2077.63   6
   2   5   3 45595.1 2088.95  10
  -2   5  -4 21833.3 1450.12   7
  -2  -5  -4 25406.0 1608.61  16
   2  -5   4 24179.1 1642.85   8
  -2   5  -4 24304.8 1116.38  16
  -2  -5  -4 25934.8 1765.51  14
   2  -5   4 25745.1 1638.67  15
   2   5   4 25381.2 1615.16   1
  -2  -5  -4 24952.1 1421.55   7
   2  -5   4 24150.3 1567.01   3
  -2   5  -4 21862.7 1264.24  11
   2   5   4 24254.1 1544.92  13
   2   5   4 22996.9 1480.74   6
   2   5   4 21497.8 1455.81  10
  -2   5  -5 16263.4 1324.14   7
  -2  -5  -5 18210.2 1440.43   9
   2  -5   5 17807.0 1418.96   3
   2  -5   5 18199.5 1542.31   8
  -2  -5  -5 16268.5 1275.31   7
   2  -5   5 18297.4 1470.90  15
   2   5   5 16598.1 1443.34   1
   2   5   5 16789.7 1421.71  13
  -2  -5  -5 15285.7 1405.03  16
  -2   5  -5 17354.0 1087.63  11
  -2   5  -5 16073.5 1009.28  16
   2   5   5 18278.4 1356.15   6
   2   5   5 17813.0 1339.10  10
   2   5   6 10503.2 1148.51  10
   2   5   6 11283.2 1160.85   6
  -2  -5  -6 12671.2 1326.00   9
  -2  -5  -6 9667.34 1199.72  16
   2  -5   6 11048.1 1320.80   8
   2  -5   6 13954.1 1351.24   3
  -2  -5  -6 10462.4 1156.08   7
  -2   5  -6 12377.2 1292.26   7
   2   5   6 10194.0 1291.47   1
   2   5   6 12588.7 1352.41  13
   2  -5   7 1009.04 737.118   3
   2   5   7-237.799 633.884  10
  -2  -5  -7-58.4298 874.454  16
  -2  -5  -7 240.432 679.778   9
   2   5   7-175.250 575.112   6
   2  -5   7-151.444 711.928   8
   2   5   7 585.294 714.937  13
  -2  -5  -7 370.253 597.103   7
  -2   5  -7 58.1666 649.356   7
   2   5   7-350.627 714.267   1
   2  -5   8 3121.07 942.760   3
   2   5   8 4138.28 1079.62  13
  -2  -5  -8 4827.91 1019.35   7
   2  -6  -9 8120.17 1297.62   9
  -2   6   8 16427.0 1638.64   1
   2   6  -8 16643.4 1666.34   2
   2  -6  -8 16206.7 1641.46   9
  -2  -6   8 15401.6 1604.29   8
  -2   6   8 17526.7 1757.13  13
   2  -6  -8 15372.1 1657.33  16
  -2   6   7 10945.0 1297.35   1
  -2  -6   7 11489.9 1384.09   8
   2  -6  -7 9735.23 1272.00   9
  -2   6   7 9240.56 1284.82  13
   2   6  -7 9630.05 1080.01  12
   2  -6  -7 9668.43 1263.16  16
   2   6  -7 9699.75 1236.71   2
   2  -6  -6 96801.1 3805.82   9
  -2   6   6 97549.9 3907.40  13
   2   6  -6 101207. 3890.35   2
  -2   6   6 100744. 3851.26   1
  -2  -6   6 103310. 3927.19   8
   2  -6  -6 101603. 3841.02  16
   2   6  -6 95443.9 3544.05  12
  -2   6   5 5760.31 887.708   1
   2  -6  -5 3678.34 977.822   9
   2  -6  -5 4815.74 502.726   2
  -2   6   5 4809.25 863.535  13
   2  -6  -5 3591.20 780.587  16
  -2  -6   5 4278.22 497.099   1
   2   6  -5 6281.64 810.391  12
  -2   6   5 4716.90 753.397  11
  -2  -6   5 6112.22 985.234   8
   2   6  -5 4319.45 785.870   2
   2  -6  -4 15527.8 1049.20  14
   2  -6  -4 18422.8 1417.17   9
   2   6  -4 17073.1 1313.99   2
  -2  -6   4 16180.9 1290.70   8
  -2  -6   4 17109.2 841.116  16
   2  -6  -4 16154.4 1223.96  16
  -2   6   4 16497.9 1204.05   1
   2   6  -4 16280.5 1168.34  12
   2  -6  -4 16832.0 895.541   2
  -2  -6   4 16130.8 834.993  11
  -2   6   4 15708.7 1201.50  11
  -2   6   4 15864.7 1315.96  13
  -2   6   3 15610.6 1190.44  13
   2  -6  -3 18185.8 1243.48   5
   2  -6  -3 16673.5 1313.04   9
   2   6  -3 18306.7 1228.84   2
  -2  -6   3 18948.8 1286.98   8
   2  -6  -3 14730.8 1071.01  16
   2  -6  -3 15253.3 1019.10   3
  -2  -6   3 18499.4 916.167  15
   2  -6  -3 15796.0 883.115   7
  -2   6   3 15937.5 1094.30   1
   2   6  -3 18387.8 1202.12  12
  -2   6   3 16502.8 1065.49  12
  -2   6   3 16004.5 1178.93  11
  -2  -6   3 18403.9 824.837  16
   2  -6  -3 17835.6 984.846  14
   2   6  -2 8646.69 798.209   2
  -2  -6   2 8087.35 557.927  16
  -2  -6   2 7787.58 819.317   8
  -2  -6   2 9144.84 774.781   5
   2  -6  -2 7885.79 929.005   9
   2  -6  -2 7038.63 842.712   5
   2  -6  -2 7402.15 536.068   7
   2  -6  -2 8059.38 616.509  14
  -2   6   2 7033.05 681.479   1
   2   6  -2 8755.70 583.053   7
  -2   6   2 5614.49 783.089  13
   2   6  -2 8588.46 861.563  12
  -2   6   2 7415.34 762.620  12
   2  -6  -2 7416.96 703.217  16
  -2   6   2 7567.48 855.247  11
   2  -6  -2 7087.94 700.285   3
   2   6  -1 44957.8 1895.32  10
  -2  -6   1 41711.0 1749.16   5
   2  -6  -1 43691.9 1887.52   9
   2  -6  -1 44087.8 1956.52   5
  -2   6   1 40439.2 1873.87  11
  -2  -6   1 42509.6 1360.42   7
   2  -6  -1 41462.7 1449.08   8
   2   6  -1 42342.7 1659.50   2
  -2   6   1 44414.4 1477.08   8
  -2  -6   1 46243.8 1874.61   8
   2  -6  -1 44443.9 1569.98  16
  -2   6   1 42382.1 1538.23  16
   2  -6  -1 42938.5 1807.63   3
  -2   6   1 41658.4 1411.74   7
   2  -6  -1 43373.6 1423.77   7
   2   6  -1 46052.4 1398.45   7
   2   6  -1 44962.6 1912.00  12
  -2  -6   1 42078.1 1530.35   1
  -2   6   1 43642.9 1862.89  12
   2   6   0 731.752 291.038   2
   2  -6   0 271.100 436.188   3
   2   6   0 537.239 518.471  10
  -2  -6   0 733.374 302.456   2
  -2   6   0 638.286 227.298  16
  -2  -6   0 529.435 217.912   7
   2   6   0 661.032 492.553  12
  -2   6   0 759.749 282.928   7
  -2   6   0 204.082 517.332  12
   2   6   0 406.272 181.660   7
   2  -6   0 674.627 258.697   7
   2  -6   0 969.919 429.680   8
  -2   6   0 543.597 479.633  11
   2   6   1 51991.8 2211.82  10
   2   6   1 53121.1 2210.19   6
   2   6   1 53564.6 1601.87   2
   2  -6   1 52882.5 2070.46   8
  -2  -6  -1 53399.0 2164.19   4
  -2   6  -1 52088.3 1467.96  16
  -2   6  -1 54338.1 1852.59   7
   2  -6   1 57137.8 2251.46   3
  -2  -6  -1 50963.0 2208.13  14
  -2   6  -1 48300.9 2093.48  11
  -2  -6  -1 53775.1 1479.87   3
  -2   6  -1 54722.1 2284.98  12
  -2  -6  -1 51931.3 1600.22   2
  -2  -6  -1 54292.2 1693.60   7
   2   6   2 42568.3 1987.07  10
   2   6   2 40923.9 1932.18   6
   2   6   2 38654.1 1877.27  13
  -2   6  -2 41839.9 1149.11  16
  -2   6  -2 42913.0 1516.94   9
  -2   6  -2 38602.9 1117.35   1
   2  -6   2 36358.3 1818.12   8
  -2  -6  -2 39631.0 1834.20   4
  -2   6  -2 38853.1 1116.41  16
  -2  -6  -2 42836.4 1564.99   7
  -2   6  -2 42735.6 1697.12   7
  -2   6  -2 38918.0 1991.53  12
   2  -6   2 42001.9 1974.12   3
  -2  -6  -2 39823.6 1972.07  14
  -2   6  -2 39933.1 1807.19  11
   2   6   3 37894.9 1909.22   6
   2  -6   3 35572.0 1937.46   8
  -2  -6  -3 38723.0 1936.18  16
  -2   6  -3 38937.4 1199.25  16
  -2  -6  -3 37817.6 1788.17   4
  -2  -6  -3 41806.4 2110.16  14
   2   6   3 39947.7 1959.57   1
  -2   6  -3 36219.7 1739.31   7
  -2   6  -3 38102.2 2064.15  12
   2  -6   3 38950.9 1999.72   3
   2  -6   3 35122.8 1916.67  15
  -2   6  -3 39695.2 1761.07  11
   2   6   3 35502.6 1883.19  13
  -2  -6  -3 38419.4 1631.88   7
   2   6   3 36695.3 1926.90  10
   2  -6   4 15027.8 1301.81  15
   2  -6   4 13923.7 1285.67   8
  -2  -6  -4 16642.7 1375.80   9
  -2  -6  -4 11916.3 1329.58  14
  -2  -6  -4 12446.0 1001.51   7
  -2   6  -4 13736.0 1140.85   7
   2   6   4 13753.2 1235.40  13
  -2  -6  -4 15646.0 1102.94   4
   2  -6   4 12891.5 1235.56   3
  -2   6  -4 13091.8 1355.68  12
   2   6   4 13406.3 1247.78   1
  -2   6  -4 15009.1 1034.17  11
  -2  -6  -4 11826.2 1192.44  16
   2   6   4 14234.0 1199.46   6
   2   6   4 12875.9 1163.42  10
   2  -6   5 21794.5 1649.45  15
  -2  -6  -5 24648.4 1718.14   9
   2  -6   5 21982.0 1724.51   8
  -2  -6  -5 22136.5 1688.50  16
  -2  -6  -5 21995.0 1482.87   7
   2   6   5 21882.7 1634.86  13
  -2   6  -5 23068.7 1795.60  12
   2   6   5 20705.6 1629.81   1
  -2   6  -5 21435.5 1566.28   7
   2  -6   5 22208.2 1676.10   3
  -2  -6  -5 21545.0 1809.70  14
   2   6   5 21324.1 1522.95   6
   2   6   5 21564.6 1562.28  10
   2   6   6 8860.18 1133.79  10
   2  -6   6 10272.3 1258.34   3
   2   6   6 10323.3 1139.66   6
  -2  -6  -6 9271.47 1172.69   9
   2   6   6 8330.46 1169.38  13
   2  -6   6 10016.2 1338.29   8
  -2  -6  -6 10127.7 1168.04   7
  -2   6  -6 11289.3 1399.13  12
  -2   6  -6 9739.85 1222.73   7
  -2  -6  -6 11725.1 1391.02  16
   2   6   6 9016.53 1206.42   1
   2   6   7 6214.28 972.596  10
   2  -6   7 6789.70 1126.23   3
  -2  -6  -7 9153.13 1371.06  16
  -2  -6  -7 6465.92 1120.95   9
   2   6   7 7666.60 1099.72   6
   2   6   7 7464.01 1223.41  13
  -2   6  -7 5294.34 1190.72  12
   2  -6   7 7473.63 1363.13   8
  -2  -6  -7 8377.31 1158.15   7
  -2   6  -7 8154.26 1194.63   7
   2   6   7 8642.84 1335.81   1
  -2  -6  -8 3380.01 977.221   9
  -2  -6  -8 3091.03 926.589   7
   2  -7  -8 7677.40 1250.55   9
  -2  -7   8 7893.55 1331.58   8
   2  -7  -8 6011.52 1162.31  16
  -2   7   8 6709.11 1162.28   1
  -2   7   8 6185.28 1219.76  13
   2  -7  -7 3678.85 945.713  16
   2  -7  -7 3660.39 1057.55   9
   2   7  -7 1709.45 703.517  12
  -2   7   7 4078.52 923.197   1
  -2   7   7 4720.58 1114.04  13
  -2  -7   7 2864.31 982.225   8
   2   7  -7 2748.57 935.283   2
  -2  -7   6 2438.41 782.719   8
  -2   7   6 2176.65 768.849   1
   2  -7  -6 2031.24 822.397  16
   2  -7  -6 1603.41 921.411   9
  -2   7   6 3841.72 977.356  13
   2   7  -6 829.809 558.853  12
   2   7  -6 785.544 645.168   2
   2   7  -5 43987.8 2149.69  12
  -2   7   5 42337.9 2306.22  13
   2  -7  -5 39324.8 2239.68   9
   2   7  -5 38613.2 2212.25   2
  -2   7   5 44214.4 2206.40   1
  -2  -7   5 43867.1 2307.21   8
   2  -7  -5 40404.2 2130.90  16
  -2   7   5 41240.3 2154.44  11
   2  -7  -4 50051.5 2478.97   9
   2   7  -4 52765.9 2402.43   2
  -2  -7   4 47119.0 2342.84   8
  -2   7   4 49957.5 2234.73   1
   2  -7  -4 48956.6 1989.65   3
   2  -7  -4 54305.2 2071.36  14
  -2   7   4 48182.4 2382.80  13
  -2  -7   4 53057.9 1953.77  15
  -2   7   4 47646.2 2103.81  12
   2  -7  -4 47654.6 1769.15   2
   2  -7  -4 48145.9 2219.88  16
  -2   7   4 50401.8 2354.46  11
   2   7  -4 51635.6 2302.74  12
   2  -7  -3 20017.1 1452.08   5
   2  -7  -3 22856.6 1567.97   9
   2   7  -3 19712.1 1383.98   2
  -2  -7   3 19272.5 1405.00   8
   2  -7  -3 23365.1 1330.71  16
  -2  -7   3 22281.5 1076.28  15
   2  -7  -3 22402.8 1181.29  14
   2  -7  -3 20722.1 1007.01   7
  -2   7   3 18949.6 1404.72  13
  -2   7   3 22481.3 1359.72  12
   2  -7  -3 21472.7 1229.00   3
   2   7  -3 21310.2 1429.73  12
  -2   7   3 21039.9 1435.45  11
  -2   7   3 20771.4 1270.35   1
  -2   7   2 16539.9 1164.62  12
   2  -7  -2 17033.4 968.494  14
   2  -7  -2 15527.7 1304.21   9
   2  -7  -2 17479.2 1321.17   5
  -2  -7   2 16370.1 1117.72   5
   2  -7  -2 17537.7 676.188   8
   2   7  -2 18109.4 1163.91   2
  -2  -7   2 18792.1 1266.34   8
   2  -7  -2 17533.0 1050.13  16
  -2  -7   2 19357.3 875.793  16
  -2   7   2 15748.5 989.940   1
   2   7  -2 15979.1 796.793   7
   2  -7  -2 17346.7 808.558   7
  -2  -7   2 17800.4 827.714   1
   2   7  -2 14844.0 1203.56  12
  -2   7   2 18267.2 1302.05  11
   2  -7  -2 18457.5 1134.86   3
   2   7  -1 36282.5 1819.15  10
  -2   7   1 37728.1 1438.75  16
  -2  -7   1 38974.6 1776.20   5
   2  -7  -1 37829.4 1847.10   9
   2  -7  -1 38972.7 1942.25   5
   2  -7  -1 37902.8 1404.51   8
   2   7  -1 37166.4 1596.46   2
   2  -7  -1 36601.9 1433.00  16
   2  -7  -1 37395.8 1249.37   7
   2   7  -1 38121.9 1204.57   7
  -2   7   1 39177.6 1269.77   7
  -2   7   1 37274.5 1420.90   1
  -2  -7   1 35251.0 1723.62   8
   2  -7  -1 35921.5 1736.30   3
   2   7  -1 38210.0 1905.65  12
  -2   7   1 37542.3 1400.69   8
  -2   7   1 39897.8 1860.32  12
  -2  -7   1 37597.2 1449.41   1
  -2   7   1 34769.3 1851.18  11
   2  -7   0 79210.4 2892.57   9
   2   7   0 87077.4 2637.52   2
   2  -7   0 83572.4 2721.07   8
  -2  -7   0 89087.7 2949.99   8
   2   7   0 81316.8 3068.04  10
  -2   7   0 89776.2 2382.84  16
   2  -7   0 84276.3 3043.32   3
  -2   7   0 86886.9 2453.90   7
  -2   7   0 90191.4 2379.69   1
  -2   7   0 83391.4 3100.18  12
   2   7   0 87373.5 3170.30  12
  -2  -7   0 80623.1 2224.91   7
  -2  -7   0 87788.1 2563.80   3
  -2   7   0 87172.9 3104.25  11
   2   7   1 26391.4 1599.06  10
  -2   7  -1 25042.7 1150.37   7
   2   7   1 23302.9 1003.10   2
   2  -7   1 29027.4 1474.82   8
  -2  -7  -1 28010.2 1583.19   4
  -2  -7  -1 29634.6 988.314   3
  -2  -7  -1 29094.0 1021.28   7
  -2   7  -1 23711.4 1551.42  12
  -2  -7  -1 27495.7 1037.76   2
  -2  -7  -1 30337.4 1690.41  14
   2  -7   1 29602.2 1632.27   3
  -2   7  -1 24582.0 1488.67  11
   2   7   1 20945.9 1509.96  12
   2   7   2 89943.6 3368.03  10
   2   7   2 91112.6 3347.06   6
   2  -7   2 88461.9 3224.14   8
  -2  -7  -2 91635.2 3243.77   4
  -2  -7  -2 87561.5 3195.27  16
  -2  -7  -2 87866.3 3384.48  14
   2  -7   2 90550.5 3387.81   3
  -2   7  -2 90771.3 3188.48  11
  -2   7  -2 96935.2 2953.38   7
  -2  -7  -2 94797.4 2721.11   7
  -2   7  -2 87406.0 3414.74  12
   2   7   3 16920.3 1369.78  10
   2   7   3 17078.8 1328.52   6
   2   7   3 19665.1 1458.63  13
  -2  -7  -3 15887.7 1366.06   9
   2  -7   3 14782.3 1283.35   8
  -2  -7  -3 16483.5 1295.50  16
  -2  -7  -3 17531.5 1258.96   4
  -2   7  -3 18029.6 1209.27  11
   2  -7   3 14521.8 1312.55  15
  -2  -7  -3 16913.4 1003.70   7
   2   7   3 17475.4 1312.12   1
  -2   7  -3 19195.8 1495.85  12
   2  -7   3 14875.9 1288.42   3
  -2  -7  -3 15254.5 1360.91  14
  -2   7  -3 16994.2 1148.78   7
   2   7   4 27141.7 1766.17  10
   2   7   4 27555.0 1726.11   6
   2  -7   4 26561.9 1807.50  15
  -2  -7  -4 27848.7 1475.65   7
  -2  -7  -4 25195.6 1793.41   9
  -2   7  -4 26256.4 1585.07   7
   2  -7   4 25724.6 1772.36   8
  -2  -7  -4 25822.9 1771.33  16
  -2  -7  -4 27599.4 1577.12   4
  -2  -7  -4 27171.6 1890.16  14
   2   7   4 27594.6 1757.24   1
   2   7   4 28442.8 1819.32  13
  -2   7  -4 27163.0 1897.57  12
   2  -7   4 26533.6 1825.52   3
  -2   7  -4 28426.2 1506.37  11
   2   7   5 27997.4 1843.34  10
   2   7   5 27375.6 1799.45   6
  -2  -7  -5 33453.0 2077.33  16
  -2  -7  -5 27585.1 1949.77   9
  -2  -7  -5 28585.2 1679.04   7
   2  -7   5 29862.5 2034.66   8
   2  -7   5 26450.1 1925.64   3
   2   7   5 29538.4 1954.42   1
   2   7   5 28946.0 1939.17  13
  -2   7  -5 26281.7 1743.64   7
  -2   7  -5 31508.8 2154.34  12
   2  -7   5 28071.5 1944.75  15
  -2  -7  -5 29655.8 2053.18  14
   2  -7   6 4347.49 943.838   3
   2   7   6 3290.08 802.789  10
   2   7   6 4204.77 910.586   6
  -2  -7  -6 5353.74 1087.19   9
  -2  -7  -6 4474.64 841.398   7
   2  -7   6 5074.67 1064.05   8
  -2   7  -6 4260.50 1029.36  12
   2   7   6 3592.51 960.960  13
  -2   7  -6 4835.93 925.689   7
  -2  -7  -6 5121.98 1108.45  16
   2   7   6 3896.91 910.507   1
   2   7   7 4884.35 965.896  10
   2   7   7 7189.68 1046.00   6
  -2  -7  -7 5755.08 1118.70   9
   2   7   7 5931.55 1153.57  13
  -2   7  -7 2719.83 983.209  12
  -2   7  -7 4291.11 973.586   7
   2  -8  -7 9310.99 1277.83  16
   2  -8  -7 8816.70 1407.84   9
  -2   8   7 10105.4 1376.62  13
  -2   8   7 8411.35 1232.10   1
   2   8  -7 10154.9 1230.44  12
   2   8  -7 8524.17 1292.84   2
  -2  -8   7 7126.22 1181.74   8
   2  -8  -6 9822.29 1218.25  16
  -2  -8   6 9410.52 1257.37   8
   2  -8  -6 10490.0 1394.35   9
   2   8  -6 10209.4 1185.08  12
  -2   8   6 7831.45 1174.11  13
  -2   8   6 10110.6 1192.95   1
   2   8  -6 10426.8 1252.21   2
   2  -8  -5 21504.1 1738.77   9
  -2   8   5 22170.7 1598.06   1
   2   8  -5 20930.2 1648.24   2
  -2  -8   5 22493.3 1711.38   8
   2  -8  -5 20105.6 1530.61  16
   2   8  -5 19906.5 1551.32  12
  -2   8   5 19868.1 1553.12  11
  -2   8   5 20094.6 1645.70  13
   2  -8  -4 32712.6 1961.19   5
   2  -8  -4 30205.0 2008.82   9
   2   8  -4 33686.6 1960.40   2
  -2   8   4 35454.6 1854.57   1
  -2  -8   4 29053.0 1868.27   8
   2  -8  -4 32122.2 1770.99  16
   2  -8  -4 33710.8 1673.16  14
   2  -8  -4 33147.0 1603.45   3
  -2   8   4 33970.6 1802.83  12
  -2  -8   4 33656.7 1550.78  15
   2   8  -4 30414.5 1833.94  12
  -2   8   4 32134.8 1976.05  13
  -2   8   4 33654.3 1987.22  11
   2  -8  -3 28332.2 1844.11   9
   2  -8  -3 28239.0 1801.12   5
   2   8  -3 31913.6 1759.31   2
  -2   8   3 31663.3 1588.14   1
  -2  -8   3 29848.9 1760.49   8
   2  -8  -3 30864.4 1597.93  16
   2  -8  -3 31311.2 1509.57  14
   2  -8  -3 29930.2 1543.90   3
  -2   8   3 28373.6 1773.29  13
  -2   8   3 31096.3 1709.44  12
   2   8  -3 27410.4 1698.82  12
  -2  -8   3 30122.4 1370.09  15
  -2   8   3 29702.8 1811.63  11
   2  -8  -2 9989.19 1140.02   9
   2  -8  -2 9482.77 522.108   8
   2  -8  -2 10468.5 1121.31   5
  -2  -8   2 10073.3 954.068   5
  -2   8   2 9960.24 796.556   1
  -2  -8   2 10810.0 1048.98   8
   2  -8  -2 9990.08 817.103  14
   2   8  -2 8270.85 919.297   2
   2  -8  -2 11184.1 871.514  16
   2   8  -2 9476.20 1025.75  12
  -2   8   2 8666.73 937.190  12
  -2   8   2 9036.71 1027.21  11
   2  -8  -2 7597.64 841.911   3
  -2   8   1 410.274 169.772   7
   2   8  -1 959.695 651.912  10
  -2   8   1 1156.80 604.798  12
   2  -8  -1-86.3931 645.077   9
  -2  -8   1-29.9303 582.260   5
   2  -8  -1 221.057 667.166   5
  -2   8   1 710.724 305.923   1
   2  -8  -1 530.922 338.094  16
   2  -8  -1 281.019 356.792   8
   2   8  -1 407.697 535.215  12
  -2  -8   1 35.6161 470.579   8
   2   8  -1 876.923 465.271   2
  -2   8   1 106.336 595.195  11
   2  -8  -1 346.245 483.950   3
   2   8   0 11021.1 1094.80  10
  -2  -8   0 11154.3 1052.63   5
  -2   8   0 11736.1 576.998   1
   2  -8   0 11830.0 1071.27   9
   2   8   0 9456.07 804.420   2
   2  -8   0 10767.4 862.227   8
  -2  -8   0 10210.6 931.366   8
  -2   8   0 11502.3 602.689   7
   2  -8   0 10675.1 1044.96   3
   2   8   0 10862.2 1114.38  12
  -2  -8   0 11899.9 780.709   3
  -2   8   0 11295.9 1113.60  12
  -2   8   0 10086.9 1045.35  11
  -2  -8  -1 2671.24 348.067   3
   2  -8   1 2238.74 674.026   3
   2  -8   1 3008.38 663.400   8
  -2  -8  -1 2396.47 542.078  16
   2   8   1 2522.91 737.034  10
  -2  -8  -1 2411.04 696.073   4
  -2  -8  -1 2304.55 552.277   8
  -2  -8  -1 2897.13 712.752  14
   2   8   1 2505.40 743.351  12
  -2   8  -1 3053.28 389.004   7
  -2   8  -1 3613.12 780.465  12
  -2   8  -1 3386.72 694.613  11
   2   8   2 9580.65 1101.52  10
  -2  -8  -2 9627.90 1075.95   9
  -2  -8  -2 8679.57 1013.76   4
  -2   8  -2 9075.77 747.223   7
  -2  -8  -2 8975.65 940.590  16
   2  -8   2 9837.49 1040.73   8
  -2   8  -2 8074.15 1089.88  12
   2  -8   2 9264.89 1071.07   3
  -2  -8  -2 8878.94 1024.38  14
  -2   8  -2 9443.06 983.999  11
   2   8   3 15063.5 1359.07  10
  -2  -8  -3 15978.3 1411.84   9
  -2  -8  -3 13188.7 1166.76   4
  -2  -8  -3 15182.5 1265.06  16
   2  -8   3 13047.4 1251.08   8
  -2  -8  -3 12693.1 1307.06  14
  -2   8  -3 14379.3 1034.94   7
   2  -8   3 13914.0 1315.19   3
  -2   8  -3 14247.2 1359.24  12
  -2   8  -3 16329.8 1205.27  11
   2  -8   4 9879.92 1253.28   3
   2  -8   4 10215.2 1289.28   8
   2   8   4 11433.7 1230.11  10
   2   8   4 11553.8 1184.35   6
  -2  -8  -4 10600.6 1283.65   9
  -2  -8  -4 12106.1 1126.66   4
   2  -8   4 10208.6 1175.06  15
   2   8   4 8893.34 1078.65   1
   2   8   4 11273.8 1225.71  13
  -2   8  -4 11196.6 1028.46   7
  -2  -8  -4 10443.1 1183.68  16
  -2  -8  -4 10599.9 1305.95  14
  -2   8  -4 11109.6 1335.13  12
  -2   8  -4 10192.0 959.181  11
  -2  -8  -5 13090.0 1403.48  16
   2  -8   5 13346.6 1478.06   3
   2   8   5 12106.7 1290.51  10
   2   8   5 13672.9 1334.92   6
  -2  -8  -5 14963.7 1533.01   9
  -2   8  -5 14202.7 1551.21  12
   2  -8   5 13035.0 1489.96   8
   2  -8   5 14188.2 1461.02  15
  -2  -8  -5 12518.3 1481.38  14
   2   8   5 14504.5 1464.92  13
  -2   8  -5 14352.1 1303.18   7
   2   8   5 11716.1 1323.18   1
   2  -8   6 6987.15 1209.71   3
   2   8   6 7037.85 1106.82  10
   2   8   6 7467.29 1085.91   6
  -2  -8  -6 6197.33 1149.65   9
   2  -8   6 6408.01 1206.71   8
   2  -8   6 7821.28 1175.17  15
   2   8   6 8551.41 1252.84  13
  -2   8  -6 8256.91 1337.82  12
  -2   8  -6 6881.31 1067.93   7
   2   8   6 8436.71 1264.44   1
  -2  -8  -6 6305.10 1189.41  16
   2   8   7 18143.7 1674.65  10
  -2   8  -7 16659.3 1682.39   7
   2  -9  -7 4504.90 1287.86   9
  -2   9   7 3885.60 1002.34   1
   2   9  -7 2439.59 770.865  12
  -2   9   6 16441.9 1531.89   1
   2  -9  -6 15328.4 1653.51   9
  -2  -9   6 15951.2 1644.89   8
  -2   9   6 16995.8 1670.89  13
   2   9  -6 14656.4 1461.63  12
   2  -9  -6 16615.3 1540.94  16
   2   9  -6 13746.5 1470.14   2
   2  -9  -5 708.839 988.896   9
   2  -9  -5 2520.65 725.269  16
   2  -9  -5 3608.28 879.267   5
  -2  -9   5 3334.62 907.712   8
  -2   9   5 3197.68 891.843  13
   2  -9  -5 2991.88 731.379  14
   2   9  -5 3819.70 881.500  12
  -2   9   5 3548.09 812.864   1
   2   9  -5 3590.40 975.650   2
  -2   9   5 2792.62 809.651  11
  -2   9   4 28660.2 1773.12  12
  -2   9   4 26429.2 1658.11   1
   2  -9  -4 29227.7 1939.56   5
   2  -9  -4 26566.2 1878.67   9
   2   9  -4 29510.2 1893.46   2
  -2  -9   4 28226.7 1880.35   8
   2  -9  -4 27572.5 1692.14  16
   2  -9  -4 29513.6 1528.20   3
  -2   9   4 29043.2 1960.23  13
   2  -9  -4 28194.5 1587.25  14
   2   9  -4 27064.0 1854.34  12
  -2   9   4 28820.1 1925.37  11
  -2  -9   3 6926.37 681.697  15
   2   9  -3 6127.92 917.508   2
  -2  -9   3 6844.23 738.366   9
   2  -9  -3 5728.97 1067.59   9
   2  -9  -3 6836.64 1021.92   5
  -2  -9   3 4920.10 894.355   8
   2  -9  -3 5737.46 730.344  14
  -2   9   3 5541.27 752.199   1
  -2   9   3 6691.03 945.080  12
   2   9  -3 4797.32 883.886  12
   2  -9  -3 6918.29 820.546  16
   2  -9  -3 4820.63 696.027   3
  -2   9   3 5979.03 938.063  11
  -2  -9   2 44085.2 1998.58   9
  -2   9   2 45828.7 1848.43   1
   2  -9  -2 41609.1 2237.81   9
   2  -9  -2 45083.2 2353.64   5
   2   9  -2 43767.0 2082.05   2
  -2  -9   2 42356.2 2074.62   5
  -2  -9   2 43662.3 2146.66   8
   2  -9  -2 43350.1 1908.45  14
  -2   9   2 42816.2 2180.50  12
   2   9  -2 42320.9 2249.29  12
   2  -9  -2 43917.8 1826.76  16
  -2   9   2 39694.2 2213.92  11
   2  -9  -2 42784.3 2001.11   3
  -2   9   1 1228.40 597.340  12
   2  -9  -1 833.454 336.004  16
  -2  -9   1 1173.67 465.102   3
  -2  -9   1 467.819 525.608   9
  -2  -9   1 1146.69 347.876  16
   2  -9  -1 1590.29 774.656   9
  -2  -9   1 1716.53 660.136   5
   2  -9  -1 539.302 650.638   5
   2  -9  -1 817.460 386.257   8
  -2   9   1 712.499 301.862   1
   2   9  -1 1184.97 632.778  12
   2   9  -1 1293.29 533.550   2
  -2   9   1 1240.24 617.047  11
   2  -9  -1 814.589 542.937   3
  -2  -9   1 457.869 539.679   8
   2   9   0 26403.2 1722.20  10
  -2  -9   0 25626.8 1643.31   9
  -2  -9   0 27800.4 1696.30   5
   2   9   0 24769.0 1289.16   2
   2  -9   0 24373.8 1548.15   9
   2  -9   0 25610.3 1364.58   8
  -2  -9   0 26674.7 1305.25  16
  -2  -9   0 24515.4 1465.80   8
   2  -9   0 25531.1 1590.93   3
   2   9   0 26444.6 1758.61  12
  -2   9   0 22812.1 1647.95  12
  -2  -9   0 26727.8 1269.78   3
  -2   9   0 21496.1 1544.37  11
   2   9   1 37492.1 2150.09  10
  -2  -9  -1 37540.8 2120.70   9
   2  -9   1 40609.5 1937.82   8
  -2  -9  -1 42518.6 2176.82   4
  -2  -9  -1 42437.2 1897.40   8
   2   9   1 38988.3 2200.59  12
   2  -9   1 40494.5 2127.75   3
  -2  -9  -1 41507.1 1855.73  16
  -2   9  -1 38589.5 2185.85  12
  -2  -9  -1 41879.5 2215.33  14
  -2   9  -1 36563.7 2028.55  11
   2   9   2 15080.5 1378.97  10
  -2  -9  -2 16520.8 1430.28   9
  -2  -9  -2 14708.2 1401.39  14
   2  -9   2 16661.7 1341.56   8
  -2  -9  -2 15624.7 1339.12   4
  -2  -9  -2 15618.9 1091.55   8
  -2   9  -2 15759.9 1433.14  12
  -2  -9  -2 15323.8 1222.24  16
   2  -9   2 15399.6 1364.01   3
  -2   9  -2 15519.0 1285.05  11
   2   9   3 40038.4 2269.90  10
  -2  -9  -3 39002.9 2350.92   9
   2  -9   3 39771.0 2211.59   8
  -2  -9  -3 40909.4 2124.74   4
  -2  -9  -3 42245.2 2188.02  16
  -2  -9  -3 37564.6 2265.52  14
  -2   9  -3 33529.5 2207.06  12
   2  -9   3 41275.0 2324.73   3
  -2   9  -3 38835.8 2011.24  11
   2   9   4 22524.6 1778.33  10
  -2  -9  -4 24305.6 1792.02  16
  -2  -9  -4 26717.2 1953.56   9
   2  -9   4 26651.8 1949.03   8
  -2  -9  -4 25241.2 1675.03   4
   2  -9   4 23472.9 1802.41  15
  -2   9  -4 27391.7 2032.83  12
   2  -9   4 25733.9 1943.94   3
  -2  -9  -4 25465.2 1957.07  14
  -2   9  -4 23111.1 1522.14  11
   2  -9   5 936.356 882.647   8
   2  -9   5 727.741 713.232   3
   2   9   5 871.123 684.714   1
   2   9   5 374.204 708.214  10
  -2  -9  -5 833.851 911.931   9
   2  -9   5 176.703 734.880  15
  -2  -9  -5 689.537 945.561  14
   2   9   5 450.484 615.038  13
  -2  -9  -5 987.909 765.108  16
  -2   9  -5-279.127 743.875  12
   2   9   6 9510.70 1310.76  10
  -2  -9  -6 7526.67 1329.96  16
   2  -9   6 10030.0 1352.63  15
   2   9   6 9666.14 1436.72  13
   2  10  -7 3834.25 977.194  12
   2 -10  -6 32919.3 2332.26   5
   2 -10  -6 34786.5 2521.80   9
   2  10  -6 39908.4 2566.20   2
  -2 -10   6 32996.6 2340.57   8
   2  10  -6 32862.5 2248.52  12
  -2  10   6 34373.8 2443.66  13
   2 -10  -6 31293.1 2181.49  16
  -2  10   6 37142.2 2323.06   1
  -2  10   5 30038.7 1953.94   1
   2 -10  -5 32396.4 2212.37   5
   2 -10  -5 28258.9 2206.80   9
   2  10  -5 29179.2 2109.24   2
   2 -10  -5 29132.0 1944.69  16
  -2 -10   5 30332.8 2166.67   8
  -2  10   5 29711.0 2168.06  13
   2  10  -5 32943.8 2161.34  12
   2 -10  -4 4612.69 1121.77   9
   2 -10  -4 3196.86 945.966   5
  -2 -10   4 2710.49 852.959   8
  -2  10   4 4019.28 798.139   1
   2 -10  -4 3384.36 766.701  16
  -2  10   4 3907.98 872.771  12
   2  10  -4 2705.47 816.618  12
   2  10  -4 3004.77 878.575   2
  -2  10   4 2255.61 839.587  11
  -2 -10   3 9558.26 1037.25   3
   2 -10  -3 6837.30 1235.51   9
   2 -10  -3 6294.81 1144.82   5
  -2 -10   3 6326.78 956.282   8
   2 -10  -3 9965.88 973.035  14
   2 -10  -3 6978.14 857.513  16
  -2  10   3 8309.81 861.612   1
  -2  10   3 8346.21 1057.73  12
   2  10  -3 9233.33 1193.48  12
   2  10  -3 9291.04 1090.55   2
   2 -10  -3 8839.08 927.444   3
  -2  10   3 7649.24 1133.90  11
  -2 -10   2 12920.1 1128.81   9
   2  10  -2 13619.5 1233.65   2
   2 -10  -2 10917.2 1321.50   9
  -2 -10   2 13359.5 1275.02   5
   2 -10  -2 12229.8 1330.75   5
  -2 -10   2 13497.5 1239.92   8
   2  10  -2 13848.3 1403.68  12
  -2  10   2 12124.8 1258.60  12
  -2 -10   2 12450.6 1118.26   3
   2 -10  -2 12861.1 1127.18   3
  -2  10   2 13619.6 1336.54  11
   2 -10  -2 12643.4 1057.72  14
  -2 -10   1 21978.8 1515.75   9
   2  10  -1 20786.5 1353.13   2
   2 -10  -1 19021.7 1550.25   9
  -2 -10   1 25019.4 1663.88   5
   2 -10  -1 23550.7 1786.97   5
  -2 -10   1 21493.1 1476.00   8
   2 -10  -1 18965.7 1414.30   3
   2  10  -1 21045.6 1633.14  12
  -2  10   1 22615.8 1650.10  12
  -2 -10   1 20504.9 1302.92   3
  -2  10   1 19816.0 1588.39  11
   2  10   0 1202.34 657.979  10
  -2 -10   0 1090.27 648.853   9
   2 -10   0 1032.44 686.541   9
  -2 -10   0 548.942 642.005   5
   2 -10   0 1500.73 502.331   8
  -2 -10   0 1679.99 551.804   8
   2  10   0 2572.21 827.333  12
  -2  10   0 689.304 605.478  12
  -2  10   0 2101.54 682.932  11
   2 -10   0 2311.01 714.448   3
  -2 -10  -1 2975.21 832.807  14
   2 -10   1 2829.43 761.759   3
   2  10   1 3977.56 955.532  10
  -2 -10  -1 1886.91 790.690   9
  -2 -10  -1 2022.15 694.403   5
   2  10   1 2386.86 785.297  12
  -2 -10  -1 5045.23 939.529   4
  -2 -10  -1 2892.21 618.973  16
  -2 -10  -1 2672.28 603.989   8
  -2  10  -1 3066.42 794.097  12
   2 -10   1 3019.28 708.968   8
  -2  10  -1 2882.22 750.966  11
   2 -10   2 7346.19 1089.52   3
   2 -10   2 6806.19 1003.91   8
   2  10   2 7815.85 1131.61  10
  -2 -10  -2 6499.47 1103.30   9
  -2 -10  -2 7188.26 1018.19   4
  -2 -10  -2 6121.05 852.472  16
  -2 -10  -2 7685.47 1134.52  14
  -2  10  -2 6558.42 1049.99  12
  -2  10  -2 7583.90 970.272  11
   2 -10   3 9736.74 1228.14   3
   2  10   3 12611.8 1418.57  10
  -2 -10  -3 12783.1 1466.07   9
   2 -10   3 12047.7 1319.19   8
  -2 -10  -3 12538.5 1252.00  16
  -2 -10  -3 12596.3 1421.95  14
  -2 -10  -3 11615.2 1260.50   4
  -2  10  -3 14229.4 1534.97  12
  -2  10  -3 12545.9 1208.95  11
   2 -10   4 3643.53 967.401   3
   2  10   4 4099.72 906.129  10
  -2 -10  -4 5429.40 1086.36   9
   2 -10   4 4007.91 951.285  15
   2 -10   4 3301.06 906.703   8
  -2 -10  -4 3633.22 812.063   4
  -2 -10  -4 5398.40 993.867  16
  -2 -10  -4 4962.83 1059.68  14
  -2  10  -4 6005.12 1157.96  12
   2  10   5 16575.1 1624.25  10
   2 -10   5 16406.2 1666.41   8
  -2 -10  -5 16105.0 1777.27  14
  -2 -10  -5 14322.3 1538.96  16
   2 -10   5 13858.8 1517.73  15
   2 -11  -6 12279.8 1456.01  16
  -2  11   6 15623.5 1576.60   1
   2  11  -6 12829.3 1520.60  12
  -2  11   5 12361.1 1355.90   1
   2 -11  -5 10904.0 1544.02   9
   2 -11  -5 10604.6 1441.64   5
   2 -11  -5 14313.7 1393.80  16
   2  11  -5 11775.7 1470.22   2
   2  11  -5 10810.5 1388.59  12
  -2 -11   5 11335.1 1473.24   8
  -2 -11   5 13657.7 1491.76   3
  -2 -11   4 9917.55 1203.76   3
   2 -11  -4 7689.31 1277.30   9
   2 -11  -4 6811.82 1228.77   5
  -2 -11   4 8555.00 1190.83   8
  -2  11   4 8532.75 1152.13  12
   2  11  -4 7056.24 1125.06  12
   2  11  -4 8825.24 1266.72   2
  -2  11   4 8753.25 1263.39  11
   2 -11  -3 20733.7 1829.92   9
   2  11  -3 22551.7 1749.99   2
   2 -11  -3 24047.7 1884.03   5
  -2 -11   3 22312.8 1745.05   8
  -2  11   3 20973.6 1718.77  12
   2  11  -3 23214.3 1865.57  12
  -2 -11   3 23582.7 1688.36   3
  -2  11   3 22455.3 1827.44  11
  -2 -11   2 31705.5 1823.26   9
   2  11  -2 29320.4 1896.60   2
   2 -11  -2 33370.0 2149.05   9
   2 -11  -2 32222.4 2188.86   5
  -2 -11   2 29108.3 1934.47   5
  -2 -11   2 33921.8 2007.47   8
  -2  11   2 29193.9 2010.10  12
   2  11  -2 30254.0 2123.02  12
  -2 -11   2 31736.6 1827.77   3
  -2  11   2 28310.0 2032.58  11
   2 -11  -2 29909.5 1788.19   3
  -2 -11   1 26987.6 1754.10   9
   2 -11  -1 26928.2 1841.97   9
  -2 -11   1 26918.4 1842.62   5
   2 -11  -1 27182.9 2013.93   5
  -2 -11   1 23984.3 1637.49   8
   2 -11  -1 27122.5 1750.88   3
  -2  11   1 27562.1 1966.58  12
  -2  11   1 25078.0 1861.26  11
   2  11  -1 25154.6 1960.87  12
  -2 -11   0 59560.4 2929.68   9
   2 -11   0 62076.6 2825.86   9
  -2 -11   0 66691.1 3079.86   5
  -2 -11   0 63838.5 2741.88   8
   2  11   0 71984.1 3321.48  12
   2 -11   0 64073.5 2924.03   3
  -2  11   0 67828.2 3204.47  12
  -2  11   0 63764.5 3048.98  11
   2 -11   1 7453.27 1092.20   3
   2  11   1 4808.34 961.625  10
  -2 -11  -1 5196.64 947.296   9
  -2 -11  -1 6137.50 1110.78   5
  -2 -11  -1 5585.07 981.228   4
   2 -11   1 5435.95 861.170   8
  -2 -11  -1 4511.61 965.878  14
   2  11   1 4096.81 1008.75  12
  -2  11  -1 4639.69 1019.03  12
  -2  11  -1 4296.78 875.916  11
   2  11   2 33487.5 2222.08  10
  -2 -11  -2 32723.5 2228.62   9
  -2 -11  -2 36681.1 2338.71   5
   2 -11   2 32571.9 2025.84   8
  -2 -11  -2 35965.4 2238.45   4
  -2 -11  -2 35124.6 2297.48  14
   2 -11   2 36034.4 2249.56   3
  -2  11  -2 37297.8 2411.92  12
  -2  11  -2 32889.8 2068.04  11
   2 -11   3 1977.22 884.346   3
   2  11   3 2702.17 925.717  10
  -2 -11  -3 1744.14 913.020   9
  -2 -11  -3 1658.16 853.892  14
  -2 -11  -3 2457.36 733.331  16
   2 -11   3 2133.15 853.193   8
  -2  11  -3 1815.71 909.546  12
  -2 -11  -3 1369.31 677.863   4
  -2  11  -3 1835.16 673.542  11
   2 -11   4 3642.81 978.875   3
   2  11   4 3939.31 965.558  10
  -2 -11  -4 3916.40 951.687  16
  -2 -11  -4 5596.72 1029.35   4
   2 -11   4 3792.20 961.315  15
   2 -11   4 2459.07 928.179   8
  -2 -11  -4 5284.56 1169.20  14
  -2 -11  -5 7695.47 1269.89  16
  -2 -12   4 13703.2 1473.78   3
   2 -12  -4 13072.2 1651.44   9
  -2 -12   4 10645.1 1421.56   8
  -2  12   4 11947.2 1383.39  12
   2  12  -4 13190.4 1589.45  12
   2  12  -4 10678.8 1417.92   2
  -2 -12   3 2444.92 729.106   3
   2  12  -3 962.348 709.895   2
   2 -12  -3 2921.88 1072.27   9
   2 -12  -3 1443.37 956.563   5
  -2 -12   3 612.143 720.286   8
   2  12  -3-48.4653 733.807  12
  -2  12   3 2761.47 866.596  12
  -2  12   3 3588.71 1076.48  11
   2 -12  -2 2772.51 959.461   9
   2 -12  -2 4347.27 1095.64   5
  -2 -12   2 3223.58 865.466   5
  -2 -12   2 3703.71 885.807   8
  -2  12   2 3469.01 869.607  12
   2  12  -2 5770.79 1178.45  12
  -2  12   2 5623.30 1137.69  11
  -2 -12   1 15379.6 1429.76   9
  -2 -12   1 16070.2 1579.27   5
   2 -12  -1 15153.7 1517.85   9
   2 -12  -1 16396.8 1674.55   5
  -2 -12   1 16830.4 1419.12   8
   2  12  -1 16458.1 1661.24  12
   2 -12  -1 16666.5 1422.35   3
  -2  12   1 16707.0 1610.14  12
  -2  12   1 15749.6 1556.75  11
  -2 -12   0 19636.3 1667.66   9
  -2 -12   0 18865.3 1685.23   5
   2  12   0 23038.0 1925.68  12
  -2 -12   0 16811.2 1663.12  14
   2 -12   0 20450.1 1659.97   3
  -2  12   0 20321.1 1809.98  12
  -2  12   0 17728.8 1646.62  11
  -2 -12  -1 8149.75 1252.99   9
  -2 -12  -1 11521.8 1421.77   5
  -2 -12  -1 7980.45 1207.85  14
   2  12   1 8774.86 1278.96  12
  -2 -12  -1 8511.12 1242.29   4
  -2  12  -1 11823.1 1449.80  12
  -2  12  -1 8889.55 1216.55  11
   2 -12   1 9580.97 1221.17   3
   2 -12   2 3569.25 943.032   3
   2  12   2 4705.29 1081.78  10
  -2 -12  -2 1567.15 817.456   9
  -2 -12  -2 3593.67 1025.63   5
  -2 -12  -2 3385.73 874.531   4
  -2 -12  -2 2531.43 941.687  14
  -2  12  -2 1850.99 807.480  12
  -2  12  -2 2787.60 805.211  11
   2 -12   3 5602.85 1089.48   3
  -2 -12  -3 6816.88 1116.27   4
   2 -12   3 8067.90 1231.83   8
  -2 -12  -3 8208.50 1317.31  14
   2 -12   4 4510.00 1136.30   8
  -2 -13   4 310.232 675.930   3
  -2 -13   3 2343.69 886.580   8
  -2  13   3 360.694 898.093  12
   2 -13  -2 31682.3 2347.01   9
  -2 -13   2 29597.0 2074.96   8
  -2  13   2 34684.0 2403.87  12
  -2 -13   1 482.349 679.370   9
   2 -13  -1-121.894 842.775   9
  -2 -13   1 114.393 685.636   5
  -2  13   1 132.021 742.894  12
  -2 -13   0 2852.67 893.859   9
  -2 -13   0 3283.72 1022.29   5
  -2 -13   0 4526.42 1080.28  14
   2 -13   0 2249.35 751.045   3
  -2  13   0 4180.46 1052.33  11
  -2 -13  -1 65379.7 3428.36  14
  -2 -13  -1 63011.4 3342.82   9
  -2 -13  -1 61553.6 3356.97   5
   2 -13   1 71144.6 3391.01   3
  -2  13  -1 68119.6 3411.13  11
  -2  13  -2 1730.41 786.994  11
   2 -14  -1 1253.49 947.023   9
  -3   0  10 3776.52 1022.61   1
   3   0 -10 3480.65 1044.69  16
   3   0  -9 13278.5 1311.98   2
   3   0  -9 12169.2 1363.56  16
  -3   0   9 9640.56 1256.90   1
  -3   0   9 11104.7 1568.27  13
  -3   0   8 57103.5 2514.21   8
   3   0  -8 52894.7 2745.09  16
   3   0  -8 55148.7 2580.13   2
  -3   0   8 55699.2 2723.00   1
   3   0  -7 24477.7 1528.36   2
  -3   0   7 23662.3 1442.64   8
   3   0  -7 24306.1 1641.69  16
  -3   0   7 23163.6 1604.63   1
  -3   0   6 3386.24 619.999   8
   3   0  -6 4735.96 804.568  16
   3   0  -6 4533.79 412.458  12
   3   0  -5 103210. 3392.09   2
  -3   0   5 104050. 3215.96   8
   3   0  -5 104024. 2619.91  12
  -3   0   5 103875. 2796.24  11
   3   0  -5 104999. 3499.24  16
  -3   0   4 100221. 3022.80   8
   3   0  -4 101526. 2705.63   4
   3   0  -4 102405. 3270.21  16
   3   0  -4 98203.5 3175.02   2
  -3   0   4 102334. 2785.17  11
   3   0  -3 11472.3 419.279   5
   3   0  -3 11021.4 616.677   4
   3   0  -3 9316.24 827.927  16
  -3   0   3 12153.6 769.416   8
  -3   0   3 11918.3 964.586   7
   3   0  -3 10263.5 804.049   2
   3   0  -3 8852.78 392.230  10
  -3   0   2 776531. 17804.6   5
  -3   0   2 766176. 18385.6   7
   3   0  -2 806532. 18400.4   2
   3   0  -2 777282. 17947.8   6
   3   0  -2 795356. 18196.8   4
  -3   0   1 32975.2 1081.18  14
   3   0  -1 31484.0 1306.67   3
  -3   0   1 33230.8 1360.53   7
  -3   0   1 31896.6 1289.11   3
   3   0  -1 34898.6 1371.49   7
   3   0  -1 32160.8 1206.86   6
   3   0   0 1337.09 321.032  14
  -3   0   0 1229.26 383.132  14
  -3   0   0 839.877 418.934   7
   3   0   0 955.226 359.771   3
  -3   0   0 1110.05 326.354   3
   3   0   1 119233. 3025.00  13
   3   0   1 123560. 3480.22  15
   3   0   1 126286. 3519.15  14
  -3   0  -1 132724. 3561.07  14
   3   0   1 122448. 3401.40   3
  -3   0  -1 135240. 3713.51   7
  -3   0  -1 120917. 3401.84   3
   3   0   2 58706.7 2135.44  15
   3   0   2 60000.6 1813.88  13
  -3   0  -2 53596.8 2184.46   7
   3   0   2 59117.6 1973.79   3
  -3   0  -2 57896.3 1953.30   3
   3   0   3 47482.1 1751.83  13
  -3   0  -3 46112.1 2075.32   7
   3   0   3 47372.9 1781.24   3
   3   0   4 87018.2 2932.42  13
  -3   0  -4 84224.2 3259.87   7
   3   0   4 89840.6 2895.24   3
   3   0   5 16720.2 1214.37  13
  -3   0  -5 16207.1 1400.14   7
   3   0   5 16882.7 1118.15   3
  -3   0  -5 15159.5 1263.82  16
   3   0   5 13046.8 1226.93   6
   3   0   5 15541.5 1294.33  10
   3   0   6 314.703 639.285   6
   3   0   6 539.519 628.985  10
   3   0   6 373.633 503.329   3
  -3   0  -6 247.830 601.146  16
   3   0   6 251.060 625.678  13
  -3   0  -6 585.167 634.518   7
   3   0   7 7760.58 1092.87   6
   3   0   7 6095.40 1039.45  10
  -3   0  -7 4272.15 937.685  16
   3   0   7 3970.08 947.121  13
  -3   0  -7 6926.76 1151.53   7
   3   0   8 149.979 679.562   6
   3   0   8-312.401 668.640  10
  -3   0  -8-585.656 802.188  16
  -3  -1  10 7576.77 1192.60   1
   3   1 -10 10053.8 1407.71  16
   3   1 -10 11849.7 1353.57   2
   3  -1  -9 3567.60 774.345   2
   3  -1  -9 3300.07 945.908  16
  -3  -1   9 3439.30 801.398   1
  -3   1   9 4127.82 1049.56  13
  -3  -1   9 4088.55 886.539   8
   3   1  -9 2002.97 833.445  16
  -3   1   9 6782.22 1086.71   1
   3   1  -9 3209.08 836.818   2
   3   1  -8 7420.86 995.450   2
  -3  -1   8 6247.24 963.401   8
   3  -1  -8 7296.37 963.024   2
  -3   1   8 6555.94 1082.14   1
  -3  -1   8 8860.89 1149.54   1
   3   1  -8 10210.1 1340.00  16
   3  -1  -8 10420.9 1327.33  16
  -3   1   8 9576.67 1423.01  13
  -3   1   8 9187.45 982.188   8
  -3   1   7 37318.4 1744.19   8
  -3  -1   7 35523.1 1881.66   8
   3   1  -7 35817.7 1941.42   2
   3   1  -7 36014.7 2019.76  16
   3  -1  -7 35915.6 1845.21   2
   3  -1  -7 34126.6 2050.57  16
  -3  -1   7 38100.3 2002.54   1
  -3   1   7 37093.9 2207.19  13
  -3   1   7 36989.9 2068.84   1
   3  -1  -6 83436.7 3319.51  16
  -3   1   6 88627.0 2937.44   8
  -3  -1   6 93018.8 3194.92   8
   3   1  -6 83866.3 3223.89  16
   3  -1  -6 90048.4 3151.28   2
   3   1  -6 87484.1 3226.85   2
   3   1  -6 93815.0 2603.42  12
  -3   1   6 93491.8 2639.13  11
  -3   1   5 20393.1 1054.74   8
  -3  -1   5 20733.6 1214.60   8
   3  -1  -5 20145.5 1321.23  16
   3   1  -5 19651.6 1281.54  16
   3   1  -5 19418.7 1281.36   2
   3  -1  -5 19848.5 1227.00   2
   3  -1  -5 19838.3 666.648  12
   3   1  -5 20944.2 801.703  12
  -3  -1   5 21126.6 725.764  11
  -3   1   5 21016.7 953.646  11
  -3  -1   5 20937.5 723.286   6
   3   1  -4 38794.6 1696.61   2
  -3   1   4 37800.7 1408.14   8
   3  -1  -4 36696.4 1196.84   4
   3  -1  -4 36483.1 1699.14  16
   3  -1  -4 35341.1 1585.33   2
  -3   1   4 37734.3 1392.71  11
   3   1  -4 35748.2 1070.68  12
  -3  -1   4 38138.8 1594.22   8
  -3  -1   4 37381.8 1104.17   6
   3   1  -4 38727.9 1682.64  16
   3   1  -3 386999. 8960.64  10
   3  -1  -3 395922. 9095.88   5
   3   1  -3 383966. 9288.28   4
  -3  -1   3 381734. 9506.38   8
   3  -1  -3 381768. 9648.00  16
  -3  -1   3 383728. 9612.29   7
  -3   1   3 392763. 9644.10   7
   3   1  -3 388576. 9611.41   2
   3  -1  -3 378186. 9542.96   2
  -3  -1   3 382341. 8923.70  12
   3   1  -3 384255. 9602.23  16
  -3   1   3 382450. 9379.75  11
  -3  -1   3 391890. 9047.92   6
  -3   1   2 44675.3 1363.58   5
   3   1  -2 42888.5 1541.61   4
   3  -1  -2 43979.0 1692.26  16
  -3   1   2 45542.5 1682.57   7
   3  -1  -2 43450.5 1680.90   3
  -3   1   2 44226.5 1459.85  13
   3   1  -2 40356.6 1649.60   2
  -3  -1   2 45743.9 1314.25  12
  -3  -1   2 45485.8 1421.58   6
   3   1  -2 43328.7 1390.55  10
   3   1  -2 40535.8 1376.48   6
  -3  -1   2 45701.9 1684.16   7
   3   1  -1 66369.5 2155.79   4
  -3   1   1 69537.1 2202.59  16
  -3  -1   1 70220.9 2235.50   7
   3   1  -1 75637.2 2279.21   7
  -3   1   1 69220.7 1767.59  14
  -3  -1   1 71572.5 2138.09   3
  -3   1   1 63690.2 2182.50   7
  -3   1   1 67067.9 1751.18  13
   3  -1  -1 65081.7 2193.25   3
  -3   1   1 65940.5 2173.07   3
   3   1  -1 64931.7 2156.11   2
   3  -1  -1 68076.5 2207.56   7
   3   1  -1 65253.2 2051.68   6
   3   1  -1 64246.0 2051.54  10
   3   1   0 163840. 3953.87  15
  -3  -1   0 165587. 4088.94   3
   3  -1   0 144841. 3900.70  14
   3   1   0 156272. 4080.72   3
  -3  -1   0 153320. 3746.51  13
  -3  -1   0 172007. 4337.66   7
  -3   1   0 139914. 4208.06   7
   3  -1   0 142194. 4149.22   3
  -3   1   0 134672. 4103.52   3
  -3  -1   0 153547. 4139.79  14
   3   1   0 174336. 4284.71   6
   3   1   0 167405. 4259.68  10
  -3   1  -1 43948.4 1797.15   7
   3   1   1 52524.1 1608.60   3
   3  -1   1 37957.4 1663.19  15
   3   1   1 43954.4 1610.65  15
   3  -1   1 43495.2 1632.36  14
  -3  -1  -1 50383.0 1839.51  14
   3   1   1 52069.7 1441.46  13
  -3  -1  -1 51681.1 1602.05   3
   3   1   1 40623.2 1751.06   6
   3   1   1 51991.5 1908.44  10
   3  -1   1 43805.4 1692.13   3
  -3  -1  -1 51972.7 1895.77   7
  -3  -1  -2 51706.4 2073.44  14
   3   1   2 51737.6 1680.88  13
   3   1   2 51091.8 1691.27   3
  -3  -1  -2 55034.0 2120.73   7
  -3   1  -2 50616.9 2058.64   7
   3  -1   2 49632.4 1881.02   3
  -3  -1  -2 51830.5 1682.91   3
   3   1   2 49231.8 2035.30   6
   3  -1   2 47661.4 1955.67  15
   3   1   2 49987.8 2032.03  10
   3  -1   3 13494.5 1067.98  15
   3   1   3 13371.6 897.326  13
  -3  -1  -3 13335.2 1062.23   7
  -3   1  -3 11820.7 1070.45   7
   3   1   3 13987.7 802.754   3
   3  -1   3 15030.2 979.730   3
   3   1   3 12758.6 1055.73   6
   3   1   3 11106.2 1004.81  10
  -3  -1  -4 89117.0 3420.22   7
   3   1   4 93002.9 3415.62   6
   3   1   4 97639.5 3169.75  13
  -3   1  -4 90988.4 3441.33   7
   3   1   4 98928.8 2966.33   3
   3  -1   4 97751.5 3195.87   3
   3   1   4 90571.3 3354.96  10
  -3  -1  -5 29354.2 1779.03  16
  -3   1  -5 28082.3 1647.59  16
  -3  -1  -5 23135.5 1672.56   7
  -3   1  -5 22630.0 1685.81   7
   3   1   5 28001.7 1365.09   3
   3  -1   5 30055.1 1581.02   3
   3   1   5 25185.1 1516.83  13
   3   1   5 25195.2 1651.22   6
   3   1   5 22147.9 1574.54  10
  -3  -1  -6 35638.9 2127.02  16
  -3   1  -6 34345.1 1982.55  16
   3   1   6 33223.6 1906.08  13
   3  -1   6 32291.6 1892.91  13
  -3  -1  -6 30017.3 2033.83   7
  -3   1  -6 30063.6 2046.88   7
   3   1   6 30094.4 1952.91   6
   3  -1   6 33129.6 1822.08   3
   3  -1   6 30648.3 1925.58  10
   3   1   6 33080.2 1954.78  10
   3  -1   7 11499.7 1337.74   6
   3  -1   7 12436.6 1333.93  10
   3   1   7 11980.9 1346.79   6
  -3  -1  -7 14967.9 1526.77  16
   3   1   7 13763.7 1385.50  13
   3  -1   7 12538.5 1329.37  13
  -3   1  -7 11863.1 1338.20  16
  -3  -1  -7 12876.5 1518.03   7
  -3   1  -7 12695.9 1509.80   7
   3   1   7 14395.0 1394.64  10
   3  -1   8 5889.30 1075.92   6
   3  -1   8 6294.40 1111.82  10
   3   1   8 6583.85 1116.44   6
   3   1   8 6801.79 1097.02  10
  -3  -1  -8 6890.44 1189.85  16
  -3   1  -8 7694.64 1152.94  16
  -3  -2  10 12988.9 1448.24   1
  -3  -2  10 10969.9 1411.09   8
   3   2 -10 9144.86 1302.86  16
   3   2 -10 8624.42 1278.78   2
  -3   2   9 8137.06 1355.89  13
  -3  -2   9 9016.32 1171.38   8
  -3  -2   9 10429.5 1214.17   1
   3   2  -9 7266.92 1139.90  16
  -3   2   9 7394.41 1242.03   1
   3  -2  -9 9897.39 1324.36  16
   3   2  -9 10579.6 1261.80   2
  -3  -2   8 39958.0 2213.79   8
   3   2  -8 38385.6 2201.66   2
   3  -2  -8 37901.3 1989.25   2
   3   2  -8 35444.9 2116.23  16
  -3   2   8 39635.1 2324.64   1
  -3  -2   8 36369.2 2068.11   1
  -3   2   8 41408.6 2469.14  13
   3  -2  -8 38630.3 2302.64  16
   3  -2  -7 27742.2 1554.15   2
  -3   2   7 24481.2 1705.96   1
  -3   2   7 26664.6 1359.27   8
  -3  -2   7 26922.5 1669.15   8
   3   2  -7 24726.0 1671.14   2
  -3   2   7 25320.8 1859.83  13
  -3  -2   7 25202.5 1587.39   1
   3   2  -7 24604.1 1614.68  16
   3  -2  -7 26745.1 1792.07  16
  -3   2   6 279125. 6956.93   8
  -3  -2   6 268556. 7464.43   8
  -3  -2   6 264715. 6635.39   4
   3  -2  -6 269010. 7648.64  16
   3   2  -6 267902. 7443.91  16
   3  -2  -6 265874. 7250.03   2
   3   2  -6 259586. 7524.00   2
  -3   2   6 263140. 7689.30  13
   3   2  -6 285257. 6825.47  12
  -3   2   6 265748. 7637.67   1
  -3   2   6 268764. 6914.68  11
  -3  -2   5 24230.8 943.417   6
  -3   2   5 24487.8 1515.49  13
  -3   2   5 25063.9 1062.22   8
  -3  -2   5 22520.2 1328.35   8
   3  -2  -5 20548.5 697.912   4
  -3  -2   5 23588.3 1024.28   4
   3  -2  -5 24872.1 1491.24  16
   3   2  -5 22550.6 1361.14  16
   3   2  -5 22254.3 1370.36   2
   3  -2  -5 22814.3 1281.58   2
   3  -2  -5 22251.9 777.044  12
   3   2  -5 24435.6 984.348  12
  -3   2   5 23536.9 1128.75  11
  -3  -2   5 20574.6 694.759  10
   3   2  -4 58736.7 1571.91   5
  -3   2   4 61724.3 2086.67  11
  -3   2   4 64117.7 1903.86   8
  -3  -2   4 60078.0 1980.97   4
   3  -2  -4 60732.2 2370.95  16
   3   2  -4 63511.4 2285.67  16
   3   2  -4 64844.5 1829.06  12
   3   2  -4 59781.8 2315.43   2
  -3   2   4 62271.9 2326.84  13
   3  -2  -4 62170.3 2214.73   2
  -3  -2   4 64704.4 2331.25   8
   3  -2  -4 59693.0 1576.85  12
  -3  -2   4 63196.1 1691.07  10
  -3  -2   4 63296.9 1850.16   6
   3  -2  -4 62249.3 1647.05  10
   3   2  -3 70433.9 2025.52  10
   3   2  -3 72534.8 2412.84  16
  -3   2   3 72978.2 1946.14  14
   3  -2  -3 74651.8 2196.91   5
  -3  -2   3 73637.3 2480.57   8
  -3  -2   3 76402.3 2312.13   4
   3  -2  -3 79007.5 2578.57  16
  -3  -2   3 74327.2 2464.54   7
  -3   2   3 70941.6 2443.92   7
   3   2  -3 71671.3 2486.44   2
  -3   2   3 71761.5 2367.65  13
  -3   2   3 67873.1 1831.86  12
   3   2  -3 70013.6 2037.16  12
  -3  -2   3 78576.8 2085.35  12
   3  -2  -3 71076.1 2395.13   2
  -3   2   3 71581.6 2357.51  11
  -3  -2   3 78306.4 2056.10  10
  -3  -2   3 73129.6 2120.47   6
   3   2  -2 249691. 6115.74   6
  -3   2   2 246994. 6111.35   5
   3  -2  -2 236628. 6101.95   5
   3   2  -2 248956. 6258.17   4
  -3  -2   2 244457. 6259.69   4
   3  -2  -2 249513. 6389.38  16
  -3  -2   2 244751. 6322.04   7
   3  -2  -2 237079. 6360.00   3
  -3   2   2 242126. 6096.82  13
   3   2  -2 250162. 6358.51   2
  -3  -2   2 243795. 6027.13  12
  -3   2   2 246472. 5897.49  12
  -3   2   2 247888. 6333.05   7
  -3  -2   2 252206. 6126.57   6
  -3  -2   2 245951. 6072.60  10
   3   2  -2 244540. 6057.87  10
  -3   2   1 10985.2 710.755   5
  -3  -2   1 12099.1 845.727   4
  -3   2   1 13500.3 796.941  16
   3  -2  -1 12275.0 860.862   3
   3   2  -1 10866.4 392.837  15
  -3  -2   1 14487.1 751.747   3
  -3  -2   1 12054.2 784.710   7
  -3   2   1 10224.5 779.207   7
   3   2  -1 13183.2 786.618   7
   3  -2  -1 12454.3 783.640   7
  -3   2   1 12176.8 555.944  13
   3  -2  -1 11710.4 563.024  13
  -3  -2   1 12340.1 700.445  12
   3   2  -1 10001.7 722.625   2
  -3  -2   1 11978.3 717.967   6
  -3  -2   1 11168.2 701.937  10
   3   2  -1 11981.0 756.673   6
   3   2  -1 12208.8 749.086  10
  -3   2   0 31763.1 1349.06   8
  -3  -2   0 33281.6 1212.33   3
   3  -2   0 34061.5 1134.64  14
  -3  -2   0 33864.4 1156.35  13
  -3  -2   0 34865.8 1433.69   7
   3  -2   0 33044.9 980.981  13
  -3   2   0 30822.9 1383.08   7
   3  -2   0 29689.3 1376.57   3
  -3  -2   0 36777.0 1445.35  14
   3   2   0 36145.4 1463.06   6
   3   2   0 35239.3 1469.44  10
   3  -2   1 14563.7 838.146  14
   3   2   1 15889.1 749.018  13
  -3  -2  -1 14007.2 1038.55  14
   3   2   1 14829.7 685.471   3
  -3  -2  -1 14402.7 733.855  13
  -3  -2  -1 15099.7 941.459   7
  -3   2  -1 13327.7 928.748   7
   3  -2   1 13553.3 918.820   3
  -3  -2  -1 17820.9 842.400  15
  -3  -2  -1 13760.4 705.630   3
   3   2   1 13112.8 978.021   6
   3   2   1 17414.7 1091.06  10
   3   2   2 115695. 3284.14  13
  -3  -2  -2 114590. 3680.54  14
   3   2   2 117039. 3079.03   3
  -3  -2  -2 119864. 3650.03   7
  -3   2  -2 113617. 3632.25   7
   3  -2   2 123946. 3596.96   3
   3  -2   2 113512. 3623.93  15
   3   2   2 114895. 3646.99   6
   3   2   2 112397. 3620.64  10
   3   2   3 18141.1 996.094   2
   3   2   3 20178.3 1129.24  13
   3   2   3 22182.2 927.381   3
  -3  -2  -3 23337.6 1371.19   7
  -3   2  -3 20894.8 1345.18   7
   3  -2   3 23948.0 1322.50   3
   3   2   3 19397.4 1328.98   6
   3   2   3 20903.8 1339.31  10
   3  -2   3 22661.0 1401.75  15
   3   2   4 4137.65 464.893   3
   3   2   4 3969.19 776.062   6
   3   2   4 4833.90 861.374  10
   3  -2   4 4940.47 725.439   3
   3   2   4 5050.16 714.394  13
  -3  -2  -4 5227.72 833.961   7
  -3   2  -4 4581.09 816.983   7
  -3  -2  -5 17457.3 1440.75  16
  -3   2  -5 14686.7 1172.97  16
   3   2   5 15139.6 1214.25  13
  -3  -2  -5 15654.8 1367.40   7
  -3   2  -5 16522.6 1406.16   7
   3   2   5 15180.3 932.545   3
   3  -2   5 17348.0 1281.48   3
   3   2   5 15264.2 1326.57   6
   3   2   5 15399.5 1307.48  10
   3   2   6 4943.51 935.767   6
   3   2   6 5034.15 897.373  10
   3  -2   6 7683.49 944.719   3
  -3  -2  -6 5550.28 839.200   9
  -3  -2  -6 5983.07 1078.35  16
  -3   2  -6 6532.61 932.492  16
  -3  -2  -6 6582.26 1007.82   7
  -3   2  -6 4234.40 947.025   7
   3   2   6 6004.18 940.707  13
   3   2   7 13658.6 1391.32   6
   3   2   7 10246.0 1269.69  10
   3  -2   7 12926.6 1323.81   3
  -3   2  -7 14152.4 1393.68  16
  -3  -2  -7 11766.2 1413.86  16
   3   2   7 12598.8 1349.07  13
   3  -2   7 12421.9 1369.89  13
  -3  -2  -7 13306.9 1470.41   7
  -3   2  -7 10162.2 1408.55   7
   3  -2   8-65.5076 746.954   6
   3  -2   8 251.107 673.601  10
   3   2   8-480.730 674.423  10
   3   2   8-250.247 699.308   6
  -3   2  -8-416.751 785.887  16
  -3  -3  10 6684.37 1234.66   8
  -3  -3   9 19400.9 1718.50   8
   3   3  -9 21438.0 1829.70   2
  -3   3   9 20531.6 1815.18   1
  -3  -3   9 18738.8 1552.46   1
   3  -3  -9 19421.0 1802.65  16
   3   3  -9 18564.3 1621.66  16
  -3   3   9 21402.4 1951.38  13
   3   3  -8 6719.41 1073.29   2
  -3  -3   8 7334.14 969.991   1
  -3   3   8 9938.71 1403.39  13
   3   3  -8 5407.44 933.444  16
   3  -3  -8 6202.06 1112.15  16
  -3   3   8 7525.07 1078.68   1
  -3  -3   8 8417.70 1165.55   8
   3   3  -7 10116.9 1147.68   2
  -3  -3   7 12793.8 1248.17   8
   3   3  -7 11899.5 1136.18  16
   3  -3  -7 10889.0 972.840   2
  -3   3   7 10094.6 1219.48   1
  -3   3   7 13918.7 1437.89  13
  -3  -3   7 12449.6 1121.08   1
   3   3  -7 11043.3 872.255  12
   3  -3  -7 12027.8 1307.99  16
   3   3  -6 6078.33 877.749   2
   3  -3  -6 7930.37 794.075   2
  -3  -3   6 7367.90 628.559   4
  -3   3   6 8151.43 603.931   8
  -3   3   6 6439.57 941.046   1
  -3  -3   6 6948.24 914.185   8
  -3   3   6 8603.07 1168.52  13
   3   3  -6 8221.68 683.810  12
   3   3  -6 6900.64 827.584  16
  -3   3   6 7214.29 715.826  11
   3  -3  -6 8487.32 1047.46  16
   3  -3  -5 3193.63 316.847  10
   3  -3  -5 2691.24 735.613  16
  -3  -3   5 2711.25 317.710  10
   3   3  -5 2822.24 720.398   2
  -3  -3   5 2824.23 423.650   6
   3   3  -5 3373.17 349.136   5
   3  -3  -5 1790.36 478.267   2
  -3  -3   5 3095.01 470.101   4
  -3  -3   5 3430.74 684.848   8
  -3   3   5 2484.02 745.136  13
  -3   3   5 2859.98 353.856   8
   3  -3  -5 2383.00 311.935  12
   3   3  -5 2672.51 439.205  12
   3   3  -5 2189.33 562.391  16
  -3   3   5 2883.13 524.261  11
   3  -3  -4 20652.3 832.267  10
  -3  -3   4 18656.6 928.242   6
   3   3  -4 20012.6 696.863   5
  -3   3   4 19978.4 758.162   8
  -3  -3   4 19331.7 1040.89   4
  -3  -3   4 19255.1 1213.21   8
   3  -3  -4 18359.1 1231.66  16
   3   3  -4 20100.6 1258.05   2
   3   3  -4 18613.0 1112.60  16
  -3   3   4 20690.0 897.478  14
  -3   3   4 18810.1 1217.64  13
   3  -3  -4 20255.9 782.218  12
   3   3  -4 19362.4 927.889  12
   3  -3  -4 17644.6 1050.26   2
  -3   3   4 21356.1 1131.33  11
   3  -3  -4 18338.4 638.499   6
   3   3  -4 19335.7 929.873  15
  -3  -3   4 18684.8 833.577  10
   3   3  -3 17085.0 836.639  10
   3  -3  -3 18324.4 834.230  10
   3  -3  -3 18612.1 974.451   5
  -3  -3   3 18408.1 1008.40   4
  -3  -3   3 18884.8 1150.08   8
   3  -3  -3 17480.2 1121.29  16
  -3  -3   3 16076.8 1013.68   7
  -3   3   3 16600.5 1021.68   7
   3   3  -3 17523.4 1113.72   2
   3   3  -3 18249.6 709.941  15
  -3   3   3 15909.4 1005.86  13
  -3   3   3 17978.0 736.108  12
   3   3  -3 16064.5 847.702  12
   3  -3  -3 16183.9 1044.01   3
  -3  -3   3 17263.0 868.601  12
   3  -3  -3 17508.0 749.132  12
  -3   3   3 18279.0 641.125  14
  -3   3   3 18000.4 1072.91  11
  -3  -3   3 18523.8 850.635  10
  -3  -3   3 17962.4 891.949   6
   3   3  -2 32558.9 1293.66  10
   3   3  -2 30698.9 1313.52   6
  -3  -3   2 34697.9 1057.06   5
   3  -3  -2 31323.7 1358.07   5
  -3  -3   2 32425.4 1431.68   4
   3  -3  -2 33455.5 1444.59  16
  -3  -3   2 32796.4 1292.49  12
  -3  -3   2 32351.4 1387.44   7
   3  -3  -2 32250.4 1460.77   3
   3   3  -2 31442.2 1421.57   2
  -3   3   2 33850.6 1321.49  13
   3  -3  -2 33889.5 1327.04  13
   3   3  -2 33854.1 1302.72  12
  -3   3   2 34988.6 1213.60  12
  -3   3   2 31068.1 1488.08  11
  -3   3   2 33666.1 1392.29   7
  -3  -3   2 33013.0 1332.85   6
  -3  -3   2 33423.1 1291.26  10
   3   3  -1 3890.38 536.958  10
   3   3  -1 4456.35 565.275   6
   3   3  -1 4133.06 536.341   2
  -3   3   1 3604.66 422.561   8
  -3   3   1 4065.65 487.985  16
  -3  -3   1 4313.26 628.057   4
   3  -3  -1 4120.26 212.455  14
  -3  -3   1 4144.41 492.353  12
  -3   3   1 4369.07 406.147  13
   3  -3  -1 4048.80 416.199  13
  -3  -3   1 4532.45 511.896   7
  -3   3   1 4317.44 523.857   7
   3   3  -1 4112.94 487.261   7
  -3   3   1 3622.45 499.262  12
   3  -3  -1 2792.63 532.243   3
  -3  -3   0 185542. 5117.26  14
  -3  -3   0 184961. 4996.74   7
  -3  -3   0 183906. 5187.60   4
  -3   3   0 185040. 4949.37  16
  -3  -3   0 185486. 4576.66  15
  -3  -3   0 188195. 4727.84   3
  -3  -3   0 189946. 4885.08  13
   3  -3   0 187728. 4690.62  13
  -3   3   0 188249. 5072.34   7
   3  -3   0 185135. 5161.44   3
   3   3   0 210958. 4957.29   2
   3   3   0 185724. 4991.68   7
   3   3   0 198028. 5208.90   6
   3   3   0 198833. 5195.64  10
  -3  -3  -1 252110. 6175.86  15
  -3  -3  -1 249735. 6282.39  13
  -3  -3  -1 244557. 6603.94  14
  -3  -3  -1 246996. 6525.65   4
  -3  -3  -1 245444. 6441.98   7
  -3   3  -1 240682. 6494.97   7
  -3  -3  -1 254763. 5922.79   3
   3  -3   1 245911. 6586.51   3
   3   3   1 242958. 6105.60   2
   3   3   1 239414. 6632.67   6
   3   3   1 244113. 6643.43  10
   3   3   2 53442.1 1937.64  13
   3  -3   2 58514.5 2228.15   3
   3  -3   2 52439.4 2192.54  15
   3   3   2 53305.7 1495.06   3
  -3  -3  -2 53366.9 2236.47  14
  -3   3  -2 55380.0 2162.14   7
  -3  -3  -2 55190.8 2115.69   7
   3   3   2 55640.9 2204.74   6
   3   3   2 52332.6 2164.34  10
   3  -3   3 1392.72 605.156   3
   3   3   3 2146.67 693.390  10
   3   3   3 2913.90 716.097   6
   3  -3   3 2203.58 727.080   8
   3  -3   3 2272.57 658.289  15
  -3  -3  -3 1282.99 839.390  14
   3   3   3 1645.55 511.371  13
  -3  -3  -3 1557.80 523.655   7
  -3   3  -3 3221.05 666.868   7
   3   3   3 2020.38 338.379   2
   3   3   3 2764.09 270.605   3
   3  -3   4 63981.2 2818.29   8
   3   3   4 67574.1 1909.49   3
   3   3   4 65022.8 2514.95  13
   3  -3   4 63383.1 2753.98  15
  -3  -3  -4 60159.4 2619.65   7
  -3   3  -4 61956.1 2710.39   7
   3  -3   4 61375.3 2597.87   3
   3   3   4 60314.0 2639.52   6
   3   3   4 64709.5 2680.59  10
   3   3   5 1336.57 653.565  10
   3   3   5 2670.84 746.894   6
   3  -3   5 2724.44 694.306   3
  -3   3  -5 1295.35 550.380  16
  -3  -3  -5 2197.62 758.656  16
   3   3   5 2264.92 677.340  13
  -3  -3  -5 1914.93 646.015   7
  -3   3  -5 1198.45 677.159   7
   3   3   6 1929.06 747.450  10
   3   3   6 1289.39 701.492   6
   3  -3   6 868.523 639.879   3
  -3  -3  -6 730.252 619.511   9
  -3   3  -6 2009.82 656.550  16
   3   3   6 1784.74 685.765  13
  -3  -3  -6 1217.77 644.757   7
  -3   3  -6 964.975 663.365   7
  -3  -3  -6 1264.13 670.958  16
   3   3   7 3116.67 857.635  10
   3   3   7 1124.46 693.871   6
   3  -3   7 1508.31 729.174   3
  -3  -3  -7 1637.80 890.888  16
  -3   3  -7 1201.99 638.452  16
   3   3   7 3192.78 854.823  13
  -3  -3  -7 477.371 604.648   7
  -3   3  -7 120.343 728.695   7
   3  -3   8 15782.0 1592.49  10
   3   3   8 17291.0 1617.40   6
  -3   4   9-538.095 775.851   1
  -3  -4   9 1029.54 872.577   8
   3  -4  -9-304.888 859.372  16
  -3   4   9 2162.39 1067.50  13
   3   4  -9 344.457 751.520   2
  -3  -4   8 19649.8 1674.99   8
   3   4  -8 17911.5 1613.44   2
  -3   4   8 19313.3 1714.56   1
   3  -4  -8 18077.6 1688.69  16
  -3   4   8 17625.7 1696.16  13
  -3  -4   8 18118.0 1390.79   1
   3   4  -8 20513.4 1502.70  16
  -3  -4   7 39034.1 2238.04   8
   3   4  -7 39984.1 2265.50   2
   3  -4  -7 38905.4 2271.42  16
   3   4  -7 37926.6 1959.37  16
  -3   4   7 45066.7 2414.08   1
  -3  -4   7 41352.8 2001.70   1
   3  -4  -7 39523.9 1851.38   2
   3   4  -7 41699.5 1833.37  12
  -3   4   7 41622.1 2393.20  13
   3   4  -6 10665.7 1125.44   2
  -3   4   6 10261.9 1155.19   1
  -3  -4   6 10041.4 806.668   4
   3  -4  -6 10260.4 1188.91  16
   3   4  -6 9817.48 923.196  16
  -3  -4   6 8899.47 1055.25   8
  -3   4   6 9311.91 1167.03  13
   3  -4  -6 9128.75 827.648   2
   3   4  -6 12129.1 875.614  12
  -3   4   6 9598.39 904.318  11
   3   4  -5 45054.8 1471.95   5
  -3   4   5 42681.0 1170.53   8
  -3  -4   5 44835.1 1767.24   4
  -3  -4   5 46874.7 2138.39   8
   3   4  -5 42009.5 2065.03   2
   3  -4  -5 43487.4 2099.54  16
   3   4  -5 44654.3 1851.83  16
   3  -4  -5 44743.2 1514.91  12
  -3   4   5 44861.1 2131.82  13
   3   4  -5 43461.9 1719.56  12
  -3  -4   5 38070.5 1098.33  11
  -3   4   5 42195.1 2084.45   1
  -3   4   5 42987.7 1872.23  11
   3  -4  -5 42601.6 1283.61   6
   3  -4  -5 42125.1 1786.89   2
   3  -4  -5 42284.9 1499.00  10
  -3  -4   5 44186.3 1536.96  10
   3  -4  -4 104361. 2945.48  10
   3  -4  -4 98394.3 3199.01   5
  -3  -4   4 98825.2 3158.19   4
  -3  -4   4 100492. 3460.90   8
   3  -4  -4 100319. 3410.20  16
  -3   4   4 104800. 2832.46  14
   3   4  -4 96833.2 3401.78   2
  -3   4   4 98844.5 3375.37  13
   3   4  -4 99190.2 3053.60  12
   3  -4  -4 102298. 2863.83  12
   3  -4  -4 98433.8 3123.40   2
  -3   4   4 96332.7 3253.34  11
  -3  -4   4 106129. 2763.12  11
   3  -4  -4 100877. 2719.63   6
  -3  -4   4 101749. 2961.85  10
   3  -4  -3 25025.2 1114.47  10
   3   4  -3 22872.9 1094.29  10
   3  -4  -3 24867.6 1316.30   3
   3  -4  -3 26666.8 1303.54   5
  -3   4   3 22630.8 730.706   8
  -3  -4   3 26039.2 1295.82   4
   3   4  -3 21760.7 1266.83   2
  -3  -4   3 24363.1 1379.14   8
   3  -4  -3 25765.7 1359.36  16
  -3  -4   3 24955.1 1232.86   7
  -3   4   3 23974.1 1228.03   7
  -3   4   3 26087.6 1310.37  13
  -3   4   3 23238.3 1013.87  12
   3   4  -3 24274.2 1163.10  12
   3  -4  -3 23315.2 1022.74  12
  -3   4   3 23543.5 1307.04  11
   3   4  -2 107293. 3132.19  10
  -3   4   2 105150. 3123.86  13
  -3  -4   2 106157. 2852.39   5
   3  -4  -2 107493. 3236.30   5
  -3   4   2 113560. 2780.28   8
  -3  -4   2 105588. 3262.08   4
  -3  -4   2 109321. 3368.94   8
   3  -4  -2 108744. 3314.36   3
  -3   4   2 110698. 3144.73   7
   3   4  -2 107345. 3240.67   2
  -3  -4   2 106373. 3101.16   7
   3   4  -2 102248. 3120.31  12
  -3   4   2 106371. 3019.28  12
  -3   4   2 109740. 3363.21  11
   3  -4  -2 105837. 3210.45  16
   3  -4  -2 96677.0 2496.03  14
   3   4  -1 40300.9 1664.27   6
  -3   4   1 39445.3 1422.85   8
   3   4  -1 39971.4 1538.82   2
  -3   4   1 36672.3 1484.96  16
   3   4  -1 42697.7 1536.77   7
  -3  -4   1 39724.7 1506.37   7
  -3  -4   1 41253.4 1721.41   4
   3  -4  -1 38746.0 1462.70  13
   3  -4  -1 38656.7 1683.01   3
  -3   4   1 39907.3 1542.76   7
  -3   4   1 40545.8 1588.78  12
  -3   4   1 38713.2 1761.85  11
   3   4  -1 39186.6 1623.70  10
  -3  -4   0 34178.4 1614.27   4
  -3  -4   0 37095.7 1100.65  15
  -3  -4   0 36418.2 1218.85   3
  -3  -4   0 35806.3 1646.05  14
  -3  -4   0 35744.1 1420.50   7
   3  -4   0 36534.6 1328.58  13
   3   4   0 34148.3 1308.68   2
  -3   4   0 32423.2 1441.68   7
   3   4   0 36251.2 1414.16   7
   3  -4   0 35881.8 1627.03   3
  -3   4   0 34437.5 1359.47  16
  -3   4   0 30669.3 1526.81  12
  -3   4   0 31313.7 1610.78  11
   3   4   0 31198.3 1530.26   6
   3   4   0 34455.8 1578.37  10
   3  -4   1 41241.0 1771.75   8
  -3  -4  -1 41145.7 1790.45   4
  -3  -4  -1 38999.9 1617.30   7
  -3   4  -1 41350.1 1722.66   7
   3   4   1 44079.7 1414.58   2
  -3  -4  -1 41664.2 1187.17   3
   3  -4   1 40770.1 1830.12   3
  -3  -4  -1 41632.8 1874.32  14
   3   4   1 40412.1 1829.24   6
   3   4   1 38211.3 1776.26  10
   3  -4   2 148570. 4596.15   8
  -3  -4  -2 147939. 4665.53  14
  -3  -4  -2 144392. 4439.28   4
   3   4   2 149402. 4599.34   6
   3   4   2 152717. 4388.00  13
  -3  -4  -2 152600. 4405.59   7
  -3   4  -2 155198. 4517.05   7
  -3   4  -2 150800. 4111.70   1
   3   4   2 158648. 3869.62   2
   3  -4   2 153656. 4630.49   3
   3   4   2 143334. 4582.02  10
   3   4   3 85658.0 2882.08  13
   3   4   3 69716.2 2162.11   2
   3  -4   3 87311.5 3158.93   8
  -3  -4  -3 80635.7 3150.46  14
  -3  -4  -3 83877.6 2936.67   7
  -3   4  -3 81961.5 2989.95   7
   3  -4   3 88999.8 3122.94   3
   3  -4   3 88576.3 3182.36  15
   3   4   3 75146.4 2975.88   6
   3   4   3 84116.3 3089.42  10
  -3  -4  -4 6109.42 936.774  16
   3   4   4 6196.32 885.494  10
   3  -4   4 6250.59 905.736   3
   3   4   4 6774.22 901.034   6
   3  -4   4 5915.83 960.116   8
   3  -4   4 6086.38 978.287  15
  -3  -4  -4 4751.94 977.038  14
   3   4   4 5668.59 818.616  13
  -3   4  -4 6420.05 694.437  16
  -3  -4  -4 5563.61 791.980   7
  -3   4  -4 5851.12 878.570   7
   3   4   5 7546.36 1022.89  10
   3  -4   5 9379.72 1106.21   3
   3   4   5 7539.99 999.001   6
   3  -4   5 8912.90 1213.30   8
  -3  -4  -5 9330.97 1156.14  16
   3  -4   5 6482.14 962.942  15
   3   4   5 8694.34 1023.16  13
  -3   4  -5 8080.83 842.539  16
  -3  -4  -5 9848.08 1090.27   7
  -3   4  -5 8002.72 1049.89   7
   3   4   6 621.430 637.086  10
   3  -4   6 1222.15 706.480   3
   3   4   6 518.063 584.165   6
  -3  -4  -6 1260.10 704.253   9
   3  -4   6 462.858 835.759   8
  -3  -4  -6 652.954 766.639  16
   3   4   6 1797.69 733.792  13
  -3  -4  -6 839.111 668.971   7
  -3   4  -6 1989.39 837.638   7
  -3  -4  -7 15433.9 1463.54   9
  -3  -4  -7 12656.6 1507.62  16
  -3  -4  -7 14863.4 1596.40   7
   3   4   7 15099.8 1486.55  13
  -3   4  -7 15775.3 1665.74   7
   3  -4   7 18923.3 1685.84   3
   3   4   7 18515.4 1626.10   6
   3   4   7 16057.4 1519.82  10
   3  -4   8 564.147 776.726   3
   3   4   8 1391.17 767.746   6
  -3  -5   9 1269.47 987.777   8
   3   5  -9 2681.29 987.674   2
   3  -5  -8 14371.3 1528.08  16
  -3   5   8 14465.0 1543.41   1
  -3  -5   8 14089.1 1527.58   8
  -3   5   8 15087.3 1594.15  13
   3   5  -8 13826.8 1502.19   2
   3   5  -7 4921.50 931.802   2
  -3  -5   7 6362.51 1097.69   8
   3  -5  -7 4911.43 985.099  16
   3   5  -7 4952.17 769.090  16
  -3   5   7 6918.99 1137.05  13
   3   5  -7 5436.20 738.048  12
  -3   5   7 6172.24 1019.47   1
  -3  -5   7 4940.10 737.340   1
   3   5  -6 7633.31 999.204   2
   3  -5  -6 8012.18 758.185   2
   3  -5  -6 9588.06 1131.67  16
  -3  -5   6 8011.68 782.246   4
  -3  -5   6 7150.40 1031.45   8
  -3   5   6 6419.54 911.240   1
  -3   5   6 5558.56 924.973  13
   3   5  -6 7752.49 807.555  16
   3   5  -6 9353.03 861.237  12
  -3   5   6 6928.92 815.169  11
   3   5  -5 7649.96 957.731   2
   3  -5  -5 7712.90 1114.29   9
  -3  -5   5 8574.98 819.893   4
  -3  -5   5 7672.43 992.725   8
   3  -5  -5 7311.85 944.976  16
  -3   5   5 7060.60 984.856  13
   3  -5  -5 9027.34 768.126   2
   3   5  -5 8514.58 805.840  12
  -3   5   5 9159.90 995.083   1
  -3   5   5 7697.67 863.796  11
   3  -5  -4 29241.8 1546.80   5
  -3  -5   4 29130.9 1487.74   4
  -3  -5   4 30030.1 1688.94   8
   3   5  -4 27198.4 1604.59   2
   3  -5  -4 29526.6 1629.26  16
   3  -5  -4 27706.2 1497.71   3
  -3   5   4 29181.2 1648.93  13
  -3   5   4 29654.5 1290.47  12
   3   5  -4 32408.9 1488.81  12
   3  -5  -4 26445.0 1381.02   2
  -3   5   4 27732.9 1550.31  11
  -3  -5   4 30543.8 1156.92  11
   3  -5  -4 28957.1 1179.60   6
   3   5  -3 26348.3 1274.63  10
   3   5  -3 24250.7 1390.80   2
   3  -5  -3 24664.0 1383.64   5
  -3  -5   3 23100.6 1337.30   4
  -3  -5   3 24316.9 1452.59   8
   3  -5  -3 25537.7 1383.72  16
  -3   5   3 24280.1 1230.08   7
  -3   5   3 23827.0 1370.74  13
   3  -5  -3 24989.1 1371.49   3
  -3   5   3 24484.2 1163.51  12
   3   5  -3 25508.1 1314.87  12
  -3   5   3 22786.8 1381.38  11
   3   5  -2 19731.0 1150.40  10
  -3  -5   2 20068.7 980.311   5
   3  -5  -2 20234.2 1240.21   5
  -3   5   2 21841.2 819.065   8
  -3  -5   2 20125.6 1237.96   4
  -3  -5   2 20675.6 1278.59   8
   3   5  -2 21982.6 1209.13   2
  -3  -5   2 21408.7 1062.06   7
  -3   5   2 22421.0 1090.62   7
   3  -5  -2 22103.6 771.755  14
   3  -5  -2 20465.1 1153.82  16
   3  -5  -2 20284.4 1226.64   3
  -3   5   2 22836.1 1199.92  13
   3   5  -2 20972.4 1186.05  12
  -3   5   2 20135.5 1086.87  12
  -3   5   2 20249.9 1299.74  11
   3   5  -1 62950.7 2383.52  10
   3   5  -1 64936.9 2437.72   6
  -3   5   1 66785.0 2115.91   8
   3   5  -1 71954.6 2290.70   2
  -3  -5   1 67906.5 2495.75   4
   3  -5  -1 71539.7 2256.11  16
  -3  -5   1 69974.0 2178.17   7
  -3   5   1 65153.3 2219.05   7
   3   5  -1 64518.0 2156.04   7
   3  -5  -1 73012.3 2547.67   3
   3   5  -1 66323.2 2426.45  12
  -3   5   1 66481.4 2377.00  12
  -3   5   1 65575.5 2543.44  11
   3   5   0 15036.4 1108.67   6
  -3  -5   0 14995.9 1108.96   4
  -3   5   0 16275.7 834.116  16
  -3   5   0 13061.9 870.548   7
  -3  -5   0 15939.8 1137.82  14
   3  -5   0 15300.8 1129.89   3
   3   5   0 16038.9 851.298   2
  -3  -5   0 15099.7 854.204   7
   3   5   0 14704.1 840.221   7
  -3   5   0 15229.9 1098.30  12
  -3   5   0 13878.5 1114.57  11
   3   5   0 14945.8 1091.71  10
   3  -5   1 37745.4 1723.53   8
  -3  -5  -1 38533.1 1806.88   4
  -3   5  -1 40289.3 1438.03  16
   3   5   1 43535.7 1352.25   2
  -3  -5  -1 42367.1 1930.79  14
  -3  -5  -1 37907.5 1552.37   7
  -3  -5  -1 35498.8 1070.39   3
  -3   5  -1 38176.1 1660.07   7
   3  -5   1 38266.0 1839.57   3
  -3   5  -1 38653.4 1878.53  12
  -3   5  -1 37360.4 1820.64  11
   3   5   1 41825.1 1894.22   6
   3   5   1 43826.4 1922.76  10
   3  -5   2 31658.4 1670.93   8
  -3  -5  -2 27139.0 1514.14   4
  -3  -5  -2 31128.3 1435.80   7
   3   5   2 28801.4 945.327   2
   3   5   2 26069.9 1437.69  13
  -3  -5  -2 27877.7 1712.53  14
  -3   5  -2 26266.7 1440.20   7
   3  -5   2 31232.6 1697.70   3
  -3   5  -2 28665.6 1154.38   1
  -3   5  -2 28591.9 1578.07  11
   3   5   2 25937.6 1571.03   6
   3   5   2 26644.3 1594.62  10
   3  -5   3 55907.1 2503.61   8
   3  -5   3 54643.5 2500.93  15
  -3  -5  -3 56091.6 2569.88  14
   3   5   3 54402.4 2287.21  13
  -3  -5  -3 55341.9 2231.61   7
  -3   5  -3 51415.5 2294.69   7
   3  -5   3 58737.8 2519.32   3
  -3   5  -3 56028.3 2295.42  11
   3   5   3 49047.7 2343.36   6
   3   5   3 50943.7 2392.91  10
   3  -5   4 111174. 4036.33  15
   3  -5   4 102978. 3974.79   8
  -3  -5  -4 99812.8 3881.48  16
  -3   5  -4 113637. 3328.02  16
  -3  -5  -4 103681. 4018.41  14
   3   5   4 107443. 3770.28  13
  -3  -5  -4 105893. 3700.90   7
  -3   5  -4 103480. 3806.69   7
   3  -5   4 112641. 3982.09   3
  -3   5  -4 101634. 3564.02  11
   3   5   4 100908. 3810.35   6
   3   5   4 111659. 3944.47  10
   3  -5   5 64590.1 3076.81   8
  -3  -5  -5 56203.1 2904.71  16
   3  -5   5 64055.9 3041.15  15
  -3  -5  -5 66107.1 2883.86   7
  -3   5  -5 66874.2 2989.67   7
   3  -5   5 69188.2 3042.71   3
  -3   5  -5 64055.4 2582.83  11
   3   5   5 64435.7 2837.71  13
   3   5   5 61761.4 2884.00   6
   3   5   5 65590.6 2977.41  10
   3  -5   6 10490.4 1302.02   3
   3   5   6 12120.5 1318.39  10
   3   5   6 11391.5 1230.35   6
  -3  -5  -6 12132.2 1309.39   9
   3  -5   6 12176.4 1519.36   8
  -3  -5  -6 11652.9 1392.50  16
   3   5   6 13831.3 1395.92  13
  -3  -5  -6 10566.0 1220.97   7
  -3   5  -6 12315.0 1370.55   7
   3  -5   7 8714.51 1236.75   3
   3   5   7 8574.58 1225.11  10
   3   5   7 8908.84 1212.48   6
  -3  -5  -7 8899.08 1264.19   9
   3   5   7 11278.4 1345.30  13
  -3  -5  -7 7475.07 1211.18   7
  -3   5  -7 10119.6 1385.83   7
  -3   6   8 4604.57 1094.97   1
  -3  -6   8 4353.81 1114.77   8
   3  -6  -8 2894.19 899.628  16
  -3   6   8 2659.88 1071.73  13
   3   6  -8 3608.15 996.997   2
  -3  -6   7 5524.20 1052.20   8
  -3   6   7 5287.05 1023.81   1
  -3   6   7 8003.15 1214.16  13
   3   6  -7 6751.43 842.892  12
   3  -6  -7 5530.59 1057.91  16
   3   6  -7 5605.43 995.672   2
   3  -6  -6 38120.3 2245.58   9
  -3  -6   6 39898.9 2252.37   8
   3   6  -6 36251.4 2136.51   2
   3  -6  -6 34339.3 2109.77  16
  -3   6   6 38091.6 2173.95   1
  -3   6   6 38368.8 2218.40  13
   3   6  -6 40105.2 1927.33  12
  -3   6   6 36131.5 1966.48  11
   3  -6  -5 15391.3 1213.24   5
   3  -6  -5 14164.3 1378.97   9
  -3  -6   5 15408.4 1349.08   8
   3   6  -5 14516.7 1302.71   2
  -3   6   5 15919.3 1300.24   1
   3  -6  -5 15704.2 1276.11  16
  -3   6   5 13764.2 1293.07  13
   3  -6  -5 15091.0 987.743   2
   3   6  -5 13626.1 1063.28  12
  -3   6   5 13451.0 1164.19  11
   3  -6  -4 32017.1 1769.26   5
   3  -6  -4 32479.7 1929.32   9
  -3  -6   4 29485.5 1781.73   8
   3   6  -4 34465.3 1862.63   2
   3  -6  -4 32173.5 1755.75  16
   3  -6  -4 32243.2 1670.47   3
  -3   6   4 35641.1 1895.61  13
  -3   6   4 34919.5 1551.35  12
   3   6  -4 34708.0 1691.54  12
  -3   6   4 35726.9 1816.53   1
  -3   6   4 36591.1 1865.57  11
   3  -6  -3 105264. 3550.60   5
  -3   6   3 99691.4 3233.79  12
   3   6  -3 101468. 3477.73   2
   3  -6  -3 102523. 3402.18  16
  -3   6   3 106017. 3199.82   7
   3  -6  -3 108096. 2896.27  14
   3  -6  -3 104707. 3447.33   3
  -3   6   3 102794. 3506.24  13
   3   6  -3 105004. 3434.96  12
  -3  -6   3 99916.4 3598.28   8
  -3   6   3 101418. 3581.38  11
   3   6  -2 75959.6 2713.34  10
  -3  -6   2 77407.8 2473.14   5
   3  -6  -2 74679.1 2818.23   5
  -3  -6   2 73156.5 2769.41   4
  -3   6   2 78323.7 2087.85   8
  -3  -6   2 76646.6 2821.17   8
   3   6  -2 75073.2 2627.10   2
   3  -6  -2 72993.6 2534.59  16
  -3  -6   2 69296.5 1907.64  15
  -3  -6   2 72799.9 2357.97   7
  -3   6   2 76401.9 2416.52   7
   3  -6  -2 75282.8 2144.16  14
  -3   6   2 73259.1 2665.89  13
   3  -6  -2 76018.2 2732.18   3
   3   6  -2 76817.9 2739.20  12
  -3   6   2 74608.0 2614.58  12
  -3   6   2 74654.7 2846.35  11
   3   6  -1 1712.65 598.256  10
   3   6  -1 2408.79 486.684   2
  -3  -6   1 2154.18 671.120   4
  -3   6   1 2292.82 389.130   8
   3  -6  -1 2356.10 445.494  16
  -3  -6   1 2539.94 417.923   7
  -3   6   1 1590.48 383.955   7
   3   6  -1 2119.60 560.931  12
  -3   6   1 705.540 501.650  12
   3   6  -1 1521.17 350.642   7
  -3   6   1 2455.44 691.623  11
   3  -6  -1 1894.75 571.547   3
   3   6   0 88920.2 3174.55  10
   3   6   0 89224.5 3190.75   6
   3  -6   0 93560.0 2919.50   8
  -3  -6   0 87304.1 3172.04   4
  -3   6   0 91127.9 2654.95  16
   3   6   0 90125.0 2705.27   2
  -3  -6   0 93454.6 2707.60   7
  -3   6   0 93970.2 2854.35   7
   3  -6   0 89430.4 3186.30   3
   3   6   0 89727.1 2693.88   7
  -3   6   0 88937.8 3177.51  12
  -3   6   0 90678.6 3221.92  11
  -3  -6   0 83760.0 2709.18   2
  -3  -6   0 86936.0 3207.95  14
   3  -6   1 7983.34 913.666   3
   3   6   1 8323.14 930.328  10
   3   6   1 8311.08 944.693   6
  -3  -6  -1 5075.61 935.307  14
   3  -6   1 7777.03 861.183   8
   3   6   1 8034.00 527.036   2
  -3   6  -1 7694.72 540.448  16
  -3  -6  -1 8239.91 955.524   4
  -3  -6  -1 6986.73 339.845   3
  -3  -6  -1 7478.52 649.261   7
  -3   6  -1 7393.66 739.001   7
  -3  -6  -1 7049.20 322.532   3
  -3   6  -1 9783.36 1016.66  12
  -3   6  -1 7584.73 929.451  11
   3  -6   2 18015.0 1327.82   8
   3   6   2 17091.8 627.896   2
  -3  -6  -2 22467.3 1413.84   4
  -3  -6  -2 19443.8 1455.84  14
  -3  -6  -2 19135.3 1107.10   7
  -3   6  -2 17085.6 1158.56   7
   3  -6   2 17788.2 1378.71   3
  -3   6  -2 18659.4 1445.96  12
  -3   6  -2 19473.9 1336.28  11
   3   6   2 19981.7 1409.04   6
   3   6   2 18530.2 1396.13  10
   3  -6   3 129217. 4362.24   8
  -3  -6  -3 124063. 4088.34   4
  -3  -6  -3 130435. 4468.10  14
   3   6   3 125901. 4164.28  13
  -3  -6  -3 121836. 3905.08   7
  -3   6  -3 128740. 4120.77   7
   3  -6   3 130980. 4389.84   3
  -3   6  -3 113790. 4323.81  12
  -3   6  -3 126680. 4066.06  11
   3  -6   3 123493. 4355.27  15
   3   6   3 117676. 4208.21   6
   3   6   3 118805. 4256.16  10
   3  -6   4 2236.26 728.488   3
   3   6   4 4195.12 854.685  10
   3   6   4 2729.68 726.154   6
   3   6   4 3187.52 795.951  13
   3  -6   4 3504.80 879.050   8
   3  -6   4 4639.29 999.396  15
  -3  -6  -4 2619.44 959.802  14
  -3  -6  -4 3796.73 916.944  16
  -3   6  -4 3996.22 994.533  12
  -3  -6  -4 5447.35 758.980   7
  -3   6  -4 4643.71 836.642   7
  -3   6  -4 3931.45 714.450  11
   3  -6   5 4560.81 908.313   3
   3   6   5 4778.65 908.206  10
   3   6   5 4442.78 924.638   6
  -3  -6  -5 3688.40 931.971  16
  -3  -6  -5 3961.05 950.008   9
   3  -6   5 4189.01 1005.89   8
   3  -6   5 4439.58 933.503  15
   3   6   5 3657.91 801.528  13
  -3   6  -5 4983.34 1174.30  12
  -3  -6  -5 4140.90 823.825   7
  -3   6  -5 3325.22 786.874   7
   3  -6   6 210.108 722.341   3
   3   6   6 270.903 651.073  10
   3   6   6 1351.73 726.206   6
  -3  -6  -6 2433.01 920.774   9
   3  -6   6 1432.45 875.079   8
  -3  -6  -6 132.186 745.995  16
   3   6   6 930.815 712.099  13
  -3   6  -6-452.502 997.657  12
  -3  -6  -6 1375.18 680.682   7
  -3   6  -6 460.009 612.823   7
   3   6   7 6525.11 1151.80  10
   3   6   7 6905.19 1161.71   6
  -3  -6  -7 8896.37 1308.70   9
   3   6   7 8291.18 1313.80  13
  -3  -6  -7 9701.05 1270.87   7
  -3   6  -7 7313.57 1270.26   7
  -3   7   8 17301.9 1686.85   1
  -3  -7   8 18529.7 1846.30   8
  -3   7   8 17046.8 1770.97  13
   3  -7  -8 17423.0 1777.89  16
   3   7  -8 17341.9 1761.50   2
   3  -7  -7 1599.37 874.242  16
   3  -7  -7 216.287 804.783   9
  -3   7   7 1030.03 695.930   1
  -3   7   7 991.413 889.205  13
   3   7  -7 1543.73 649.270  12
  -3  -7   7 839.747 790.474   8
   3   7  -7 1172.16 770.985   2
   3  -7  -6 3957.14 1031.84   9
  -3  -7   6 2871.41 800.288   8
   3  -7  -6 1764.16 704.345  16
  -3   7   6 2465.68 869.148  13
  -3   7   6 3078.51 855.887   1
   3   7  -6 2393.72 654.355  12
  -3   7   6 2590.06 674.852  11
   3   7  -6 3795.06 920.835   2
   3   7  -5 9160.86 1130.11   2
   3  -7  -5 8040.65 1226.81   9
  -3   7   5 8791.18 1032.61   1
   3  -7  -5 8876.31 1055.08   5
  -3  -7   5 10709.5 1229.70   8
   3  -7  -5 10963.0 1158.46  16
   3  -7  -5 7836.19 790.130   2
   3   7  -5 10893.1 1047.21  12
  -3   7   5 10654.6 1220.02  13
  -3   7   5 8519.60 998.474  11
   3  -7  -4 20148.2 1460.85   5
   3  -7  -4 19951.3 1632.75   9
   3   7  -4 18716.1 1392.41   2
  -3  -7   4 21694.4 1556.47   8
   3  -7  -4 18733.9 1335.19  16
   3   7  -4 21119.1 1386.56  12
   3  -7  -4 18682.9 1269.29   3
   3  -7  -4 21178.1 1083.32  14
  -3   7   4 19858.3 1488.83  13
  -3   7   4 16975.0 1292.09   1
  -3   7   4 19137.0 1217.17  12
  -3   7   4 20534.9 1467.45  11
   3   7  -3 2066.61 625.952   2
   3  -7  -3 2362.13 828.401   9
   3  -7  -3 1718.16 673.313   5
  -3   7   3 2110.22 563.811   1
  -3  -7   3 1742.44 652.665   8
   3  -7  -3 1735.24 414.826  14
  -3   7   3 1448.62 654.283  13
  -3   7   3 1841.89 531.788  12
   3   7  -3 1160.50 584.922  12
   3  -7  -3 2501.00 610.719  16
   3  -7  -3 1668.87 575.052   3
  -3   7   3 1469.24 613.151  11
   3   7  -2 9601.16 989.572  10
  -3  -7   2 13143.5 943.932   5
   3  -7  -2 11349.3 1163.80   5
  -3  -7   2 10134.6 1053.36   4
   3   7  -2 11475.5 955.300   2
  -3  -7   2 11981.1 1106.95   8
   3  -7  -2 12186.2 908.892  16
  -3  -7   2 10935.3 539.975  15
  -3   7   2 11095.8 752.303   7
   3  -7  -2 11003.1 703.098  14
   3  -7  -2 11817.5 1021.06   3
   3   7  -2 10646.9 737.579   7
   3   7  -2 11933.8 1088.17  12
  -3   7   2 10698.2 958.873  12
  -3   7   2 11867.9 590.974   8
  -3   7   2 9445.70 1086.95  11
   3   7  -1 52389.4 2291.45  10
  -3  -7   1 50791.0 2096.09   5
   3  -7  -1 52857.7 2379.94   5
  -3  -7   1 53297.6 2350.22   4
   3   7  -1 53502.0 2019.64   2
  -3  -7   1 51784.3 2237.43   8
   3  -7  -1 48935.1 1855.66  16
  -3  -7   1 52129.9 1742.52   7
  -3   7   1 53518.5 1852.05   7
   3  -7  -1 54239.4 2307.29   3
   3   7  -1 50935.3 1744.04   7
   3   7  -1 53895.2 2344.20  12
  -3   7   1 52728.0 2257.77  12
  -3   7   1 48712.3 2312.27  11
   3   7   0 38763.9 1981.71  10
   3  -7   0 40697.0 1725.44   8
  -3  -7   0 38784.1 1973.43   4
   3   7   0 41286.9 1576.03   2
  -3   7   0 38919.8 1421.42  16
  -3  -7   0 39784.4 2061.66  14
  -3   7   0 39320.0 1581.94   7
  -3  -7   0 38821.5 1433.17   7
   3  -7   0 36986.6 1940.83   3
   3   7   0 39449.7 1446.16   7
  -3   7   0 37838.8 1951.42  12
  -3   7   0 38769.9 1995.33  11
   3  -7   1 9997.61 1052.87   3
   3   7   1 9251.88 1043.66  10
   3   7   1 10559.4 1117.05   6
   3   7   1 9747.02 594.480   2
   3  -7   1 9739.53 939.466   8
  -3  -7  -1 10133.5 1068.47   4
  -3  -7  -1 10789.9 729.178   7
  -3  -7  -1 10094.6 1102.32  14
  -3   7  -1 9083.33 797.871   7
  -3  -7  -1 9250.84 407.050   3
  -3   7  -1 9916.64 1040.65  12
  -3   7  -1 10201.3 1042.15  11
   3   7   2 24729.8 1699.36  10
   3   7   2 28721.8 1767.18   6
   3  -7   2 27758.0 1685.53   8
  -3  -7  -2 27507.6 1674.12   4
  -3  -7  -2 27770.5 1814.33  14
  -3  -7  -2 27242.2 1329.44   7
  -3   7  -2 28894.1 1529.11   7
   3  -7   2 26792.4 1740.83   3
  -3   7  -2 27201.3 1778.92  12
  -3   7  -2 29858.3 1683.74  11
   3   7   3 39611.8 2203.76  10
   3   7   3 39858.8 2198.49   6
   3  -7   3 40920.1 2198.23   8
  -3  -7  -3 42641.9 2093.82   4
   3  -7   3 38436.4 2213.37  15
  -3  -7  -3 39602.0 2201.73  16
  -3  -7  -3 39783.2 2289.79  14
  -3  -7  -3 43009.1 1888.38   7
  -3   7  -3 45107.0 2053.97   7
   3  -7   3 43648.4 2313.31   3
  -3   7  -3 41578.3 2322.54  12
  -3   7  -3 41349.8 2031.34  11
   3  -7   4 2335.86 842.198   3
   3   7   4 1143.25 637.439  10
  -3  -7  -4 1019.48 696.456  16
   3   7   4 1032.18 696.608   6
   3  -7   4 1278.65 749.130   8
   3  -7   4 1501.01 773.280  15
  -3  -7  -4 2108.36 977.688  14
   3   7   4 1834.54 754.428  13
  -3   7  -4 2004.03 894.871  12
  -3  -7  -4 2183.40 572.003   7
  -3   7  -4 1280.54 579.043   7
  -3   7  -4 1386.69 576.893  11
  -3  -7  -5 19161.0 1704.31   9
   3  -7   5 16023.9 1616.33   8
  -3  -7  -5 17299.3 1659.16  16
   3  -7   5 20685.7 1728.71  15
  -3  -7  -5 18559.2 1803.99  14
   3   7   5 17828.4 1548.54  13
  -3  -7  -5 14932.6 1306.20   7
  -3   7  -5 17476.2 1510.45   7
   3  -7   5 21632.4 1788.77   3
  -3   7  -5 18998.1 1782.78  12
   3   7   5 20226.3 1632.05   6
   3   7   5 17240.1 1546.67  10
   3  -7   6 14015.5 1554.08   3
   3   7   6 12193.9 1389.34  10
   3   7   6 10673.3 1321.91   6
  -3  -7  -6 12299.1 1479.70   9
   3  -7   6 10611.9 1475.95   8
  -3  -7  -6 11667.1 1477.95  16
   3   7   6 10360.1 1319.64  13
  -3   7  -6 10026.2 1475.88  12
  -3   7  -6 10686.0 1301.35   7
   3   7   7 11025.6 1408.75  10
   3   7   7 9484.91 1288.15   6
   3   7   7 12112.5 1456.57  13
   3  -8  -7 18776.4 1838.32   9
  -3   8   7 18523.4 1692.80   1
   3  -8  -7 16844.3 1626.84  16
  -3  -8   7 16129.1 1707.76   8
  -3   8   7 15668.5 1642.22  13
   3   8  -7 14313.9 1352.80  12
   3   8  -7 14100.0 1583.58   2
   3  -8  -6 29213.1 1927.56   5
   3  -8  -6 24059.5 2007.89   9
   3   8  -6 32362.3 2128.77   2
  -3  -8   6 24757.7 1909.29   8
  -3   8   6 28048.6 1942.92   1
   3  -8  -6 26243.7 1891.76  16
   3   8  -6 28588.5 1819.24  12
  -3   8   6 29094.1 1964.21  11
  -3   8   6 26907.4 2017.04  13
   3  -8  -5 74460.9 3260.81   5
   3  -8  -5 77212.4 3456.31   9
   3   8  -5 75368.1 3338.95   2
  -3  -8   5 73551.9 3344.52   8
   3  -8  -5 75188.2 3219.84  16
  -3   8   5 80059.3 3238.01   1
  -3   8   5 81687.7 3457.06  13
   3   8  -5 82913.4 3232.07  12
  -3   8   5 79050.8 3317.44  11
   3  -8  -4 55282.8 2370.35   3
   3  -8  -4 55696.1 2630.48   5
   3  -8  -4 55050.3 2735.42   9
   3   8  -4 53684.0 2569.67   2
  -3  -8   4 59222.2 2736.54   8
   3  -8  -4 59301.4 2511.88  16
  -3   8   4 51531.7 2390.63   1
  -3   8   4 52264.7 2581.19  13
  -3   8   4 52930.9 2317.42  12
   3   8  -4 57871.3 2559.45  12
  -3   8   4 52763.4 2617.24  11
   3  -8  -3 15214.0 1337.81   5
   3  -8  -3 13854.5 1386.34   9
   3   8  -3 12696.0 1158.92   2
  -3  -8   3 14107.4 1269.18   8
   3  -8  -3 15661.0 1141.93  16
   3  -8  -3 13371.5 877.097  14
   3  -8  -3 14705.6 1162.76   3
  -3   8   3 14557.5 1107.08   1
  -3   8   3 14755.9 1286.24  13
  -3   8   3 14987.9 1153.46  12
   3   8  -3 14375.5 1255.61  12
  -3   8   3 13503.9 1287.82  11
   3   8  -2 11903.3 1124.93  10
  -3  -8   2 10045.1 952.611   5
   3  -8  -2 12567.7 1259.95   5
   3   8  -2 10699.8 957.799   2
   3  -8  -2 9113.91 812.836  16
  -3   8   2 9958.52 685.644   7
   3  -8  -2 10925.1 759.275  14
  -3   8   2 10051.2 851.112   1
  -3   8   2 11221.4 1046.88  12
   3   8  -2 9059.56 1027.73  12
  -3   8   2 10541.0 1128.96  11
  -3  -8   2 10194.2 1034.61   8
   3  -8  -2 8972.99 969.528   3
   3   8  -1 35253.7 1904.09  10
  -3  -8   1 33064.9 1720.73   5
   3  -8  -1 30786.4 1896.04   5
   3   8  -1 32071.3 1566.14   2
  -3  -8   1 30953.0 1879.29   4
  -3  -8   1 33354.3 1802.32   8
  -3   8   1 31909.3 1310.15   7
   3  -8  -1 31698.0 1776.92   3
   3   8  -1 34278.2 1925.03  12
  -3   8   1 33292.0 1829.02  12
  -3   8   1 30041.7 1350.17   1
  -3   8   1 32741.0 1898.88  11
   3   8   0 36738.2 2023.02  10
   3  -8   0 37030.4 1693.32   8
   3   8   0 35743.0 1507.51   2
  -3  -8   0 37517.5 2014.18   4
  -3  -8   0 32909.3 1774.78   8
  -3  -8   0 34195.6 1982.14  14
  -3   8   0 37651.5 1506.66   7
  -3  -8   0 37210.2 1298.67   7
   3  -8   0 34375.7 1924.24   3
   3   8   0 36109.7 2013.90  12
  -3   8   0 34785.2 1977.17  12
  -3  -8   0 35763.8 1393.86   3
  -3   8   0 34651.7 1952.93  11
   3   8   1 24535.9 1697.10  10
   3  -8   1 27220.0 1574.97   8
  -3  -8  -1 27271.1 1713.71   4
  -3  -8  -1 29419.3 1835.03  14
  -3   8  -1 30798.4 1418.02   7
   3  -8   1 30278.7 1812.60   3
  -3   8  -1 23312.7 1688.83  12
  -3   8  -1 28248.7 1728.76  11
   3  -8   2 9261.61 1163.35   3
   3   8   2 8475.86 1103.02  10
   3   8   2 11268.7 1168.01   6
   3  -8   2 7425.55 975.227   8
  -3  -8  -2 8699.62 1054.82   4
  -3  -8  -2 10370.9 1203.17  14
  -3   8  -2 9443.79 859.369   7
  -3   8  -2 6677.45 1104.78  12
  -3   8  -2 8017.69 962.165  11
   3  -8   3 2017.39 732.158   3
   3   8   3-288.086 726.568  10
   3   8   3 1284.91 696.503   6
   3  -8   3 1579.10 706.554   8
  -3  -8  -3 751.355 595.487  16
   3  -8   3 1233.09 719.439  15
  -3  -8  -3 1050.18 819.728  14
  -3  -8  -3 1300.26 642.909   4
  -3   8  -3 1339.28 756.830  12
  -3   8  -3 408.883 446.142   7
  -3   8  -3 872.993 582.244  11
   3  -8   4 8855.13 1193.18   3
   3   8   4 7782.09 1159.08  10
   3   8   4 7286.52 1065.52   6
  -3  -8  -4 6816.75 1120.75   9
   3  -8   4 8059.62 1157.05   8
  -3  -8  -4 8203.51 1159.63  16
  -3  -8  -4 6290.81 930.379   4
   3  -8   4 8407.77 1208.37  15
  -3  -8  -4 8784.43 1374.60  14
   3   8   4 8601.23 1157.25  13
  -3   8  -4 7755.11 1193.84  12
  -3   8  -4 8152.92 1014.93   7
  -3   8  -4 7454.76 930.248  11
   3  -8   5-526.971 805.760   3
   3   8   5-19.9088 730.362  10
   3   8   5 1165.10 713.458   6
  -3  -8  -5 767.013 778.759   9
   3  -8   5 1452.46 925.428   8
  -3  -8  -5 24.5582 809.203  16
   3  -8   5 1505.65 796.711  15
  -3  -8  -5 212.734 830.166  14
   3   8   5 211.912 644.761  13
  -3   8  -5-575.851 970.491  12
  -3   8  -5 1329.21 689.630   7
   3   8   6 5198.40 1062.94  10
   3   8   6 3944.11 959.914   6
   3   8   6 5780.61 1134.37  13
  -3   8  -6 3967.96 897.419   7
   3  -9  -7 2398.55 937.661   5
   3  -9  -7 3477.58 1004.39  16
  -3   9   7 2897.83 1050.83  13
  -3   9   7 3340.21 977.033   1
   3  -9  -6 1399.04 782.393  16
  -3   9   6 88.1506 787.029   1
   3  -9  -6 2312.39 1108.52   9
   3  -9  -6 1142.01 795.163   5
  -3  -9   6 1479.71 821.918   8
  -3   9   6 955.681 823.027  13
   3   9  -6 1382.14 682.383  12
   3   9  -6 2550.00 946.219   2
  -3   9   6 1942.58 772.572  11
   3  -9  -5 15638.8 1628.09   9
   3  -9  -5 13645.4 1437.22   5
  -3   9   5 15865.7 1392.90   1
  -3  -9   5 13424.9 1413.16   8
   3  -9  -5 14189.2 1332.17  16
  -3   9   5 15928.8 1526.12  13
   3   9  -5 15640.5 1421.70  12
  -3   9   5 15629.0 1510.95  11
   3   9  -5 15135.2 1512.72   2
  -3   9   4 7200.07 919.600   1
   3  -9  -4 7371.13 1186.21   9
   3  -9  -4 7268.66 1097.10   5
  -3  -9   4 7439.11 1052.30   8
  -3   9   4 8077.75 1101.22  13
  -3   9   4 7758.26 940.379  12
   3  -9  -4 10220.0 1035.27  16
   3   9  -4 7296.38 990.940  12
   3  -9  -4 7973.72 925.164   3
  -3   9   4 8418.89 1103.88  11
   3   9  -4 7652.21 1062.89   2
   3  -9  -3 641.933 816.358   9
   3  -9  -3 2152.65 890.644   5
  -3  -9   3 528.117 684.699   8
   3  -9  -3 586.235 521.935  16
  -3   9   3 1468.45 550.188   1
   3   9  -3 980.004 549.310  12
   3  -9  -3 706.639 499.031   3
  -3   9   3 1319.29 574.767  12
  -3   9   3-223.736 651.013  11
   3   9  -3 1457.99 611.871   2
   3  -9  -2 16410.9 1027.02  14
  -3  -9   2 17223.8 1279.12   5
   3  -9  -2 17518.8 1546.09   5
   3   9  -2 16736.9 1241.13   2
  -3   9   2 18221.8 1116.39   1
   3  -9  -2 18611.0 1141.73  16
  -3  -9   2 15841.0 1342.56   8
   3   9  -2 15859.1 1419.51  12
   3  -9  -2 18893.9 1377.67   3
  -3   9   2 16365.7 1343.24  12
  -3   9   2 16425.0 1458.43  11
   3   9  -1 10575.0 1144.73  10
  -3  -9   1 12679.9 1114.82   5
   3   9  -1 12382.1 992.402   2
  -3  -9   1 13500.9 1296.25   4
  -3  -9   1 11722.2 1146.14   8
   3  -9  -1 12802.9 1192.03   3
   3   9  -1 13975.2 1342.24  12
  -3   9   1 13939.5 1255.36  12
  -3   9   1 11203.3 1200.21  11
   3   9   0 3144.34 813.560  10
   3  -9   0 2643.07 604.423   8
  -3  -9   0 3316.80 796.563   4
  -3  -9   0 2501.99 833.229  14
  -3  -9   0 3480.50 711.011   8
   3   9   0 4443.50 864.165  12
  -3   9   0 3797.42 832.138  12
   3   9   0 3488.06 540.671   2
  -3   9   0 3313.61 774.472  11
   3  -9   0 2635.24 748.484   3
   3  -9   1 22389.0 1670.54   3
   3   9   1 21230.4 1641.56  10
   3  -9   1 24836.2 1522.11   8
  -3  -9  -1 24741.6 1723.30   4
  -3  -9  -1 25927.1 1551.06   8
  -3  -9  -1 25071.4 1781.34  14
  -3   9  -1 25850.5 1808.03  12
  -3   9  -1 25979.8 1717.95  11
   3   9   2 19936.7 1649.61  10
   3  -9   2 21484.6 1571.91   8
  -3  -9  -2 20013.8 1473.04  16
  -3  -9  -2 17805.6 1486.29   4
  -3  -9  -2 22879.0 1798.22  14
   3  -9   2 21757.8 1674.53   3
  -3   9  -2 23313.8 1796.04  12
  -3   9  -2 20047.5 1532.66  11
   3  -9   3 11515.5 1293.66   3
   3   9   3 10896.4 1297.50  10
  -3  -9  -3 11282.5 1403.36   9
  -3  -9  -3 10780.9 1404.54  14
   3  -9   3 12685.1 1355.75   8
  -3  -9  -3 10154.9 1198.21   4
  -3  -9  -3 11986.7 1249.22  16
  -3   9  -3 12095.3 1394.80  12
  -3   9  -3 10890.9 1152.39  11
   3  -9   4 3400.75 960.982   3
   3   9   4 2195.25 820.047  10
   3   9   4 1826.49 742.121   6
  -3  -9  -4 4156.11 999.618   9
   3  -9   4 4280.24 988.326   8
  -3  -9  -4 2558.57 806.102  16
  -3  -9  -4 4984.83 932.952   4
   3  -9   4 2486.16 926.143  15
  -3  -9  -4 3127.41 1040.39  14
  -3   9  -4 2929.84 987.304  12
  -3   9  -4 2889.89 718.368  11
   3   9   5 5244.99 1072.96  10
   3   9   5 6639.75 1114.04   6
  -3  -9  -5 7600.04 1333.59   9
   3  -9   5 5848.98 1202.17   8
  -3  -9  -5 9316.01 1298.61  16
   3  -9   5 5650.58 1115.04  15
  -3  -9  -5 6082.32 1409.33  14
  -3   9  -5 7676.46 1330.17  12
   3 -10  -6 7674.24 1474.44   9
   3 -10  -6 8187.74 1275.01   5
  -3  10   6 6999.27 1208.08  13
  -3 -10   6 8698.53 1295.29   8
   3 -10  -6 8852.89 1231.99  16
   3  10  -6 10186.5 1284.74  12
  -3  10   6 9695.97 1293.87   1
   3  10  -6 8214.63 1286.79   2
  -3  10   6 9315.85 1284.45  11
  -3  10   5 5382.17 995.154   1
   3 -10  -5 6347.82 1218.14   9
   3 -10  -5 4377.50 998.468   5
  -3 -10   5 5150.79 1044.28   8
  -3  10   5 4670.61 1107.53  13
   3  10  -5 3667.49 903.229  12
   3  10  -5 5446.27 1066.07   2
  -3  10   5 4701.12 1018.26  11
   3 -10  -5 6603.22 995.984  16
   3 -10  -4 18289.7 1747.75   9
   3 -10  -4 16082.0 1573.98   5
  -3  10   4 15869.9 1296.01   1
   3  10  -4 15139.2 1484.00   2
  -3 -10   4 16570.1 1535.45   8
   3 -10  -4 12661.5 1204.19  16
   3 -10  -4 15373.6 1284.33   3
  -3  10   4 14529.0 1343.83  12
   3  10  -4 18916.9 1582.23  12
  -3  10   4 14324.3 1475.39  11
  -3 -10   3 18316.1 1291.58   9
   3 -10  -3 16857.9 1599.44   5
   3 -10  -3 15410.7 1587.03   9
   3  10  -3 15114.5 1428.78   2
  -3 -10   3 18543.1 1565.85   8
   3 -10  -3 19065.4 1282.46  16
   3 -10  -3 16578.8 1347.70   3
  -3  10   3 13948.2 1414.29  11
  -3  10   3 16340.9 1401.27  12
   3  10  -3 16221.9 1500.54  12
   3  10  -2 10890.7 1111.70   2
  -3 -10   2 12198.1 1169.66   5
   3 -10  -2 10909.8 1304.72   5
  -3 -10   2 11742.3 1216.28   8
  -3  10   2 12077.6 1238.57  12
   3  10  -2 11556.1 1289.86  12
  -3  10   2 11576.1 1278.00  11
   3 -10  -2 11172.5 1157.65   3
   3  10  -1 32780.0 2057.30  10
  -3 -10   1 35310.0 2006.30   5
   3  10  -1 31932.3 1733.84   2
  -3 -10   1 35901.7 2154.01   4
  -3 -10   1 33308.2 1962.44   8
   3 -10  -1 32942.8 1983.80   3
   3  10  -1 35948.1 2168.96  12
  -3  10   1 33342.9 2075.22  12
  -3  10   1 32779.7 2071.65  11
   3  10   0 7983.43 1084.52  10
  -3 -10   0 7123.87 977.440   5
  -3 -10   0 9762.14 954.383  16
  -3 -10   0 8523.43 1115.21   4
  -3 -10   0 6683.01 1143.40  14
   3  10   0 8291.66 1135.79  12
  -3  10   0 8218.59 1098.51  12
  -3  10   0 7669.21 1104.44  11
  -3 -10   0 8405.95 1009.56   8
   3 -10   0 8641.30 1099.04   3
   3  10   1 5207.60 1003.49  10
  -3 -10  -1 4357.58 941.718   9
   3 -10   1 4494.69 795.051   8
  -3 -10  -1 3786.24 933.712  14
  -3 -10  -1 4187.42 751.617   8
  -3 -10  -1 4256.57 728.563  16
  -3 -10  -1 5171.63 921.307   4
  -3  10  -1 3666.25 940.964  12
  -3  10  -1 4006.29 855.623  11
   3 -10   1 3747.19 783.878   3
   3 -10   2 2676.13 817.099   3
  -3 -10  -2 2082.86 677.334  16
   3  10   2 3471.09 858.520  10
  -3 -10  -2 4334.34 1011.38   9
   3 -10   2 2945.16 793.499   8
  -3 -10  -2 1856.97 688.429   4
  -3 -10  -2 3198.62 1012.68  14
  -3  10  -2 1304.50 693.628  12
  -3  10  -2 2231.93 757.173  11
   3 -10   3 111.329 740.805   3
   3  10   3 551.248 666.163  10
  -3 -10  -3-858.982 864.102   9
   3 -10   3 105.807 654.097   8
  -3 -10  -3 164.546 646.665  16
  -3 -10  -3 1000.51 700.593   4
  -3 -10  -3 1476.74 797.653  14
  -3  10  -3 1862.97 924.394  12
  -3  10  -3 690.116 657.105  11
   3 -10   4 265.594 821.382   3
   3  10   4 323.293 738.139  10
  -3 -10  -4 121.155 972.371   9
   3 -10   4 480.712 764.646   8
  -3 -10  -4-643.651 720.812  16
  -3 -10  -4 747.805 952.058  14
  -3  10  -4 845.403 886.543  12
   3 -10   4 793.712 800.423  15
  -3 -10  -4 1742.22 770.681   4
   3 -11  -6 2250.43 812.582  16
  -3  11   6 3132.40 943.708   1
   3  11  -6 1458.80 831.604  12
   3 -11  -5 133.554 791.196   5
  -3 -11   5 331.949 775.886   8
   3  11  -5-994.888 811.502  12
   3  11  -5 1842.12 879.667   2
  -3  11   5-658.247 716.534  11
   3 -11  -4 1811.08 959.668   9
   3 -11  -4 544.763 860.156   5
  -3 -11   4 1284.44 831.443   8
  -3  11   4 1873.41 763.554  12
   3  11  -4 309.762 613.119  12
   3  11  -4 917.830 663.840   2
  -3  11   4 797.049 803.609  11
  -3 -11   3 1359.99 631.684   3
   3 -11  -3 2796.46 988.427   9
   3 -11  -3 2040.19 900.005   5
  -3 -11   3 1435.66 743.053   8
  -3  11   3 1667.40 665.056  12
   3  11  -3 1955.23 739.028  12
   3  11  -3 3322.70 842.125   2
   3 -11  -3 1884.04 660.462   3
  -3  11   3 1454.48 759.069  11
  -3 -11   2 4243.49 872.868   9
  -3 -11   2 4571.18 877.944   5
   3 -11  -2 5294.96 1145.16   5
  -3 -11   2 4840.14 936.711   8
   3  11  -2 4823.55 1090.65  12
  -3  11   2 5288.66 990.235  12
   3  11  -2 4021.97 796.054   2
  -3  11   2 3902.48 974.476  11
   3 -11  -2 3439.53 802.259   3
  -3 -11   1 7255.75 1054.30   9
  -3 -11   1 9209.79 1148.89   5
  -3 -11   1 7550.31 1133.08   4
  -3 -11   1 8750.22 1088.84   8
   3  11  -1 8778.27 1233.32  12
  -3  11   1 10359.6 1290.61  12
  -3  11   1 8525.35 1182.76  11
   3 -11  -1 9493.41 1173.04   3
   3  11   0 6479.17 1105.62  10
  -3 -11   0 6245.76 1058.81   9
  -3 -11   0 8515.94 1103.09   5
  -3 -11   0 8689.83 1189.42   4
  -3 -11   0 8400.71 1085.10   8
  -3 -11   0 7420.36 1196.27  14
   3  11   0 8369.58 1185.86  12
  -3  11   0 7345.15 1153.63  12
  -3  11   0 6314.00 1125.45  11
   3 -11   0 6644.71 1027.98   3
   3  11   1 12178.0 1407.09  10
  -3 -11  -1 11682.7 1373.67   9
  -3 -11  -1 13386.8 1448.31   5
  -3 -11  -1 11482.2 1371.23  14
  -3 -11  -1 13943.0 1451.91   4
  -3  11  -1 11710.6 1437.51  12
  -3  11  -1 9306.01 1206.63  11
   3 -11   1 12797.3 1417.95   3
   3 -11   2 4084.58 989.989   3
   3  11   2 2928.03 921.787  10
  -3 -11  -2 3688.75 990.874   9
   3 -11   2 2499.38 832.528   8
  -3 -11  -2 2127.22 735.517  16
  -3 -11  -2 2348.21 824.732   4
  -3 -11  -2 3402.67 1074.34  14
  -3  11  -2 1575.92 852.455  12
  -3  11  -2 1630.00 807.672  11
   3 -11   3 8023.26 1273.39   3
   3  11   3 7376.75 1211.28  10
  -3 -11  -3 8764.74 1352.08   9
   3 -11   3 7120.90 1195.79   8
  -3 -11  -3 7818.40 1106.64  16
  -3 -11  -3 4043.56 1001.85   4
  -3 -11  -3 7102.61 1263.34  14
  -3  11  -3 6427.03 1170.80  12
  -3  11  -3 7223.33 1060.73  11
   3 -11   4 25186.1 2074.49   8
  -3 -11  -4 20391.2 1827.69  16
  -3 -11  -4 24240.1 1907.97   4
  -3 -12   5 2766.47 865.573   3
  -3 -12   4 9466.29 1244.81   3
  -3 -12   4 13095.0 1485.04   8
  -3  12   4 11508.1 1362.05  12
   3  12  -4 9593.54 1332.63  12
   3  12  -4 9215.77 1240.54   2
   3 -12  -3 11485.4 1516.78   5
  -3 -12   3 9287.49 1258.31   8
  -3  12   3 10862.1 1333.37  12
   3  12  -3 11265.9 1415.22  12
   3  12  -3 10427.1 1249.12   2
  -3  12   3 8587.70 1267.33  11
  -3 -12   2 4634.67 900.311   9
  -3 -12   2 4870.19 990.639   5
   3 -12  -2 5801.26 1132.61   5
  -3 -12   2 4262.71 1036.30   4
  -3 -12   2 5538.74 1033.76   8
   3  12  -2 3991.32 924.036  12
  -3  12   2 5290.42 1102.28  12
   3 -12  -2 4602.43 903.964   3
  -3  12   2 3597.35 971.676  11
  -3 -12   1 686.221 906.321   4
  -3 -12   1 428.818 684.800   9
  -3 -12   1 65.0511 733.518   5
  -3 -12   1-635.002 714.215   8
   3  12  -1 66.1474 733.290  12
  -3  12   1-1123.43 868.457  12
  -3  12   1-182.536 772.989  11
   3 -12  -1 65.8852 592.436   3
  -3 -12   0-60.1891 798.300   9
  -3 -12   0 1676.89 821.005   5
  -3 -12   0 2512.28 876.718   4
  -3 -12   0 1008.42 713.539  14
   3  12   0 1933.91 959.733  12
  -3  12   0 880.304 672.529  12
  -3  12   0 1013.72 788.657  11
   3 -12   0 1098.58 727.734   3
   3  12   1 30608.5 2238.33  10
  -3 -12  -1 29123.9 2151.69   9
  -3 -12  -1 24920.6 1993.38   5
  -3 -12  -1 29008.0 2127.53   4
  -3 -12  -1 27037.9 2133.75  14
   3 -12   1 29595.2 2201.31   3
  -3  12  -1 28001.1 2203.71  12
  -3  12  -1 26798.9 2044.58  11
   3 -12   2 7465.39 1279.56   3
  -3 -12  -2 8538.21 1317.14   5
  -3 -12  -2 8749.44 1271.60   4
  -3  12  -2 9090.11 1246.67  11
  -3 -12  -3 3662.55 1019.70   4
  -3 -13   3 7309.44 1189.83   8
  -3  13   3 6244.58 1187.26  12
  -3 -13   2 2806.21 848.131   5
  -3 -13   2 1531.37 753.033   8
  -3  13   2 2160.08 902.012  12
  -3 -13   1 9675.05 1297.20   9
  -3 -13   1 8147.17 1240.95   5
  -3 -13   0 22317.5 1932.32   9
  -3 -13   0 21151.1 1884.00   5
   3 -13   0 24773.8 1988.92   3
   4   0 -10-517.582 715.937   2
   4   0  -9 1572.13 727.243   2
  -4   0   9 1533.59 828.440   1
   4   0  -9 734.470 690.923  16
  -4   0   8 36080.2 1966.97   8
   4   0  -8 36443.3 2206.82  16
   4   0  -8 40006.4 2175.29   2
  -4   0   8 34876.5 2137.73   1
   4   0  -7 1361.85 622.862   2
  -4   0   7 1994.64 592.180   8
   4   0  -7 827.350 693.393  16
  -4   0   6 11884.1 962.667   8
   4   0  -6 11483.1 1185.63  16
  -4   0   6 12067.0 689.504  11
   4   0  -6 10564.9 1061.26   2
   4   0  -5 95748.6 2497.49   5
  -4   0   5 98594.1 3146.96   8
   4   0  -5 94675.3 3396.56  16
   4   0  -5 93490.4 3311.61   2
  -4   0   5 98742.3 2854.09  11
   4   0  -4 69542.0 2147.30   4
  -4   0   4 66355.3 2318.40   8
   4   0  -4 68892.6 2580.17  16
  -4   0   4 66596.3 2532.80   7
   4   0  -4 64625.2 2481.06   2
   4   0  -4 64439.6 1666.88  10
   4   0  -3 64278.3 2413.58  16
  -4   0   3 62673.4 2370.59   7
  -4   0   3 62038.9 1609.00  12
   4   0  -3 65053.1 2378.85   2
   4   0  -3 65148.8 1874.32  10
   4   0  -3 67582.5 1851.91   6
  -4   0   2 28256.7 994.864   5
   4   0  -2 26743.0 1340.95   3
  -4   0   2 26908.2 1377.19   7
   4   0  -2 27853.6 1124.91   6
   4   0  -1 138094. 3961.37   3
  -4   0   1 142138. 3671.44  14
  -4   0   1 131922. 4057.28   7
   4   0  -1 137774. 3878.44   6
   4   0   0 71992.6 2230.08  14
  -4   0   0 69524.2 2226.72  14
   4   0   0 70636.3 2352.68   3
  -4   0   0 70601.0 2518.40   7
   4   0   0 66503.9 2445.32   6
   4   0   1 62888.7 2149.92  15
   4   0   1 54651.4 1466.40  13
   4   0   1 64014.8 2122.42   3
  -4   0  -1 60591.1 2325.07   7
   4   0   2 83057.6 2874.47  15
   4   0   2 86118.6 2340.37  13
  -4   0  -2 75411.7 2983.02   7
   4   0   2 80076.8 2703.29   3
   4   0   3 9848.29 731.791  13
   4   0   3 11020.9 873.060   3
  -4   0  -3 9580.24 1021.64   7
   4   0   4 68976.3 2438.87  13
  -4   0  -4 66415.0 2914.06   7
   4   0   4 67302.2 2496.22   3
   4   0   4 62877.5 2881.26   6
   4   0   4 65320.5 2863.16  10
   4   0   5-166.780 461.963   3
   4   0   5 483.301 695.926   6
   4   0   5 151.151 658.880  10
  -4   0  -5 256.928 647.936  16
   4   0   5-130.796 516.867  13
  -4   0  -5-154.635 617.699   7
   4   0   6-66.2277 784.062   6
   4   0   6 303.843 686.837  10
  -4   0  -6 79.5975 698.906  16
  -4   0  -6 1000.84 803.262   7
   4   0   7 9485.95 1334.14   6
   4   0   7 8061.93 1235.82  10
  -4   0  -7 10196.5 1373.53  16
  -4   0  -7 8220.39 1280.44   7
   4   1 -10 17133.9 1629.47   2
  -4  -1  10 20636.7 1833.41   1
   4   1 -10 17508.0 1803.72  16
   4   1  -9 1055.54 715.564   2
   4  -1  -9 2644.03 794.307   2
  -4   1   9 2310.54 810.025   1
   4  -1  -9 1762.38 807.983  16
  -4  -1   9 828.392 672.993   1
  -4   1   9 1976.22 1010.25  13
   4   1  -9 3378.55 904.689  16
  -4  -1   9 1943.63 780.639   8
   4  -1  -8 33324.2 1991.15   2
  -4  -1   8 35117.7 2000.74   8
   4   1  -8 31385.3 2031.14   2
   4  -1  -8 34158.9 2175.65  16
   4   1  -8 37593.9 2202.18  16
  -4   1   8 33753.9 2127.00   1
  -4  -1   8 35245.9 2134.41   1
  -4   1   8 31870.2 2247.51  13
  -4   1   7 46222.8 1977.38   8
  -4  -1   7 45436.3 2157.54   8
   4  -1  -7 44904.2 2376.72  16
   4   1  -7 44717.3 2272.58   2
  -4   1   7 41100.6 2366.59  13
   4  -1  -7 45468.0 2209.05   2
   4   1  -7 43037.9 2264.38  16
  -4   1   6 87297.9 2889.34   8
  -4  -1   6 85389.4 3090.51   8
   4  -1  -6 81621.5 3291.36  16
   4   1  -6 85277.4 3272.22  16
   4   1  -6 83480.0 3224.32   2
   4  -1  -6 83388.7 3150.96   2
  -4  -1   6 87717.6 2360.65  11
  -4   1   6 86816.2 2658.24  11
   4  -1  -5 3578.97 396.429   5
   4   1  -5 2988.94 712.841   2
   4  -1  -5 3005.55 654.923   2
   4  -1  -5 3887.14 414.463   4
  -4   1   5 3060.70 519.064   8
  -4  -1   5 3200.35 610.629   8
   4  -1  -5 3343.29 734.040  16
   4   1  -5 3425.96 738.866  16
  -4  -1   5 3224.23 233.541   6
  -4  -1   5 3653.64 448.548  11
  -4   1   5 3904.77 519.159  11
   4   1  -4 74594.1 1935.32  10
   4   1  -4 78407.2 2768.72  16
   4  -1  -4 77434.0 2107.28   5
  -4  -1   4 74419.2 2595.62   8
  -4   1   4 74141.4 2406.25   8
   4  -1  -4 74557.9 2292.12   4
   4  -1  -4 77222.7 2794.16  16
  -4  -1   4 71575.1 2706.22   7
  -4   1   4 75869.4 2754.84   7
   4   1  -4 71336.0 2685.42   2
   4  -1  -4 74970.2 2694.56   2
  -4   1   4 73692.1 2460.69  11
  -4  -1   4 73622.4 2038.07   6
   4  -1  -4 71461.7 1904.86  10
   4  -1  -3 7292.54 783.060  16
  -4   1   3 8601.57 714.022  13
   4   1  -3 8136.11 832.902   2
  -4  -1   3 7651.17 415.444  12
  -4  -1   3 6517.40 753.577   7
  -4   1   3 8423.87 844.376   7
   4  -1  -3 9274.98 859.162   2
   4  -1  -3 6852.12 442.304   6
   4   1  -3 7512.91 506.724  10
   4   1  -3 8911.28 548.193   6
  -4   1   2 9063.75 572.983   5
   4   1  -2 8679.61 834.355   2
  -4   1   2 9479.98 447.715  14
  -4  -1   2 8780.30 794.946   7
  -4   1   2 9116.19 560.873  13
  -4  -1   2 9839.62 580.557  12
  -4   1   2 8168.70 784.323   7
   4  -1  -2 7585.72 806.937   3
   4   1  -2 8692.20 629.012   6
   4   1  -2 9733.34 658.958  10
  -4  -1   1 17326.8 895.161  14
  -4   1   1 15805.0 506.756  13
   4   1  -1 16450.8 972.864   3
  -4   1   1 17098.8 728.905  14
   4  -1  -1 17138.3 1045.00   3
  -4  -1   1 17884.4 1076.19   7
  -4   1   1 17043.8 1075.04   7
   4   1  -1 15795.4 949.026   6
   4   1  -1 16250.9 956.045  10
   4  -1   0 32604.5 1475.17   3
   4   1   0 35835.1 1337.33  15
   4  -1   0 30573.9 1231.69  14
  -4  -1   0 37004.8 1487.66  14
   4   1   0 33103.4 1370.94   3
  -4   1   0 33392.3 1572.06   7
  -4  -1   0 36202.0 1620.72   7
  -4  -1   0 30786.7 946.817  13
   4   1   0 36071.3 1575.07   6
   4   1   0 33609.5 1598.49  10
  -4  -1  -1 40579.4 1731.04  14
   4  -1   1 33894.0 1602.44  15
   4   1   1 43157.3 1564.60   3
  -4  -1  -1 40212.2 1853.09   7
  -4   1  -1 31687.2 1724.98   7
   4  -1   1 34257.3 1609.76   3
   4   1   1 39945.1 1804.50   6
   4   1   1 41621.6 1584.60  15
   4   1   1 39896.9 1800.09  10
   4  -1   2 45306.7 2003.71  15
   4   1   2 48141.8 1590.46  13
   4   1   2 46252.3 1737.47   3
   4  -1   2 50361.2 1521.49  13
  -4  -1  -2 48859.9 2182.11   7
  -4   1  -2 46966.6 2117.76   7
   4  -1   2 49517.3 1969.35   3
   4   1   2 44032.9 2110.70   6
   4   1   2 43210.8 2073.10  10
   4  -1   3 22177.3 1078.82  13
   4  -1   3 21955.0 1423.40  15
   4   1   3 22689.9 1117.87  13
   4   1   3 22755.7 1150.30   3
  -4  -1  -3 18961.4 1417.02   7
  -4   1  -3 22205.1 1484.91   7
   4  -1   3 21798.0 1273.76   3
   4   1   3 20223.3 1439.48   6
   4   1   3 20023.8 1420.50  10
   4  -1   4 3392.80 636.901   3
   4   1   4 2738.55 737.886   6
   4   1   4 3679.69 823.478  10
   4   1   4 3854.48 586.200  13
   4  -1   4 4337.79 629.262  13
  -4  -1  -4 4554.11 834.038   7
  -4   1  -4 3015.06 805.344   7
   4   1   4 3388.31 516.664   3
  -4   1  -5 17170.9 1400.27  16
  -4  -1  -5 16130.8 1451.16  16
   4   1   5 17220.7 1245.44  13
   4  -1   5 18509.6 1281.06  13
  -4  -1  -5 17281.4 1524.93   7
  -4   1  -5 17414.6 1523.59   7
   4  -1   5 18669.7 1303.14   3
   4   1   5 15663.7 1452.95   6
   4   1   5 18427.0 1552.39  10
   4  -1   6 1124.95 597.079   3
   4  -1   6 1186.95 791.055  10
   4   1   6 2185.68 827.742   6
   4   1   6 1210.85 677.939  10
  -4  -1  -6 987.135 698.845  16
  -4   1  -6 964.026 727.161  16
  -4  -1  -6-9.55909 732.677   7
  -4   1  -6 514.587 693.359   7
   4  -1   6 1695.52 870.512   6
   4  -1   7 9584.08 1351.83   6
   4  -1   7 10208.0 1317.26  10
   4   1   7 7548.57 1200.87   6
   4   1   7 11267.6 1379.54  10
  -4  -1  -7 10319.1 1362.11  16
  -4   1  -7 8973.31 1266.57  16
  -4  -1  -7 12164.6 1547.77   7
   4   2 -10 3001.29 996.774  16
  -4  -2  10 3542.50 910.840   1
   4   2 -10 3116.53 938.649   2
   4   2  -9 3876.94 898.572   2
  -4   2   9 3301.53 937.632   1
  -4  -2   9 3543.23 862.566   8
   4   2  -9 2814.33 816.655  16
  -4  -2   9 4799.74 937.474   1
  -4   2   9 2836.61 1061.93  13
   4  -2  -9 6414.75 1252.78  16
   4   2  -8 10847.1 1231.94   2
  -4   2   8 9665.11 1267.69   1
   4  -2  -8 10600.3 1114.36   2
   4   2  -8 11444.8 1301.56  16
  -4  -2   8 10642.1 1210.60   8
   4  -2  -8 11841.7 1411.83  16
  -4   2   8 10884.4 1331.59  13
  -4  -2   8 12460.3 1242.69   1
   4   2  -7 7565.99 1006.29   2
   4  -2  -7 9329.94 999.657   2
  -4   2   7 9177.94 786.473   8
  -4  -2   7 9926.75 1095.64   8
  -4   2   7 6347.16 1053.95  13
   4  -2  -7 8145.42 1129.42  16
   4   2  -7 7619.11 1020.59  16
  -4   2   7 8937.19 1100.36   1
  -4   2   6 20307.4 1083.96   8
  -4  -2   6 23450.2 1448.91   8
   4  -2  -6 19370.2 1484.67  16
   4   2  -6 19411.2 1427.52   2
   4  -2  -6 21150.3 1377.10   2
  -4   2   6 21538.6 1569.38  13
   4   2  -6 20033.9 819.714  12
   4   2  -6 20065.5 1426.16  16
  -4   2   6 20528.0 1128.02  11
   4  -2  -5 17174.7 924.302   5
  -4   2   5 17826.2 943.620   8
  -4  -2   5 17550.4 1214.82   8
   4  -2  -5 17502.8 1201.97   2
   4  -2  -5 18680.9 831.953   4
   4  -2  -5 18681.3 1371.60  16
   4   2  -5 14894.2 1178.27  16
  -4   2   5 17059.4 1283.82  13
   4   2  -5 16843.0 700.419  12
  -4   2   5 17983.2 1058.68  11
   4   2  -5 16178.8 1235.98   2
  -4  -2   5 16487.8 760.544   6
   4   2  -4 51681.3 1538.10  10
   4  -2  -4 50715.3 1506.49  10
   4  -2  -4 49398.7 1714.47   5
  -4  -2   4 50619.4 2098.51   8
  -4   2   4 51888.6 1765.56   8
   4  -2  -4 49218.5 2185.82  16
  -4  -2   4 49772.9 1876.50   4
  -4  -2   4 53215.2 2168.92   7
  -4   2   4 48750.7 2150.44   7
   4   2  -4 48421.8 2114.78   2
  -4   2   4 51461.8 2049.60  13
   4  -2  -4 51583.0 2105.48   2
  -4   2   4 49646.5 1959.30  11
  -4  -2   4 49939.9 1642.95   6
   4   2  -3 27326.1 1134.99   6
   4   2  -3 27658.4 1431.11   2
   4  -2  -3 26417.6 1445.43  16
   4  -2  -3 23953.3 1369.87   3
  -4  -2   3 28828.3 1436.09   7
  -4   2   3 27814.0 1422.56   7
  -4   2   3 24355.5 742.433  14
  -4   2   3 27574.5 1234.87  13
  -4  -2   3 28243.6 1031.76  12
  -4   2   3 26805.0 850.176  12
  -4   2   3 27973.8 1395.34  11
  -4  -2   3 26798.5 1121.21   6
   4   2  -3 27794.9 1088.42  10
  -4   2   2 150432. 4103.84   5
   4  -2  -2 153634. 4455.25   3
  -4  -2   2 157189. 4412.27   7
  -4   2   2 158752. 4445.34   7
  -4   2   2 155557. 3955.83  13
   4   2  -2 142715. 4347.47   2
  -4  -2   2 153071. 4050.08  12
   4   2  -2 151894. 4146.17  10
   4   2  -2 146389. 4137.23   6
   4   2  -1 55342.8 1555.32  15
  -4  -2   1 54974.1 1957.27  14
   4  -2  -1 55456.7 2129.91   3
  -4   2   1 54525.9 2102.70   7
  -4  -2   1 55151.8 2068.79   7
   4   2  -1 56436.8 2051.37   2
   4   2  -1 54231.3 1996.02   6
   4   2  -1 54652.2 1993.03  10
  -4  -2   0 96886.4 3082.24   7
   4   2   0 94170.3 2741.08   3
  -4   2   0 81776.3 2945.73   7
  -4  -2   0 96537.1 2988.60  14
   4  -2   0 85442.2 2559.70  14
  -4  -2   0 94041.5 2503.80  13
   4  -2   0 80977.1 2918.61   3
  -4  -2   0 93094.0 2749.42   3
   4   2   0 88128.3 3042.84   6
   4   2   0 97540.8 3064.56  10
  -4  -2  -1 140.899 271.920   3
   4   2   1 287.487 479.215  10
   4   2   1 489.990 488.700   6
  -4  -2  -1-151.834 539.666  14
  -4  -2  -1 97.5614 268.217  13
  -4  -2  -1-13.4859 419.833   7
  -4   2  -1 240.147 434.480   7
   4   2   1 433.032 308.040   3
   4  -2   1 533.769 471.056   3
   4  -2   2 83466.1 3019.37  15
  -4  -2  -2 82710.7 3095.82  14
   4   2   2 82926.5 2497.29   3
   4   2   2 86708.2 2567.81  13
  -4  -2  -2 83634.4 3130.50   7
  -4   2  -2 78620.1 3010.39   7
   4  -2   2 86821.8 2963.27   3
  -4  -2  -2 81071.0 2480.99   3
   4   2   2 82688.4 3126.74   6
   4   2   2 83581.9 3091.32  10
   4  -2   3 49537.0 2321.20  15
   4   2   3 52526.9 1947.31  13
   4   2   3 53456.5 1800.82   3
  -4  -2  -3 44663.6 2286.31   7
  -4   2  -3 52867.5 2394.71   7
   4  -2   3 55363.1 2267.73   3
   4   2   3 48652.9 2326.44   6
   4   2   3 47262.8 2305.09  10
   4  -2   4 6332.72 845.979   3
   4   2   4 6559.05 990.081  10
   4   2   4 7244.53 1013.32   6
   4   2   4 7473.21 637.617   3
   4   2   4 6414.63 744.022  13
  -4  -2  -4 6993.48 977.994   7
  -4   2  -4 7721.22 1043.27   7
   4  -2   5 21223.5 1387.37  13
  -4   2  -5 19953.3 1513.26  16
  -4  -2  -5 19109.3 1586.75  16
   4   2   5 21592.9 1413.57  13
  -4  -2  -5 17979.0 1634.18   7
  -4   2  -5 21554.4 1728.36   7
   4  -2   5 21631.2 1522.72   3
   4   2   5 22301.2 1687.42   6
   4   2   5 21064.0 1634.26  10
  -4  -2  -6 30004.5 2079.26  16
  -4   2  -6 26206.5 1815.71  16
  -4  -2  -6 29982.6 2106.05   7
  -4   2  -6 28383.2 2102.01   7
   4  -2   6 28112.3 1865.73   3
   4   2   6 27982.6 2004.57   6
   4   2   6 28075.3 1979.88  10
   4  -2   7 1063.48 895.833  10
   4   2   7-512.925 796.524  10
   4   2   7 927.386 800.210   6
  -4  -2  -7-591.834 921.068  16
  -4   2  -7 1101.25 690.617  16
  -4  -2  -7-432.384 683.416   7
   4  -2   7 1150.50 829.667   6
  -4  -3  10 19925.2 1822.52   8
   4   3 -10 21845.8 1867.72  16
   4   3  -9 6522.21 1118.66   2
  -4  -3   9 8387.39 1256.33   8
  -4  -3   9 7556.26 1063.96   1
   4  -3  -9 7820.55 1286.98  16
  -4   3   9 7476.53 1354.86  13
   4   3  -9 8592.92 1173.73  16
  -4   3   9 7773.45 1303.51   1
  -4  -3   8 43793.7 2374.23   8
   4   3  -8 38702.8 2196.47  16
   4   3  -8 40921.5 2377.07   2
   4  -3  -8 35867.1 2322.37  16
   4  -3  -8 36792.0 2033.46   2
  -4   3   8 40078.8 2408.59   1
  -4   3   8 41184.8 2532.30  13
  -4  -3   8 38221.1 2139.69   1
   4   3  -7 5378.68 957.389   2
  -4   3   7 6157.59 994.930   1
   4  -3  -7 6651.85 860.201   2
  -4  -3   7 4826.60 888.655   8
  -4   3   7 5573.01 982.669  13
   4  -3  -7 6325.16 997.543  16
  -4   3   7 5920.40 708.359  11
   4   3  -7 6551.84 913.810  16
   4   3  -6 611.208 614.932   2
   4  -3  -6 411.939 512.229   2
  -4   3   6 711.609 335.587   8
  -4  -3   6 760.439 567.310   8
   4  -3  -6 228.847 627.456  16
   4   3  -6 663.013 556.690  16
  -4   3   6-754.938 765.259  13
   4   3  -6 832.366 285.716  12
  -4   3   6 447.576 411.076  11
  -4  -3   6 361.381 340.032   4
   4  -3  -5 63362.1 2145.45   5
   4   3  -5 58191.4 2518.95   2
  -4   3   5 62155.9 1873.32   8
  -4  -3   5 63842.2 2546.17   8
  -4  -3   5 66748.8 2202.67   4
   4  -3  -5 61874.0 2604.97  16
   4   3  -5 61200.0 2424.84  16
  -4   3   5 60512.8 1895.31  14
   4  -3  -5 57666.3 2339.71   2
   4   3  -5 60078.6 1873.27  12
  -4   3   5 61634.9 2286.76  11
  -4   3   5 59463.8 2467.29  13
   4  -3  -4 52896.3 1723.10  10
   4   3  -4 55458.1 1776.65  10
   4  -3  -4 53923.8 1949.23   5
  -4  -3   4 53402.2 2270.25   8
  -4   3   4 56501.5 1752.47   8
  -4  -3   4 52059.5 2028.05   4
   4  -3  -4 53454.3 2319.07  16
  -4  -3   4 53002.0 2226.12   7
   4   3  -4 55833.5 1715.17  15
   4   3  -4 54412.9 2297.78   2
  -4   3   4 56947.2 1560.95  14
  -4   3   4 49973.0 2126.11  13
   4   3  -4 53166.9 1775.06  12
  -4  -3   4 54289.3 1804.28  12
   4  -3  -4 54185.7 2185.64   2
  -4   3   4 54015.1 2148.86  11
  -4   3   4 57582.4 2288.24   7
  -4  -3   4 52868.1 1748.97  10
   4   3  -3 40685.5 1523.17  10
   4  -3  -3 41617.6 1617.86   5
  -4  -3   3 38456.5 1709.21   4
   4  -3  -3 40267.9 1873.99  16
   4   3  -3 40140.4 1150.14  15
  -4  -3   3 39321.7 1778.62   7
   4  -3  -3 40631.1 1858.08   3
  -4   3   3 42758.9 1834.07   7
   4   3  -3 45626.4 1909.09   2
  -4   3   3 40117.8 1630.46  13
  -4   3   3 42051.2 1339.74  12
  -4  -3   3 38770.0 1478.04  12
  -4   3   3 39946.8 1838.38  11
  -4  -3   3 41405.4 1523.43  10
   4   3  -2 29648.0 1381.47   6
  -4  -3   2 30556.6 1508.04   4
  -4  -3   2 30089.8 1457.21   7
  -4   3   2 33565.8 1524.31   7
   4  -3  -2 33317.9 1609.38   3
  -4   3   2 32276.7 1248.52  13
   4   3  -2 30049.1 1463.86   2
  -4   3   2 30725.4 1242.64  12
   4   3  -2 30048.3 1344.79  10
   4   3  -1 3824.97 595.018  10
   4   3  -1 2971.74 588.852   6
   4   3  -1 3615.08 575.946   2
  -4  -3   1 4168.08 709.401   4
  -4  -3   1 2943.84 574.675  14
   4  -3  -1 4218.49 248.692  14
   4  -3  -1 4145.28 392.524  13
  -4  -3   1 3097.49 550.942   7
  -4   3   1 3057.33 564.625   7
   4  -3  -1 4330.62 674.185   3
  -4  -3   0 46292.9 1924.01  14
   4  -3   0 45563.7 1519.28  14
  -4   3   0 44225.7 1890.67   7
  -4  -3   0 44878.6 1587.16  13
  -4  -3   0 43888.7 1581.28   3
   4  -3   0 45548.4 1362.33  13
   4  -3   0 44976.7 1954.35   3
  -4  -3   0 41341.1 1839.26   7
   4   3   0 48151.4 1813.00   2
   4   3   0 48628.1 1983.32   6
   4   3   0 48800.0 1990.61  10
  -4  -3  -1 1219.83 270.051   3
   4   3   1 1894.46 657.650  10
   4   3   1 1665.37 619.512   6
  -4  -3  -1 1259.51 626.434  14
  -4  -3  -1 2043.58 402.402  13
  -4  -3  -1 1480.79 557.355   7
  -4   3  -1 1283.21 526.167   7
   4  -3   1 1410.21 567.265   3
   4  -3   2 1281.84 553.866   3
   4   3   2 848.383 582.055  10
   4   3   2 1622.87 694.743   6
  -4  -3  -2 1058.02 237.777   3
   4  -3   2 1601.54 652.067  15
  -4  -3  -2 1371.40 792.303  14
   4   3   2 473.272 380.907  13
  -4  -3  -2 769.421 540.402   7
  -4   3  -2 1321.01 582.216   7
   4   3   2 916.631 254.082   3
   4  -3   3 12955.8 1190.08  15
   4   3   3 13028.2 658.863   3
  -4  -3  -3 13507.2 1320.32  14
   4   3   3 11877.4 911.144  13
  -4  -3  -3 12132.9 1104.01   7
   4  -3   3 13623.9 1134.67   3
  -4   3  -3 10916.7 1113.23   7
   4   3   3 11160.9 1140.89   6
   4   3   3 11130.7 1135.71  10
   4  -3   4 4272.92 780.278   3
   4   3   4 4637.64 867.050  10
   4   3   4 4636.82 837.178   6
   4  -3   4 6040.88 997.847  15
   4   3   4 5050.06 700.182  13
  -4  -3  -4 3545.78 775.079   7
  -4   3  -4 4279.22 887.661   7
  -4   3  -5 47908.7 2239.36  16
  -4  -3  -5 42901.4 2446.68  16
   4   3   5 41918.8 2115.47  13
  -4  -3  -5 42695.1 2378.69   7
  -4   3  -5 40446.1 2415.59   7
   4  -3   5 46465.2 2365.01   3
   4   3   5 44013.5 2444.05   6
   4   3   5 43602.1 2412.42  10
  -4  -3  -6 43974.0 2620.04  16
  -4   3  -6 43364.6 2322.81  16
  -4  -3  -6 42961.7 2633.17   7
  -4   3  -6 46391.1 2684.17   7
   4  -3   6 42975.9 2462.79   3
   4   3   6 49387.6 2650.40   6
   4   3   6 47806.3 2614.56  10
   4   3   7 12731.4 1450.16  10
   4  -3   7 15716.4 1509.03   3
  -4  -3  -7 12363.2 1488.92   7
   4   4  -9 11542.7 1457.16   2
  -4  -4   9 10641.4 1405.19   8
   4  -4  -9 11256.7 1491.39  16
   4   4  -9 8124.65 1123.16  16
  -4   4   9 10280.6 1509.46  13
  -4   4   9 11957.0 1457.32   1
  -4  -4   8 16507.2 1590.61   8
   4   4  -8 16717.5 1591.39   2
   4  -4  -8 18145.7 1707.22  16
   4   4  -8 15491.4 1387.63  16
  -4   4   8 17405.4 1606.97   1
  -4   4   8 15573.2 1604.27  13
  -4  -4   8 14467.3 1313.79   1
   4   4  -7 4144.53 896.983   2
   4  -4  -7 4268.53 704.202   2
  -4  -4   7 4433.73 908.477   8
   4  -4  -7 4314.00 978.803  16
  -4   4   7 2517.47 889.435   1
  -4   4   7 4162.45 916.674  13
   4   4  -7 4743.72 798.293  16
  -4   4   7 4793.36 697.747  11
   4  -4  -6 23783.8 1369.92   5
  -4  -4   6 22923.7 1606.92   8
   4   4  -6 25615.9 1530.98  16
  -4  -4   6 24041.8 1295.65   4
   4  -4  -6 23452.3 1676.54  16
   4   4  -6 21643.3 1615.76   2
   4  -4  -6 22078.9 1386.80   2
  -4   4   6 23972.5 1675.62  13
   4   4  -6 25443.2 1225.99  12
  -4   4   6 24234.2 1408.81  11
   4  -4  -5 57010.5 2219.61   5
  -4   4   5 59475.0 1663.42   8
  -4  -4   5 52631.3 2460.82   8
  -4  -4   5 56798.9 2215.85   4
   4  -4  -5 62085.9 2645.82  16
   4   4  -5 55212.1 2539.35   2
  -4   4   5 60676.9 2534.79  13
   4  -4  -5 57778.0 2311.16   2
   4   4  -5 55938.2 2010.64  12
  -4   4   5 55510.7 2328.32  11
   4   4  -4 17505.2 951.131  10
   4  -4  -4 18762.1 1137.18   5
  -4  -4   4 17198.9 1288.67   8
  -4   4   4 17808.2 732.617   8
  -4  -4   4 17511.3 1143.69   4
   4  -4  -4 18397.4 1334.49  16
   4   4  -4 16375.4 1253.45   2
  -4   4   4 18015.8 1214.89   7
  -4   4   4 18367.9 1234.60  13
  -4   4   4 18220.9 818.497  12
   4   4  -4 18745.7 1005.46  12
   4  -4  -4 17812.6 1199.46   2
  -4   4   4 15930.4 1197.24  11
   4  -4  -4 18295.3 1269.52   3
   4   4  -3 19802.7 1072.49  10
   4  -4  -3 20929.1 1198.88   5
  -4  -4   3 19647.5 749.145   5
  -4  -4   3 17209.5 1194.99   4
  -4  -4   3 21827.2 1358.78   8
   4  -4  -3 21000.7 1307.48  16
  -4  -4   3 21492.5 1249.56   7
  -4   4   3 22080.7 1255.42   7
   4   4  -3 23976.1 1362.42   2
   4  -4  -3 19535.5 1303.14   3
  -4   4   3 20576.5 1163.93  13
   4   4  -3 20342.4 1096.83  12
  -4   4   3 21845.0 989.776  12
  -4   4   3 20682.4 1325.16  11
   4   4  -2 20772.7 1206.36   6
  -4   4   2 20237.4 1002.61   8
  -4  -4   2 21129.4 1290.98   4
   4  -4  -2 23566.9 1304.53  16
  -4  -4   2 22166.2 1209.46   7
  -4   4   2 23367.9 1257.80   7
   4  -4  -2 20664.5 1322.10   3
   4   4  -2 22889.5 1250.35   2
  -4   4   2 21765.2 1083.64  13
  -4   4   2 23741.6 1130.42  12
  -4   4   2 21939.1 1397.78  11
   4   4  -2 22680.2 1216.09  10
  -4  -4   1 78709.7 2806.02   4
   4  -4  -1 80196.8 2358.65  13
   4  -4  -1 76507.1 1972.63  14
  -4  -4   1 74993.9 2587.05   7
  -4   4   1 75725.7 2658.79   7
   4  -4  -1 79189.2 2842.76   3
   4   4  -1 78681.8 2602.96   2
  -4   4   1 76097.1 2602.87  12
  -4   4   1 76869.6 2857.50  11
   4   4  -1 73699.8 2662.66  10
   4   4  -1 79950.8 2731.47   6
  -4  -4   0 87400.5 3052.34   4
  -4  -4   0 87210.6 3021.96  14
  -4  -4   0 86464.8 2526.57   3
  -4  -4   0 80310.3 2812.40   7
  -4   4   0 83491.9 2917.28   7
   4  -4   0 88209.3 2474.92  13
   4  -4   0 88702.5 3085.80   3
   4   4   0 87011.9 2706.00   2
   4   4   0 81435.8 2961.81   6
   4   4   0 83361.7 2966.26  10
   4   4   1 7149.83 937.651  10
   4   4   1 6192.23 823.014   6
  -4  -4  -1 8175.97 616.608  15
  -4  -4  -1 8676.40 1005.02  14
   4  -4   1 6726.31 541.982  13
  -4  -4  -1 7652.50 480.941   3
   4   4   1 7915.56 635.743   2
  -4  -4  -1 6575.27 738.684   7
  -4   4  -1 7049.16 828.810   7
   4  -4   1 7254.90 900.453   3
   4  -4   2 18516.1 1378.62  15
  -4  -4  -2 18766.6 1436.53  14
  -4   4  -2 18543.1 1318.74   7
   4  -4   2 17430.2 1295.99   3
   4   4   2 17760.4 900.662   2
  -4  -4  -2 19269.1 1272.77   7
   4   4   2 17572.2 1322.71   6
   4   4   2 14829.0 1279.35  10
   4  -4   3 55247.6 2553.94  15
  -4  -4  -3 52076.4 2557.66  14
   4   4   3 54483.1 2193.47  13
  -4  -4  -3 52801.9 2378.69   7
  -4   4  -3 50786.4 2466.41   7
   4  -4   3 56397.2 2497.89   3
   4   4   3 51649.9 2463.87   6
   4   4   3 50058.7 2440.29  10
   4  -4   4 82083.4 3449.42  15
   4   4   4 80733.4 3049.71  13
  -4  -4  -4 82446.8 3290.10   7
  -4   4  -4 84240.7 3402.46   7
   4  -4   4 84369.1 3364.74   3
   4   4   4 79889.2 3362.33   6
   4   4   4 79239.4 3352.97  10
   4   4   5 18930.5 1451.44  13
  -4  -4  -5 18150.1 1561.56   7
  -4   4  -5 20581.3 1720.67   7
   4  -4   5 25103.2 1754.38   3
  -4   4  -5 19320.3 1381.99  16
  -4  -4  -5 19969.1 1681.70  16
   4   4   5 19846.4 1633.60   6
   4   4   5 18467.4 1576.85  10
   4  -4   6 8292.65 1185.03   3
   4   4   6 4908.18 1016.38  10
   4   4   6 6960.29 1118.23   6
  -4  -4  -6 5268.04 1131.91  16
  -4  -4  -6 5608.67 1008.62   7
  -4   4  -6 4605.07 1020.99   7
   4  -4   7 3082.94 986.110   3
   4   4   7 3525.03 970.506  10
   4   4   7 4621.03 1024.81   6
  -4  -4  -7 4284.42 1066.05   7
  -4  -5   9 23280.4 2012.89   8
   4   5  -8 10331.1 1333.68   2
  -4   5   8 10346.8 1312.48   1
  -4  -5   8 12050.5 1408.67   8
  -4   5   8 11540.1 1514.83  13
   4  -5  -8 9445.41 1296.97  16
  -4  -5   7 44257.6 2474.26   8
   4   5  -7 45693.0 2514.10   2
   4  -5  -7 42953.7 2479.69  16
   4  -5  -7 46049.1 2116.63   2
  -4   5   7 45452.8 2544.34  13
  -4   5   7 47320.6 2563.19   1
  -4   5   7 46087.9 2197.26  11
   4  -5  -6 37003.9 1867.34   5
  -4  -5   6 36985.1 2120.53   8
  -4  -5   6 38715.9 1815.11   4
   4   5  -6 37700.8 2181.36   2
   4  -5  -6 39905.1 2212.91  16
  -4   5   6 37320.8 2126.78  13
   4  -5  -6 37620.9 1825.63   2
   4   5  -6 37142.1 1674.52  12
  -4   5   6 37995.0 2134.21   1
  -4   5   6 36338.1 1902.90  11
   4  -5  -5 5932.44 752.652   2
   4   5  -5 6339.34 937.831   2
   4  -5  -5 7422.62 841.027   5
  -4  -5   5 5150.68 711.052   4
  -4  -5   5 6486.48 941.098   8
   4  -5  -5 5749.82 913.625  16
  -4   5   5 6478.92 910.220  13
   4   5  -5 7346.72 726.914  12
  -4   5   5 6416.49 843.302  11
   4  -5  -4 45419.3 1962.86   5
  -4   5   4 40913.1 1135.11   8
  -4  -5   4 47358.2 2024.00   4
  -4  -5   4 44968.7 2189.20   8
   4   5  -4 47230.5 2155.19   2
  -4   5   4 47554.8 2024.43   7
   4  -5  -4 44649.6 2084.58   3
   4  -5  -4 44722.3 2098.34  16
  -4   5   4 46249.2 2055.24  13
  -4   5   4 45332.5 1631.76  12
   4   5  -4 46180.8 1833.22  12
  -4   5   4 45008.2 2097.35  11
   4   5  -3 41684.3 1774.78  10
  -4  -5   3 45471.7 1466.63   5
   4  -5  -3 44121.0 1926.34   5
  -4   5   3 42409.7 1361.86   8
  -4  -5   3 39723.6 1918.92   4
  -4  -5   3 39103.7 2016.90   8
   4  -5  -3 43002.1 1964.71  16
   4   5  -3 42666.7 1965.67   2
  -4  -5   3 42104.1 1845.63   7
  -4   5   3 42232.1 1850.54   7
   4  -5  -3 40717.5 1973.72   3
  -4   5   3 39947.7 1813.36  13
   4   5  -3 42892.7 1812.80  12
  -4   5   3 44526.3 1676.73  12
  -4   5   3 47538.2 2141.66  11
   4   5  -2 458.611 473.903  10
   4   5  -2 897.310 500.750   2
  -4   5   2 950.659 328.411   8
  -4  -5   2 1582.81 651.237   4
  -4   5   2 894.013 431.592  13
  -4  -5   2 1460.36 457.892   7
  -4   5   2 1362.73 481.286   7
  -4   5   2 899.034 418.996  12
   4  -5  -2 1010.46 475.522  16
  -4   5   2 1359.47 654.915  11
   4  -5  -2 1502.18 638.551   3
   4   5  -1 7883.26 861.760  10
   4   5  -1 7377.45 836.526   6
   4   5  -1 7762.48 749.093   2
  -4  -5   1 7929.84 925.546   4
  -4  -5   1 7605.08 726.047   7
  -4   5   1 8059.07 778.460   7
  -4   5   1 7849.20 814.276  12
  -4   5   1 7958.98 1035.93  11
   4  -5  -1 9411.23 965.662   3
   4   5   0 7457.39 894.138  10
   4   5   0 6685.37 827.771   6
  -4  -5   0 8466.38 455.982  15
  -4  -5   0 7047.66 911.947   4
  -4  -5   0 9133.39 983.963  14
  -4  -5   0 8595.55 586.109   3
   4   5   0 6742.67 649.382   2
  -4  -5   0 7280.78 725.917   7
  -4   5   0 8722.48 819.102   7
  -4   5   0 8123.84 938.240  12
  -4   5   0 7373.39 978.086  11
   4  -5   0 7697.70 918.870   3
   4   5   1 10228.8 1014.62  10
   4   5   1 9085.70 972.642   6
  -4  -5  -1 8536.33 972.787   4
  -4  -5  -1 11214.0 693.732  15
  -4  -5  -1 10048.7 1106.22  14
   4   5   1 9560.88 683.979   2
  -4  -5  -1 9914.24 863.990   7
  -4   5  -1 9395.55 928.526   7
  -4  -5  -1 9425.05 484.680   3
   4  -5   1 9971.34 1066.27   3
  -4  -5  -2 47091.3 2051.06   7
  -4   5  -2 46919.0 2161.97   7
   4   5   2 48001.9 1584.43   2
   4  -5   2 46882.1 2285.02   3
  -4  -5  -2 45318.4 2308.75  14
   4   5   2 44400.7 2260.39   6
   4   5   2 41858.0 2194.62  10
  -4  -5  -3 34091.6 2153.89  14
   4   5   3 40767.3 1903.52  13
  -4  -5  -3 38458.8 1938.29   7
  -4   5  -3 34653.0 1968.19   7
   4  -5   3 40811.5 2142.68   3
   4  -5   3 36258.6 2113.22  15
   4   5   3 35080.5 2050.28   6
   4   5   3 35148.7 2050.50  10
   4  -5   4 35528.6 2193.22  15
  -4  -5  -4 33076.3 2209.35  14
   4   5   4 32947.5 1850.03  13
  -4  -5  -4 36271.6 2035.00   7
  -4   5  -4 31833.2 2016.18   7
   4  -5   4 38174.1 2162.76   3
   4   5   4 31287.2 1998.24   6
   4   5   4 35888.3 2135.60  10
   4  -5   5 2773.55 827.053   3
   4   5   5 3695.23 894.326  10
   4   5   5 1814.94 721.645   6
  -4  -5  -5 3533.33 1008.43  16
   4  -5   5 3346.98 912.582  15
   4   5   5 3493.78 765.654  13
  -4  -5  -5 3166.18 824.995   7
  -4   5  -5 3100.38 832.383   7
   4  -5   6 6001.26 1089.65   3
   4   5   6 3779.39 969.881  10
   4   5   6 4161.43 964.567   6
  -4  -5  -6 4135.15 952.259   9
  -4  -5  -6 4495.01 1063.54  16
  -4  -5  -6 3993.90 928.033   7
  -4   5  -6 5763.04 1034.53   7
  -4  -5  -7 919.295 774.469   9
  -4  -6   8-177.070 905.118   8
   4  -6  -8 3354.23 957.156  16
  -4   6   8 1699.48 972.168  13
  -4   6   8 3288.22 996.684   1
   4   6  -8 2653.63 846.203   2
   4  -6  -7 17890.2 1416.15   5
  -4  -6   7 17758.3 1625.99   8
   4   6  -7 17747.5 1611.04   2
   4  -6  -7 21275.9 1766.26  16
  -4   6   7 19607.7 1666.76   1
  -4   6   7 20765.9 1731.86  13
  -4   6   7 21418.3 1526.46  11
   4  -6  -6 21305.0 1483.40   5
  -4  -6   6 19982.1 1638.07   8
  -4  -6   6 20079.2 1365.83   4
   4   6  -6 24693.0 1778.07   2
   4  -6  -6 21400.8 1659.18  16
  -4   6   6 21965.8 1668.65  13
   4  -6  -6 22168.7 1361.14   2
  -4   6   6 21583.5 1626.82   1
   4   6  -6 20757.6 1306.14  12
  -4   6   6 21314.2 1514.82  11
   4  -6  -5 4085.44 649.954   2
   4   6  -5 5271.00 912.797   2
   4  -6  -5 4751.34 750.810   5
  -4  -6   5 3665.13 699.917   4
  -4  -6   5 4746.68 847.036   8
   4  -6  -5 2809.76 745.750  16
  -4   6   5 4667.52 849.357  13
   4   6  -5 4961.37 682.125  12
  -4   6   5 4127.41 787.458  11
   4  -6  -4 155838. 4822.37   5
  -4  -6   4 149393. 4786.98   4
  -4  -6   4 153875. 5042.56   8
   4   6  -4 145443. 4860.48   2
   4  -6  -4 148052. 4836.54  16
  -4   6   4 159736. 4680.61   7
   4  -6  -4 148862. 4804.54   3
  -4   6   4 152696. 4837.77  13
  -4   6   4 156441. 4371.53  12
   4   6  -4 166763. 4699.95  12
  -4   6   4 147185. 4894.46  11
   4   6  -3 32777.9 1653.50  10
  -4  -6   3 35102.7 1402.99   5
   4  -6  -3 35037.6 1825.41   5
  -4  -6   3 37925.5 1893.10   4
  -4  -6   3 39054.5 1991.42   8
   4  -6  -3 32825.2 1733.22  16
   4   6  -3 31990.3 1741.36   2
  -4   6   3 31141.6 1569.01   7
  -4  -6   3 37160.2 1660.43   7
   4  -6  -3 37905.0 1898.13   3
  -4   6   3 33676.9 1727.47  13
   4   6  -3 36152.4 1729.32  12
  -4   6   3 31962.5 1520.59  12
  -4   6   3 31647.8 1834.22  11
   4   6  -2 31219.6 1637.78  10
  -4  -6   2 30971.9 1382.43   5
  -4   6   2 31149.5 1239.32   8
  -4  -6   2 30352.0 1723.24   4
  -4  -6   2 29203.1 1700.54   8
   4  -6  -2 30263.1 1533.37  16
   4   6  -2 29054.5 1540.07   2
  -4  -6   2 28379.4 1405.79   7
   4  -6  -2 30027.7 898.946  14
  -4   6   2 30788.9 1470.33   7
   4  -6  -2 33847.0 1772.58   3
   4   6  -2 31411.1 1640.48  12
  -4   6   2 29965.7 1510.36  12
  -4   6   2 27152.2 1724.38  11
   4   6  -1 40236.8 1908.44  10
   4   6  -1 35390.4 1878.38   6
  -4  -6   1 36878.7 1914.88   4
  -4  -6   1 36852.1 1579.64   7
  -4   6   1 37474.8 1688.28   7
   4  -6  -1 37741.4 1936.42   3
   4   6  -1 39536.0 1694.35   2
  -4   6   1 35124.1 1785.21  12
  -4   6   1 38545.4 2015.96  11
   4   6   0 52150.1 2359.23   6
  -4  -6   0 46734.2 2273.44   4
   4   6   0 55221.4 1944.29   2
  -4  -6   0 52460.6 2375.67  14
  -4  -6   0 52066.6 1723.88   3
  -4  -6   0 49645.7 1971.14   7
  -4   6   0 57180.1 2172.19   7
   4  -6   0 50820.3 2358.94   3
  -4   6   0 52134.0 2317.68  12
  -4   6   0 52426.5 2412.38  11
   4   6   0 49340.0 2306.46  10
   4   6   1 3981.23 798.951  10
   4   6   1 3170.69 759.817   6
   4   6   1 3696.28 449.280   2
  -4  -6  -1 4150.83 896.664  14
  -4  -6  -1 4179.43 805.929   4
  -4  -6  -1 4946.95 646.670   7
  -4   6  -1 3657.58 677.420   7
  -4   6  -1 3574.90 859.035  12
  -4   6  -1 3502.00 858.216  11
   4  -6   1 3473.17 762.278   3
  -4  -6  -2 56689.2 2582.34   4
  -4  -6  -2 57533.4 2761.05  14
  -4  -6  -2 60885.4 2403.50   7
  -4   6  -2 65359.0 2605.01   7
   4  -6   2 60454.6 2742.00   3
  -4   6  -2 63073.1 2823.97  12
  -4   6  -2 56262.4 2597.01  11
   4   6   2 61702.9 2739.32   6
   4   6   2 55567.6 2659.19  10
   4  -6   3 17643.1 1543.68  15
  -4  -6  -3 16436.7 1496.91  14
  -4  -6  -3 17357.0 1322.85   7
  -4   6  -3 17193.8 1375.78   7
   4  -6   3 20945.7 1615.57   3
  -4   6  -3 20457.9 1701.01  12
  -4   6  -3 17362.6 1432.35  11
   4   6   3 19833.7 1574.08   6
   4   6   3 20013.2 1581.51  10
   4  -6   4 10000.9 1277.88   3
   4   6   4 10954.2 1309.21  10
   4   6   4 12003.8 1287.10   6
  -4  -6  -4 11686.1 1380.56  16
   4  -6   4 10137.9 1274.23  15
  -4  -6  -4 12081.2 1505.13  14
  -4  -6  -4 9510.45 1130.06   7
   4   6   4 11693.0 1175.58  13
  -4   6  -4 11076.2 1249.92   7
  -4   6  -4 10965.2 1187.71  11
   4  -6   5 6093.89 1066.88   3
   4   6   5 3794.88 924.491  10
   4   6   5 3846.74 917.558   6
  -4  -6  -5 4110.09 974.045  16
   4  -6   5 3757.58 1007.91  15
   4   6   5 4138.08 879.519  13
  -4  -6  -5 4018.62 821.044   7
  -4   6  -5 3750.58 887.105   7
  -4  -6  -6 25623.7 2028.28   9
  -4  -6  -6 22046.6 1870.35   7
  -4   6  -6 23643.9 1994.83   7
   4  -6   6 28643.3 2161.72   3
   4   6   6 24658.2 1966.09   6
   4   6   6 22385.4 1897.78  10
   4  -7  -8 7019.46 1088.23   5
  -4  -7   8 9406.37 1343.60   8
   4  -7  -8 6635.82 1253.37  16
  -4   7   8 7012.78 1146.31   1
  -4   7   8 7030.05 1251.02  13
   4   7  -7 8374.87 1275.62   2
  -4   7   7 7668.52 1113.17   1
   4  -7  -7 8366.34 1086.61   5
  -4  -7   7 6366.96 1172.65   8
   4  -7  -7 7902.38 1154.59  16
  -4   7   7 8592.18 1310.07  13
  -4   7   7 6693.04 1004.61  11
   4   7  -6 13466.5 1428.93   2
   4  -7  -6 16213.1 1387.14   5
  -4  -7   6 14471.5 1259.61   4
   4  -7  -6 16734.9 1543.92  16
  -4  -7   6 12776.0 1397.23   8
  -4   7   6 16423.8 1496.99   1
  -4   7   6 12262.8 1347.88  13
   4   7  -6 15601.8 1221.72  12
  -4   7   6 12873.7 1292.41  11
   4  -7  -5 27226.9 1757.45   5
  -4  -7   5 30052.1 1748.28   4
  -4  -7   5 28474.1 1890.79   8
   4   7  -5 25283.8 1760.46   2
   4  -7  -5 27168.1 1773.49  16
  -4   7   5 26461.3 1769.35  13
   4   7  -5 26869.1 1585.37  12
  -4   7   5 25193.9 1705.68   1
   4  -7  -5 27073.3 1509.88   2
  -4   7   5 26828.1 1776.14  11
   4  -7  -4 33619.1 1907.45   5
  -4  -7   4 31721.3 1835.63   4
  -4  -7   4 34551.7 2028.95   8
   4   7  -4 33283.9 1921.30   2
   4  -7  -4 35818.0 1898.92  16
   4  -7  -4 35746.8 1897.32   3
  -4   7   4 34906.0 1917.68  13
  -4   7   4 31672.5 1586.59  12
   4   7  -4 31937.1 1749.69  12
  -4   7   4 32895.9 1934.22  11
   4   7  -3 68048.6 2720.48  10
  -4  -7   3 68485.2 2403.74   5
   4  -7  -3 70835.7 2894.68   5
  -4  -7   3 67501.7 2867.00   4
  -4  -7   3 67159.2 2939.31   8
   4   7  -3 67652.8 2762.07   2
   4  -7  -3 71472.2 2751.16  16
  -4   7   3 74993.3 2580.36   7
   4  -7  -3 66319.8 2811.23   3
  -4   7   3 69321.0 2781.04  13
   4   7  -3 73829.0 2826.52  12
  -4   7   3 72947.8 2637.08  12
  -4   7   3 65436.8 2930.00  11
   4   7  -2 19244.6 1341.92  10
  -4  -7   2 17133.5 1085.59   5
  -4  -7   2 14278.8 1286.80   4
  -4  -7   2 16864.3 1345.32   8
   4   7  -2 16922.3 1192.60   2
   4  -7  -2 15686.9 1103.83  16
  -4  -7   2 15919.8 1000.43   7
  -4   7   2 16368.7 1039.17   7
   4  -7  -2 16564.2 1309.41   3
   4   7  -2 16535.9 1252.19  12
  -4   7   2 14952.8 1142.28  12
  -4   7   2 14584.7 1327.10  11
   4   7  -1 23153.8 1519.19  10
  -4  -7   1 22262.9 1568.64   4
   4   7  -1 22177.4 1250.30   2
  -4  -7   1 19581.9 1102.93   7
  -4   7   1 21792.3 1229.27   7
   4  -7  -1 24636.3 1581.88   3
  -4   7   1 22436.7 1436.47  12
  -4   7   1 20991.3 1534.32  11
   4   7   0 84653.4 3275.72  10
   4   7   0 83571.1 3274.26   6
  -4  -7   0 82731.5 3254.21   4
   4   7   0 87131.5 2723.05   2
  -4  -7   0 84095.5 2748.82   7
  -4   7   0 81501.5 2875.83   7
   4  -7   0 85442.4 3311.61   3
  -4   7   0 80024.0 3194.20  12
  -4   7   0 78737.9 3244.03  11
  -4  -7   0 81990.3 3303.86  14
   4   7   1 3363.47 794.011  10
   4   7   1 3642.17 812.124   6
  -4  -7  -1 4134.09 791.557   4
  -4  -7  -1 2676.95 747.571  14
  -4  -7  -1 3960.85 564.131   7
  -4   7  -1 2491.98 592.118   7
  -4   7  -1 3077.25 835.888  12
  -4   7  -1 2876.61 791.874  11
   4  -7   1 3501.17 773.933   3
   4   7   2 13998.0 1340.57   6
   4   7   2 13986.2 1342.73  10
  -4  -7  -2 15122.8 1306.95   4
  -4  -7  -2 14723.8 1443.76  14
  -4  -7  -2 15089.4 1095.07   7
  -4   7  -2 14124.4 1152.71   7
   4  -7   2 16579.4 1423.91   3
  -4   7  -2 15183.1 1445.94  12
  -4   7  -2 15571.2 1351.16  11
   4  -7   3 2767.34 840.162   3
   4  -7   3 2800.11 792.906  15
   4   7   3 1338.98 724.497  10
   4   7   3 1772.34 771.218   6
   4  -7   3 3843.58 932.380   8
  -4  -7  -3 787.589 806.164  14
  -4  -7  -3 2802.95 622.249   7
  -4   7  -3 2129.32 810.468  12
  -4   7  -3 2204.33 672.329   7
  -4   7  -3 1887.89 702.991  11
   4  -7   4 29199.1 2081.19   8
   4  -7   4 25909.9 1962.36  15
  -4  -7  -4 22894.8 1842.93  16
  -4  -7  -4 26583.3 2079.27  14
   4   7   4 25698.0 1772.14  13
  -4  -7  -4 27260.5 1736.48   7
  -4   7  -4 28321.7 1854.92   7
   4  -7   4 30245.8 2088.77   3
  -4   7  -4 26521.0 2073.81  12
  -4   7  -4 23687.7 1678.39  11
   4   7   4 24629.7 1879.65   6
   4   7   4 25368.0 1899.55  10
   4  -7   5 12510.1 1475.18   3
   4   7   5 10144.3 1295.06  10
   4   7   5 13608.4 1467.81   6
  -4  -7  -5 14703.3 1553.30  16
   4  -7   5 11141.4 1430.23  15
  -4  -7  -5 13649.6 1695.06  14
   4   7   5 12697.6 1347.59  13
  -4   7  -5 11960.1 1523.64  12
  -4   7  -5 12322.1 1374.32   7
  -4   7  -6 6032.67 1112.77   7
   4  -8  -8 2046.24 795.400   5
   4  -8  -7 382.871 606.683   5
  -4  -8   7 1423.25 938.500   8
   4  -8  -7 1021.63 792.261  16
  -4   8   7 1735.07 944.298  13
  -4   8   7 1035.56 695.846   1
  -4   8   7 1120.91 755.403  11
   4   8  -7 1958.12 807.679   2
  -4   8   6 6102.08 974.730   1
   4  -8  -6 9074.77 1177.43   5
  -4  -8   6 10775.3 1159.71   4
  -4  -8   6 8935.33 1247.26   8
   4  -8  -6 8973.10 1205.98  16
  -4   8   6 7298.79 1167.84  13
   4   8  -6 7194.40 961.707  12
  -4   8   6 8581.44 1127.54  11
   4   8  -6 8881.85 1235.68   2
   4  -8  -5 19114.4 1557.40   5
   4   8  -5 18198.4 1595.15   2
  -4  -8   5 18283.1 1481.40   4
  -4  -8   5 23020.9 1768.67   8
   4  -8  -5 19621.4 1548.50  16
   4  -8  -5 20833.1 1508.93   3
  -4   8   5 17672.8 1563.87  13
  -4   8   5 19394.3 1554.05   1
   4   8  -5 19903.0 1468.43  12
  -4   8   5 20043.6 1621.27  11
   4  -8  -4 36374.3 2141.90   5
  -4  -8   4 38854.0 2131.54   4
   4   8  -4 40449.0 2166.72   2
  -4  -8   4 38829.4 2231.85   8
   4  -8  -4 38113.9 2047.22  16
   4  -8  -4 35760.1 2004.93   3
  -4   8   4 37977.4 2124.40  13
  -4   8   4 38335.6 1879.72  12
   4   8  -4 39392.1 2076.76  12
  -4   8   4 39611.9 2045.63   1
  -4   8   4 37795.8 2210.21  11
   4   8  -3 10856.1 1099.10  10
   4   8  -3 11067.5 1101.21   2
  -4  -8   3 11974.8 934.211   5
   4  -8  -3 9098.91 1106.45   5
   4  -8  -3 10872.4 1025.82  16
  -4  -8   3 9543.55 1093.11   4
  -4   8   3 11344.5 885.217   7
  -4  -8   3 10802.1 1162.24   8
   4   8  -3 10054.8 1075.97  12
  -4   8   3 9312.81 952.446  12
   4  -8  -3 9757.41 1086.63   3
  -4   8   3 10706.8 1214.98  11
   4   8  -2 18792.1 1432.40  10
  -4  -8   2 17316.3 1194.79   5
  -4  -8   2 19234.4 1492.24   4
   4   8  -2 18943.9 1295.95   2
  -4  -8   2 18989.4 1463.96   8
   4  -8  -2 18645.4 1215.86  16
  -4  -8   2 19971.6 1071.94   7
  -4   8   2 19244.3 1113.67   7
   4  -8  -2 20234.5 1507.67   3
   4   8  -2 18698.5 1463.12  12
  -4   8   2 18221.8 1339.30  12
  -4   8   2 18885.7 1535.18  11
   4   8  -1 14579.4 1276.14  10
   4   8  -1 12373.8 969.164   2
  -4  -8   1 10807.0 1167.35   4
  -4  -8   1 10825.2 790.775   7
  -4  -8   1 10733.0 1139.93   8
  -4   8   1 14046.6 952.025   7
   4  -8  -1 13511.7 1241.59   3
  -4   8   1 10913.7 1125.22  12
  -4   8   1 12828.3 1285.80  11
   4   8   0 49939.6 2501.33  10
   4   8   0 51012.9 1938.67   2
  -4  -8   0 51789.7 2529.43   4
  -4  -8   0 47026.1 2503.63  14
  -4   8   0 54155.1 2109.54   7
   4  -8   0 53646.8 2560.66   3
  -4   8   0 47506.3 2430.11  12
  -4   8   0 46076.0 2441.10  11
   4   8   1 41004.7 2274.30  10
   4   8   1 40085.0 2261.08   6
  -4  -8  -1 40587.4 2254.31   4
  -4  -8  -1 43662.1 2380.24  14
  -4   8  -1 39964.1 1896.91   7
   4  -8   1 40813.2 2268.00   3
  -4   8  -1 37750.2 2207.59  12
  -4   8  -1 39460.3 2191.18  11
   4  -8   2 11656.7 1325.43   3
   4   8   2 8114.97 1131.36  10
   4   8   2 9135.91 1151.05   6
   4  -8   2 10449.6 1151.63   8
  -4  -8  -2 11132.3 1376.99  14
  -4  -8  -2 10071.5 1175.01   4
  -4   8  -2 9279.71 984.026   7
  -4   8  -2 10294.2 1221.93  12
  -4   8  -2 8017.06 1103.22  11
   4  -8   3 10585.0 1304.95   3
   4   8   3 8800.80 1151.32  10
   4   8   3 10851.6 1315.95   6
  -4  -8  -3 9063.40 1225.13  16
   4  -8   3 8986.15 1239.10   8
  -4  -8  -3 8595.18 1141.36   4
   4  -8   3 10081.6 1247.67  15
  -4  -8  -3 10172.4 1412.22  14
  -4   8  -3 9574.02 1370.49  12
  -4   8  -3 11038.3 1137.75   7
  -4   8  -3 9205.46 1158.88  11
   4   8   4 27753.6 2053.52  10
   4   8   4 30128.2 2141.95   6
   4  -8   4 30126.8 2133.42   8
  -4  -8  -4 30512.7 2152.40  16
   4  -8   4 27152.3 2123.71  15
  -4  -8  -4 31801.1 2333.08  14
  -4   8  -4 32838.6 2025.40   7
   4  -8   4 28542.4 2129.36   3
  -4   8  -4 30890.0 2295.27  12
  -4   8  -4 26937.7 1845.15  11
   4   8   5 8168.93 1256.02  10
   4   8   5 6145.03 1162.49   6
  -4  -8  -5 5755.13 1196.98   9
   4  -8   5 8752.58 1355.63   8
  -4  -8  -5 6995.80 1234.76  16
  -4   8  -5 7119.57 1094.34   7
   4  -9  -7 12842.7 1484.21   5
  -4   9   7 16149.5 1658.81   1
   4  -9  -7 12932.6 1529.39  16
  -4   9   7 16064.7 1706.27  13
  -4   9   7 13276.4 1527.54  11
   4  -9  -6 10198.8 1318.09   5
  -4   9   6 13297.3 1395.27   1
  -4  -9   6 9092.12 1210.94   4
  -4  -9   6 11370.1 1480.29   8
   4  -9  -6 12779.0 1415.57  16
  -4   9   6 10987.1 1396.67  13
   4   9  -6 11477.9 1223.76  12
  -4   9   6 12897.6 1436.41  11
   4   9  -6 10785.0 1329.04   2
  -4   9   5 2455.66 711.203   1
   4  -9  -5 4401.52 1036.20   5
  -4  -9   5 2629.83 783.179   4
  -4  -9   5 4453.50 1004.91   8
   4  -9  -5 4014.16 868.673  16
  -4   9   5 4382.11 1002.59  13
   4   9  -5 4038.87 838.445  12
   4  -9  -5 4271.48 835.524   3
  -4   9   5 2630.49 732.797  11
   4   9  -5 3244.74 857.239   2
   4  -9  -4 39184.6 2322.42   5
   4   9  -4 43451.4 2326.36   2
  -4  -9   4 40692.6 2287.77   4
  -4  -9   4 41377.0 2382.46   8
   4  -9  -4 40510.6 2131.01  16
   4  -9  -4 40118.6 2170.55   3
  -4   9   4 36705.5 2035.16   1
  -4   9   4 37562.4 2220.50  13
  -4   9   4 41568.7 2078.45  12
   4   9  -4 36731.2 2150.68  12
  -4   9   4 35954.1 2265.01  11
   4   9  -3 4109.92 810.800   2
   4  -9  -3 2554.56 884.299   5
  -4  -9   3 3054.38 617.688   5
  -4  -9   3 2363.12 775.425   4
  -4  -9   3 2637.30 716.027   8
   4  -9  -3 5098.42 752.669  16
   4   9  -3 3343.79 793.961  12
  -4   9   3 2138.23 633.254  12
  -4   9   3 2758.93 642.981   1
   4  -9  -3 2935.95 667.973   3
  -4   9   3 2310.57 843.776  11
   4   9  -2 5966.28 826.790   2
   4   9  -2 4262.10 868.364  10
  -4   9   2 5606.72 714.631   1
  -4  -9   2 4833.69 769.237   5
  -4  -9   2 5729.02 993.894   4
  -4  -9   2 3624.98 792.895   8
   4   9  -2 5044.94 901.344  12
  -4   9   2 5004.42 832.378  12
  -4   9   2 5362.30 987.781  11
   4  -9  -2 4859.29 882.973   3
   4   9  -1 20424.3 1615.29  10
  -4  -9   1 20594.3 1446.47   5
   4   9  -1 23630.6 1346.95   2
  -4  -9   1 18585.1 1601.28   4
  -4  -9   1 19315.8 1489.54   8
   4  -9  -1 19917.6 1554.57   3
  -4   9   1 22207.5 1602.86  12
  -4   9   1 20877.4 1652.17  11
   4   9   0 33737.1 2057.93  10
  -4  -9   0 29584.0 2008.16  14
  -4  -9   0 30871.7 2010.81   4
  -4  -9   0 30928.5 1886.11   8
   4  -9   0 30316.5 1979.63   3
  -4   9   0 32509.6 2021.78  12
  -4   9   0 30656.3 1997.59  11
  -4  -9  -1 4540.97 943.811  14
   4   9   1 3819.09 884.741  10
  -4  -9  -1 4590.06 912.132   4
  -4   9  -1 4777.12 927.635  12
  -4   9  -1 4593.02 942.949  11
   4  -9   1 4108.60 924.671   3
   4  -9   2 2709.97 907.597   3
   4   9   2 3586.07 958.591  10
   4   9   2 4453.26 957.057   6
   4  -9   2 3311.15 813.188   8
  -4  -9  -2 5001.98 937.600   4
  -4  -9  -2 3534.37 976.270  14
  -4   9  -2 2789.30 866.573  12
  -4   9  -2 4025.16 875.299  11
   4  -9   3 952.181 779.377   3
   4   9   3 788.761 723.308  10
   4   9   3 510.238 709.813   6
   4  -9   3 961.967 770.484   8
  -4  -9  -3 1253.30 733.595  16
   4  -9   3 224.865 779.282  15
  -4  -9  -3 2107.06 971.427  14
  -4   9  -3 1996.88 908.938  12
  -4   9  -3 1417.98 675.430  11
  -4  -9  -3 1836.33 752.955   4
   4  -9   4 5690.58 1164.50   3
   4   9   4 4099.09 993.508  10
  -4  -9  -4 8524.38 1364.37   9
   4   9   4 7305.26 1156.82   6
   4  -9   4 8770.54 1341.32   8
  -4  -9  -4 7284.37 1223.48  16
   4  -9   4 8803.92 1309.18  15
  -4  -9  -4 5468.18 1303.59  14
  -4   9  -4 6213.94 1248.27  12
   4 -10  -6 11911.2 1470.14   5
  -4  10   6 8156.14 1212.31   1
  -4 -10   6 9422.40 1254.74   4
   4 -10  -6 9890.39 1271.66  16
  -4  10   6 8393.69 1302.76  13
   4  10  -6 9701.94 1183.38  12
  -4  10   6 8724.17 1289.19  11
   4  10  -6 8681.06 1306.33   2
   4 -10  -5 5919.68 1067.14   5
  -4 -10   5 6852.54 1160.54   4
  -4 -10   5 5474.05 1106.62   8
  -4  10   5 3360.99 837.169   1
   4 -10  -5 5149.73 972.483  16
  -4  10   5 5380.93 1032.94  13
   4  10  -5 6565.13 1066.49  12
  -4  10   5 5450.66 1080.63  11
   4  10  -5 4784.32 1036.61   2
   4 -10  -4 30731.7 2202.09   5
   4  10  -4 35306.9 2151.43   2
  -4 -10   4 33264.2 2188.76   4
  -4 -10   4 37663.5 2317.06   8
  -4  10   4 30206.8 1861.57   1
   4 -10  -4 32249.5 1945.98  16
   4 -10  -4 33853.9 2022.67   3
  -4  10   4 32125.0 1962.23  12
   4  10  -4 35536.3 2195.32  12
  -4  10   4 34845.6 2285.91  11
   4 -10  -3 17280.8 1650.12   5
   4  10  -3 14705.7 1377.48   2
  -4 -10   3 20210.7 1690.45   4
  -4 -10   3 17486.7 1562.99   8
   4 -10  -3 17553.2 1462.08   3
   4  10  -3 15606.2 1488.49  12
  -4  10   3 14773.0 1342.74  12
  -4  10   3 16873.0 1596.22  11
   4  10  -2 42475.1 2375.50  10
  -4 -10   2 40104.2 2120.32   5
   4  10  -2 40819.5 2097.95   2
  -4 -10   2 39697.5 2403.66   4
  -4 -10   2 41281.0 2364.06   8
   4 -10  -2 43379.4 2380.70   3
   4  10  -2 39292.1 2398.30  12
  -4  10   2 42163.1 2320.42  12
  -4  10   2 40241.4 2443.17  11
   4  10  -1 5364.31 1019.65  10
  -4 -10   1 6212.09 925.057   5
  -4 -10   1 7111.98 1091.18   4
  -4 -10   1 5732.59 981.652   8
  -4  10   1 5958.84 993.388  12
  -4  10   1 4536.18 964.578  11
   4 -10  -1 5586.79 994.403   3
   4  10   0 10648.1 1284.82  10
  -4 -10   0 7905.84 1127.57   4
  -4 -10   0 9798.62 1146.84   8
  -4 -10   0 12006.7 1422.70  14
  -4  10   0 12722.8 1368.31  12
  -4  10   0 10841.0 1280.32  11
   4 -10   0 10368.9 1279.07   3
   4  10   1 7467.94 1127.44  10
  -4 -10  -1 8190.14 1149.76   4
  -4 -10  -1 6234.99 973.106   8
  -4 -10  -1 8519.45 1236.60  14
  -4  10  -1 8291.96 1243.22  12
  -4  10  -1 7315.77 1119.36  11
   4 -10   1 9327.52 1264.10   3
   4  10   2 17376.8 1739.07  10
   4 -10   2 18166.7 1590.37   8
  -4 -10  -2 18113.2 1539.86  16
  -4 -10  -2 19607.5 1698.90   4
  -4 -10  -2 15196.7 1675.30  14
   4 -10   2 22064.8 1842.52   3
  -4  10  -2 18847.4 1751.63  12
  -4  10  -2 19793.7 1672.00  11
   4 -10   3 3365.33 1027.51   3
   4  10   3 2453.15 955.350  10
  -4 -10  -3 4868.40 1056.96   9
  -4 -10  -3 4205.35 971.805   4
   4 -10   3 3195.66 909.179   8
  -4 -10  -3 4798.77 976.388  16
   4 -10   3 5290.27 1084.31  15
  -4 -10  -3 2395.64 1074.90  14
  -4  10  -3 2924.47 986.495  12
  -4  10  -3 3862.62 858.849  11
   4 -10   4 16538.3 1761.44   8
  -4 -10  -4 13040.2 1498.63  16
   4 -11  -5 22625.2 1978.50   5
   4  11  -5 24096.6 1997.62   2
  -4 -11   5 20080.0 1826.36   4
   4  11  -5 21445.1 1824.97  12
  -4 -11   4-984.956 781.595   4
   4 -11  -4 1032.35 782.814   5
  -4 -11   4 467.468 758.839   8
   4  11  -4 1767.82 831.342  12
   4  11  -4 156.804 664.514   2
  -4  11   4 177.109 698.945  11
   4 -11  -3 1.28379 782.913   5
  -4 -11   3 337.828 784.985   4
  -4 -11   3-260.415 682.344   8
   4  11  -3 1002.81 802.855  12
  -4  11   3 1612.89 699.122  12
   4 -11  -3 1096.99 696.373   3
  -4  11   3 856.328 836.691  11
   4  11  -3 377.138 595.746   2
  -4 -11   2 746.681 604.236   5
  -4 -11   2 945.080 820.365   4
  -4 -11   2 1427.07 745.684   8
   4  11  -2 1493.57 729.289  12
  -4  11   2-193.705 679.164  12
   4 -11  -2 795.856 677.952   3
  -4  11   2 669.974 684.657  11
   4  11  -1 2391.92 842.773  10
  -4 -11   1 3742.66 849.437   5
  -4 -11   1 3286.23 999.021   4
  -4 -11   1 2080.83 684.500   8
  -4 -11   1 2728.17 981.101  14
  -4  11   1 2513.41 840.928  12
  -4  11   1 2217.17 854.245  11
   4 -11  -1 2490.07 866.592   3
   4  11   0 1274.83 799.762  10
  -4 -11   0 219.270 702.749   5
  -4 -11   0 577.700 887.343   4
  -4 -11   0 1749.97 715.025   8
  -4 -11   0-436.658 879.880  14
  -4  11   0 971.100 838.884  12
  -4  11   0 713.841 705.515  11
   4 -11   0 1420.95 811.610   3
   4  11   1 2145.26 878.114  10
  -4 -11  -1 639.110 729.066   4
  -4 -11  -1 622.631 885.768  14
  -4  11  -1 1295.41 767.050  12
  -4  11  -1 692.865 595.381  11
   4 -11   1 699.376 802.778   3
  -4 -11  -2 6849.84 1081.31  16
  -4 -11  -2 4717.64 1083.06   4
  -4  11  -2 5664.92 1125.98  12
  -4  11  -2 4191.91 941.695  11
   4 -11   2 6017.28 1170.48   3
   4 -11   3 7180.94 1230.52   8
  -4 -11  -3 9337.87 1256.01  16
  -4 -11  -3 9163.64 1309.43   4
  -4  11  -3 7972.54 1171.53  11
   4  12  -4 2278.77 801.960  12
   4  12  -4 2612.78 882.340   2
  -4 -12   3 5047.57 1058.45   8
   4  12  -3 5250.82 1076.52  12
  -4  12   3 4952.21 1037.50  12
  -4 -12   2 16953.9 1565.85   9
  -4 -12   2 19285.9 1723.00   8
   4 -12  -2 18319.2 1671.37   3
   4  12  -2 18788.7 1789.13  12
  -4  12   2 22584.8 1849.46  12
  -4 -12   1 5659.81 1046.40   9
  -4 -12   1 7506.71 1098.78   5
  -4 -12   1 4742.96 961.466   8
  -4  12   1 3922.18 988.671  12
  -4  12   1 5190.83 1125.44  11
   4 -12  -1 5432.60 1052.93   3
  -4 -12   0 23220.4 1975.20   9
  -4 -12   0 24057.7 1935.03   5
   4 -12   0 24591.3 2005.83   3
  -4  12   0 22597.6 1980.61  12
  -4  12   0 21183.2 1926.23  11
  -4 -12  -1 4717.65 1084.55   5
  -4  12  -1 4654.00 1024.29  11
  -4  12  -2 2759.26 874.204  11
  -4 -13   2 396.605 744.940   8
  -4 -13   1 22404.1 1932.33   9
   4 -13  -1 16011.4 1667.92   3
   5   0 -10 431.451 710.433   2
   5   0  -9 51398.3 2826.61   2
   5   0  -9 56043.2 3021.78  16
  -5   0   9 55610.3 3141.01  13
  -5   0   9 55883.0 2978.77   1
   5   0  -8 684.255 612.797   2
  -5   0   8 108.922 563.934   8
   5   0  -8 415.703 935.708  16
  -5   0   7 15040.8 1170.11   8
   5   0  -7 15162.8 1424.77  16
   5   0  -7 14934.5 1343.79   2
   5   0  -6-4.91405 548.965   2
  -5   0   6-23.5168 466.354   8
   5   0  -6 1028.18 637.714  16
  -5   0   6 565.815 367.682  11
   5   0  -5 5741.85 837.896   2
  -5   0   5 4408.15 665.274   8
   5   0  -5 4906.12 884.650  16
  -5   0   5 5139.87 828.669   7
  -5   0   5 4708.62 682.588  11
   5   0  -4 6665.98 892.122   2
  -5   0   4 6153.78 842.721   7
   5   0  -4 6250.87 463.502  10
   5   0  -4 6616.17 442.428   6
  -5   0   3 14625.9 631.404   5
  -5   0   3 14526.2 1126.29   7
  -5   0   3 15778.9 665.622  12
   5   0  -3 11496.6 1042.61   2
   5   0  -3 15136.0 812.147   6
   5   0  -3 14013.1 833.937  10
   5   0  -2 128937. 4101.85   3
  -5   0   2 135759. 3626.93  14
  -5   0   2 133687. 4199.67   7
   5   0  -2 135072. 3839.28   6
   5   0  -2 135115. 3869.66  10
   5   0  -1 499.230 462.124   6
  -5   0   1 81.7502 374.861  14
  -5   0   1 221.620 506.009   7
   5   0  -1 723.165 520.173   3
   5   0   0 48468.0 1899.65  15
  -5   0   0 47195.0 1852.01  14
   5   0   0 47184.3 1987.56   3
  -5   0   0 46442.2 2114.26   7
   5   0   0 47327.0 2077.82   6
   5   0   1 15134.3 1027.53  15
   5   0   1 13893.0 1006.31   3
  -5   0  -1 13375.1 1142.09   7
   5   0   1 14075.4 1197.56   6
   5   0   2 5426.55 923.693   6
   5   0   2 7111.52 825.500  15
   5   0   2 6335.33 398.419  13
  -5   0  -2 7570.57 942.110   7
   5   0   2 6980.21 787.767   3
   5   0   3 49215.7 2084.86   3
  -5   0  -3 51221.4 2482.54   7
   5   0   3 46381.5 2403.28   6
   5   0   3 43778.5 2348.53  10
  -5   0  -4 47292.6 2552.20   7
   5   0   4 41977.9 2467.44   6
   5   0   4 43950.0 2473.94  10
   5   0   5 5612.20 1067.79   6
   5   0   5 8333.05 1193.31  10
  -5   0  -5 6264.49 1089.67   7
   5   0   6 11393.4 1411.98   6
   5   0   6 11487.5 1478.22  10
  -5   0  -6 13115.6 1427.31  16
  -5   0  -6 11510.0 1465.95   7
   5   1  -9 6322.92 1116.82   2
   5  -1  -9 5536.35 1040.64   2
  -5  -1   9 5188.08 1055.87   1
  -5   1   9 5726.15 1070.57   1
  -5   1   9 7594.25 1419.52  13
   5   1  -9 4832.90 1030.32  16
   5  -1  -9 5567.59 1151.82  16
   5  -1  -8 23811.6 1734.42   2
  -5  -1   8 22115.4 1572.42   8
   5  -1  -8 22780.7 1872.50  16
   5   1  -8 21971.5 1749.31  16
   5   1  -8 22650.1 1735.16   2
  -5   1   8 19457.6 1756.48  13
   5   1  -7 9974.10 1145.70   2
  -5   1   7 10626.5 971.979   8
  -5  -1   7 11736.4 1123.39   8
   5  -1  -7 10769.9 1245.13  16
   5   1  -7 9816.88 1200.65  16
   5  -1  -7 13216.7 1268.20   2
  -5   1   7 12116.2 1305.49  13
  -5   1   6 13892.7 1021.48   8
  -5  -1   6 15975.7 1199.82   8
   5  -1  -6 16254.8 1400.32  16
   5   1  -6 13671.8 1259.72  16
   5   1  -6 14663.0 1283.40   2
   5  -1  -6 13168.6 1204.70   2
  -5   1   6 14129.7 1262.30  13
  -5  -1   6 15750.9 881.135  11
  -5   1   6 14492.5 967.283  11
  -5  -1   5 47064.4 2072.95   8
  -5   1   5 42974.3 1846.19   8
   5  -1  -5 42232.3 2178.52  16
   5   1  -5 45692.9 2194.69  16
  -5  -1   5 42849.0 2145.05   7
  -5   1   5 43535.2 2183.01   7
   5   1  -5 39931.1 2113.06   2
  -5   1   5 46021.0 2064.70  13
   5  -1  -5 45673.8 2150.19   2
  -5   1   5 44330.6 1865.92  11
   5   1  -4 39700.1 1385.78   6
   5  -1  -4 39492.4 1991.66  16
  -5  -1   4 38522.8 1933.50   7
  -5   1   4 40646.0 2009.94   7
  -5   1   4 38689.7 1724.00  13
   5   1  -4 37779.3 1916.95   2
   5  -1  -4 38876.1 1922.74   2
  -5  -1   4 38471.6 1096.50  12
   5  -1  -4 41681.0 1361.78  10
   5  -1  -4 39070.3 1226.85   6
   5   1  -4 39779.8 1354.69  10
  -5  -1   3 17556.4 596.410   5
  -5   1   3 19653.8 754.344  14
  -5  -1   3 19844.5 1308.07   7
  -5   1   3 18274.7 1250.74   7
  -5   1   3 19365.7 981.261  13
  -5  -1   3 18772.3 814.457  12
   5   1  -3 18444.5 1277.53   2
   5  -1  -3 17803.4 1248.03   2
   5  -1  -3 20166.6 930.737   6
   5   1  -3 18951.2 965.047  10
   5   1  -3 18808.6 962.372   6
  -5   1   2 120882. 3448.61   5
   5  -1  -2 128314. 3938.29   3
  -5  -1   2 127085. 3519.54  14
  -5   1   2 120773. 3169.63  14
  -5  -1   2 125261. 3935.92   7
  -5   1   2 117229. 3899.50   7
  -5   1   2 124962. 3156.67  13
   5   1  -2 122726. 3870.33   2
   5  -1  -2 122349. 3558.00   6
   5   1  -2 116689. 3572.36   6
   5   1  -2 120683. 3604.90  10
   5   1  -1 82020.6 2718.22   3
  -5  -1   1 77112.5 2533.77  14
   5  -1  -1 74323.2 2752.23   3
  -5   1   1 77210.1 2314.30  14
  -5  -1   1 77827.2 2856.86   7
  -5   1   1 81696.3 2909.42   7
  -5  -1   1 77636.0 2017.25  13
   5   1  -1 74976.8 2676.23   6
   5   1  -1 78001.5 2721.65  10
   5   1   0 14471.6 889.840  15
   5   1   0 13245.0 960.353   3
  -5  -1   0 14508.7 1011.39  14
   5  -1   0 13164.9 1032.20   3
  -5  -1   0 13153.9 1163.03   7
  -5   1   0 12363.8 1112.53   7
   5   1   0 14092.1 1113.13   6
   5   1   0 11795.7 1088.07  10
   5   1   1 17793.2 1143.03  15
  -5  -1  -1 20887.6 1343.38  14
   5   1   1 19781.6 1163.04   3
   5  -1   1 19667.9 1251.82   3
  -5  -1  -1 22835.8 1456.45   7
  -5   1  -1 17513.3 1390.76   7
   5  -1   1 16677.9 1174.36  15
   5   1   1 17283.0 1315.39   6
   5   1   1 18074.1 1376.74  10
   5  -1   2 33227.7 1781.30  15
   5   1   2 35891.9 1603.24   3
   5   1   2 34594.2 1206.99  13
   5  -1   2 34435.9 1063.60  13
  -5  -1  -2 33860.2 2012.28   7
   5  -1   2 37629.4 1770.03   3
  -5   1  -2 32899.7 1907.82   7
   5   1   2 33563.3 1904.52   6
   5   1   2 31437.8 1901.25  10
   5  -1   3 29736.1 1751.61  15
   5   1   3 28822.2 1442.83   3
  -5  -1  -3 26159.6 1836.67   7
  -5   1  -3 27998.2 1830.69   7
   5  -1   3 31018.0 1654.34   3
   5   1   3 30064.6 1898.70   6
   5   1   3 27596.1 1832.59  10
   5   1   4 1269.06 685.357   6
   5   1   4 2216.76 743.594  10
  -5  -1  -4 1538.70 646.021   7
  -5   1  -4 3665.30 903.254   7
   5  -1   4 2804.69 653.533   3
   5  -1   5 5352.12 1101.23   6
   5  -1   5 4843.32 1007.10  10
   5   1   5 4977.79 1012.26   6
   5   1   5 5128.98 1061.22  10
  -5  -1  -5 5095.47 1032.90   7
  -5   1  -5 4038.06 966.288   7
   5  -1   5 6460.17 889.137   3
  -5  -1  -6 22998.6 1935.43  16
  -5   1  -6 25642.3 1953.49  16
  -5  -1  -6 25280.5 2147.31   7
  -5   1  -6 27913.7 2185.09   7
   5  -1   6 26803.3 2157.12   6
   5   1   6 23794.2 1980.98   6
   5  -1   6 25544.5 2046.36  10
   5   1   6 27174.6 2096.72  10
   5   2  -9 2310.84 883.505   2
   5  -2  -9 1346.53 666.078   2
  -5   2   9 2925.37 964.331   1
  -5  -2   9 2228.57 864.997   8
   5   2  -9 2172.29 819.676  16
  -5   2   9 3054.88 1109.31  13
  -5  -2   9 411.617 704.330   1
   5  -2  -9 576.741 765.924  16
   5   2  -8 9104.86 1176.43   2
   5  -2  -8 8754.17 1096.43   2
  -5  -2   8 12004.5 1286.06   8
   5   2  -8 8357.78 1151.47  16
   5  -2  -8 11424.7 1356.10  16
  -5   2   8 7706.53 1210.67  13
  -5   2   8 9209.24 1280.57   1
   5   2  -7 4372.88 859.744   2
   5  -2  -7 5804.93 896.617   2
  -5  -2   7 4563.96 844.168   8
   5   2  -7 5502.54 929.869  16
   5  -2  -7 4570.38 998.782  16
  -5   2   7 7107.79 1062.77  13
   5   2  -6 1637.85 717.512   2
   5  -2  -6 1726.94 385.903   5
   5  -2  -6 1100.70 566.709   2
  -5   2   6 1895.33 443.396   8
  -5  -2   6 1532.39 649.683   8
   5   2  -6 1061.96 630.759  16
   5  -2  -6 2192.06 817.690  16
  -5   2   6 2488.59 731.440  13
  -5   2   6 1576.99 480.891  11
   5  -2  -5 49808.4 1680.71   5
  -5  -2   5 45759.9 2152.98   8
  -5   2   5 49093.6 1855.57   8
   5  -2  -5 44854.3 2300.33  16
  -5  -2   5 49163.6 2300.91   7
  -5   2   5 46870.1 2270.51   7
   5   2  -5 47899.4 2281.13   2
  -5   2   5 46306.4 2116.39  13
   5  -2  -5 44008.6 2145.12   2
  -5   2   5 46299.4 1999.64  11
   5  -2  -5 45127.1 1327.16  10
   5   2  -4 5504.28 497.356  10
  -5  -2   4 5144.28 539.517   6
   5   2  -4 3920.63 813.636   2
   5  -2  -4 5501.81 890.543  16
  -5  -2   4 5852.11 797.541   8
   5  -2  -4 4580.01 808.992   2
  -5   2   4 4638.45 678.241  13
  -5  -2   4 4440.26 747.202   7
  -5   2   4 5526.92 867.707   7
  -5  -2   4 5257.96 410.064  12
  -5   2   4 5082.48 782.953  11
   5  -2  -4 5333.56 380.842   6
   5  -2  -3 28950.2 1642.82   3
  -5  -2   3 28372.6 1573.54   7
  -5   2   3 30014.4 1646.09   7
  -5   2   3 28581.5 1267.45  13
   5   2  -3 29130.0 1627.85   2
  -5  -2   3 29722.9 1199.58  12
  -5   2   3 31377.6 1090.05  12
   5   2  -3 30174.0 1309.63  10
   5   2  -3 31390.4 1352.59   6
   5  -2  -2 80558.4 2953.78   3
  -5  -2   2 77042.3 2872.46   7
  -5   2   2 79416.0 2936.49   7
  -5   2   2 84591.3 2270.20  13
   5   2  -2 80645.7 2909.67   2
   5   2  -2 80748.4 2700.29   6
   5   2  -2 76085.6 2651.52  10
   5   2  -1 58938.9 1768.84  15
  -5  -2   1 56925.3 2172.05  14
   5  -2  -1 61917.9 2419.46   3
  -5  -2   1 55228.5 2302.65   7
  -5   2   1 55884.2 2351.40   7
  -5  -2   1 59355.9 1765.72  13
   5   2  -1 58436.3 2264.91   2
   5   2  -1 54720.5 2202.69   6
   5   2  -1 55673.0 2234.98  10
   5   2   0 58082.5 2158.59   3
   5  -2   0 51214.0 1880.06  14
  -5  -2   0 60151.7 2322.72  14
  -5  -2   0 60381.0 2444.45   7
   5  -2   0 55820.4 2338.45   3
  -5   2   0 55393.1 2393.41   7
  -5  -2   0 56095.0 1692.89  13
   5   2   0 66118.9 2475.63   6
   5   2   0 66995.4 2483.73  10
   5  -2   1 63431.3 2610.96  15
   5   2   1 72772.6 2409.43   3
  -5  -2  -1 78028.6 2809.48  14
  -5  -2  -1 74137.8 2819.97   7
  -5   2  -1 58675.4 2670.19   7
   5  -2   1 63509.8 2630.06   3
   5   2   1 72776.6 2826.45   6
   5   2   1 73622.8 2852.03  10
   5  -2   2 43301.9 2116.20  15
  -5  -2  -2 44291.4 2191.08  14
   5   2   2 40439.6 1663.34   3
  -5  -2  -2 43619.5 2228.37   7
  -5   2  -2 42605.8 2188.75   7
   5  -2   2 42706.0 2055.53   3
   5   2   2 44037.0 2293.04   6
   5   2   2 49325.0 2401.11  10
   5   2   3-24.7793 676.040  10
   5   2   3-133.970 713.079   6
   5  -2   3 101.736 498.417  15
   5   2   3 638.493 333.228  13
  -5  -2  -3 203.470 644.893   7
  -5   2  -3 299.278 577.333   7
   5   2   3 440.864 325.424   3
   5  -2   3 227.582 489.602   3
  -5  -2  -4 25741.6 1823.92   7
  -5   2  -4 24993.6 1857.76   7
   5  -2   4 31404.4 1804.60   3
   5   2   4 27195.1 1908.30   6
   5   2   4 26500.9 1875.23  10
   5   2   5 13295.1 1446.03  10
  -5  -2  -5 16137.9 1596.96   7
   5  -2   5 16288.0 1369.65   3
  -5   2  -5 12829.0 1526.84   7
   5   2   5 15571.6 1525.79   6
   5   2   6 1174.43 860.283  10
   5   2   6 1593.51 872.667   6
  -5  -2  -6 3166.02 979.626  16
  -5   2  -6 3497.59 891.189  16
  -5  -2  -6 1465.03 867.073   7
  -5   2  -6 617.588 852.291   7
   5  -2   6 1461.41 859.439   6
   5  -2   6 4342.87 1065.97  10
   5   3 -10 10888.8 1401.73  16
   5   3  -9 7163.01 1271.37   2
  -5  -3   9 8051.85 1187.86   8
   5  -3  -9 10287.5 1410.30  16
   5   3  -9 7545.01 1166.02  16
  -5  -3   9 8387.06 1155.27   1
  -5   3   9 6973.94 1277.61  13
  -5   3   9 8640.89 1314.78   1
  -5  -3   8 21386.9 1702.30   8
   5   3  -8 17563.8 1614.74   2
   5  -3  -8 22805.0 1891.00  16
   5   3  -8 17707.4 1539.14  16
   5  -3  -8 18647.0 1501.26   2
  -5   3   8 19885.7 1780.67  13
  -5   3   8 20842.4 1773.98   1
  -5  -3   7 16265.8 1422.24   8
   5   3  -7 14630.7 1317.86  16
   5   3  -7 15009.0 1448.46   2
   5  -3  -7 12764.8 1381.02  16
   5  -3  -7 14352.7 1262.13   2
  -5   3   7 15542.8 1465.90  13
  -5   3   7 13981.0 1066.37  11
   5  -3  -6 143207. 4074.79   5
  -5  -3   6 142724. 4719.20   8
   5   3  -6 133937. 4750.00   2
   5  -3  -6 136053. 4822.16  16
  -5   3   6 140599. 4675.28  13
   5  -3  -6 135761. 4561.74   2
  -5   3   6 138275. 4345.87  11
   5  -3  -5 74424.3 2498.27   5
  -5   3   5 79643.5 2454.52   8
  -5  -3   5 72260.3 2985.27   8
   5  -3  -5 70389.2 3039.68  16
  -5   3   5 71141.1 2970.72   7
   5   3  -5 72756.4 3030.26   2
  -5   3   5 76379.2 2882.64  13
   5  -3  -5 76243.2 2946.88   2
  -5   3   5 79737.0 2877.73  11
   5   3  -4 9883.44 706.491  10
   5   3  -4 9377.39 1000.08   2
  -5  -3   4 9295.74 994.688   8
   5  -3  -4 7910.20 947.961   2
   5  -3  -4 7561.98 1008.77  16
  -5   3   4 9730.21 900.103  13
  -5   3   4 8845.24 414.481  12
  -5  -3   4 6995.12 860.119   7
  -5   3   4 10168.4 1001.56   7
  -5  -3   4 8218.95 619.776  12
  -5   3   4 9242.27 972.856  11
   5   3  -3 68517.0 2370.07   6
   5  -3  -3 65116.4 2678.95   3
  -5  -3   3 68430.8 2634.76   7
  -5   3   3 67633.2 2651.60   7
  -5   3   3 67993.5 2263.90  13
   5   3  -3 67212.5 2655.22   2
  -5   3   3 67658.3 2054.85  12
  -5   3   3 66269.2 2679.00  11
   5   3  -3 66601.9 2298.49  10
  -5  -3   2 19772.3 1284.95   7
   5  -3  -2 20878.8 1386.32   3
  -5   3   2 22543.6 1379.45   7
  -5   3   2 22634.1 950.754  13
   5   3  -2 24634.5 1383.72   2
  -5   3   2 20634.6 1105.49  12
   5   3  -2 21167.4 1240.58  10
   5   3  -2 21411.6 1247.52   6
   5   3  -1 4666.16 726.171  10
   5   3  -1 6088.66 750.892   6
   5   3  -1 6143.31 731.140   2
  -5  -3   1 5091.97 716.907  14
  -5  -3   1 6849.08 556.962  13
  -5  -3   1 7169.19 811.993   7
  -5   3   1 6252.78 795.640   7
   5  -3  -1 6484.57 869.151   3
   5  -3   0 13520.2 786.708  14
  -5  -3   0 13457.8 1144.25  14
  -5  -3   0 11965.7 1054.39   7
  -5   3   0 12780.6 1118.47   7
   5  -3   0 14434.7 1174.67   3
  -5  -3   0 14395.2 797.345  13
   5   3   0 15303.7 1062.25   2
   5   3   0 13954.8 1146.55   6
   5   3   0 14362.1 1194.65  10
  -5  -3  -1 19492.7 1470.83  14
  -5  -3  -1 20453.1 1385.84   7
  -5   3  -1 14794.8 1271.03   7
  -5  -3  -1 18447.3 961.789  13
   5  -3   1 17373.3 1298.27   3
   5   3   1 19232.3 1431.21   6
   5   3   1 16775.5 1327.85  10
   5   3   2 876.268 671.468  10
   5   3   2 1382.16 719.393   6
   5  -3   2 2478.31 675.626  15
  -5  -3  -2 1559.10 823.286  14
  -5  -3  -2 1336.33 614.303   7
  -5   3  -2 1826.02 605.955   7
   5   3   2 2153.51 382.995   3
   5  -3   2 1850.60 610.474   3
   5   3   3 854.574 674.571  10
   5   3   3 1953.77 767.444   6
   5  -3   3 1583.08 669.255  15
  -5  -3  -3 1202.19 891.587  14
   5   3   3 1018.79 402.731  13
  -5  -3  -3 1568.08 627.338   7
  -5   3  -3 617.223 591.950   7
   5  -3   3 1385.85 622.673   3
   5   3   4-190.857 688.743  10
   5   3   4-321.036 773.519   6
   5  -3   4 1196.11 759.894  15
  -5  -3  -4-186.580 602.071   7
  -5   3  -4 49.1859 644.168   7
   5  -3   4 283.073 609.529   3
   5   3   5 13797.5 1456.90  10
   5   3   5 12351.7 1417.28   6
   5  -3   5 17007.6 1493.69   3
  -5  -3  -5 13961.7 1482.76   7
  -5   3  -5 13649.4 1496.27   7
   5  -3   6 18624.7 1633.01   3
  -5  -3  -6 17654.3 1743.16   7
   5   3   6 20394.8 1867.93   6
   5   3   6 20525.1 1817.56  10
  -5  -4   9 24550.1 2008.82   8
   5   4  -9 26491.4 1945.53  16
  -5   4   9 25390.1 2143.07  13
   5   4  -8 5318.07 1075.09   2
   5  -4  -8 4141.21 789.258   2
  -5  -4   8 5198.06 1032.74   8
   5  -4  -8 4704.82 1049.14  16
   5   4  -8 4553.11 916.668  16
  -5   4   8 4616.63 994.087  13
  -5   4   8 3242.11 927.893   1
   5   4  -7 2989.61 818.686   2
   5  -4  -7 2231.36 657.331   2
  -5  -4   7 2660.78 862.527   8
  -5   4   7 3046.79 920.676  13
  -5   4   7 1921.79 573.617  11
   5  -4  -7 3661.02 915.305  16
   5   4  -6 2625.51 797.078   2
   5  -4  -6 3366.16 591.309   5
   5  -4  -6 4389.86 782.862   2
  -5  -4   6 3784.56 868.922   8
   5  -4  -6 3408.73 902.945  16
  -5  -4   6 4047.77 674.140   4
  -5   4   6 4382.17 880.588  13
  -5   4   6 3698.12 702.285  11
   5  -4  -5 47236.2 1975.99   5
  -5  -4   5 53736.8 2481.90   8
  -5  -4   5 47688.3 2099.85   4
   5  -4  -5 45370.6 2378.29  16
   5   4  -5 48223.7 2399.33   2
  -5   4   5 48023.5 2298.17   7
  -5   4   5 47155.0 2198.46  13
   5   4  -5 49713.4 1785.34  12
   5  -4  -5 46104.0 2220.19   2
  -5   4   5 50274.8 2255.82  11
   5   4  -4 38557.5 1581.33  10
  -5   4   4 36267.4 1906.24   7
  -5  -4   4 36444.3 1976.06   8
  -5  -4   4 37690.9 1832.64   4
   5  -4  -4 37693.5 1999.49  16
   5  -4  -4 37307.6 1983.31   3
  -5  -4   4 36371.2 1912.26   7
   5   4  -4 34690.8 1922.06   2
  -5   4   4 38355.0 1758.70  13
  -5   4   4 38019.8 1293.55  12
  -5   4   4 37028.6 1940.66  11
   5   4  -3 19347.7 1158.36  10
  -5  -4   3 21031.7 751.620   5
  -5  -4   3 19222.0 1322.01   4
   5  -4  -3 19814.3 1354.62  16
  -5  -4   3 21046.2 1346.97   7
   5  -4  -3 21512.3 1442.82   3
  -5   4   3 18890.2 1302.09   7
   5   4  -3 19739.9 1346.31   2
  -5   4   3 20121.7 1131.13  13
  -5   4   3 19325.4 981.592  12
  -5   4   3 20129.2 1460.41  11
   5   4  -2 522.643 478.717  10
   5   4  -2 777.351 471.471   6
   5   4  -2-55.7278 499.377   2
  -5  -4   2 1235.68 665.551   4
  -5  -4   2 780.121 501.891   7
  -5   4   2 986.565 550.399   7
  -5   4   2 702.064 426.069  12
  -5   4   2 1583.52 795.074  11
   5  -4  -2 1252.17 693.245   3
   5  -4  -1 20507.7 698.221  14
  -5  -4   1 21150.2 1342.06  14
  -5  -4   1 19322.2 1262.22   7
  -5   4   1 20364.7 1338.65   7
   5  -4  -1 20703.8 1418.53   3
   5  -4  -1 21139.9 909.784  13
   5   4  -1 18253.7 1215.23   2
  -5   4   1 19461.9 1238.64  12
   5   4  -1 19934.3 1320.40   6
   5   4  -1 18492.5 1297.65  10
  -5  -4   0 37908.2 1953.00  14
  -5  -4   0 40616.6 1912.82   7
  -5   4   0 43017.1 2023.48   7
   5  -4   0 41639.2 2079.69   3
   5  -4   0 40997.6 1326.58  13
   5   4   0 39821.8 1785.11   2
   5   4   0 42058.8 2047.70   6
   5   4   0 41789.8 2044.35  10
   5   4   1 11297.1 1158.31  10
   5   4   1 9471.00 1106.21   6
  -5  -4  -1 10608.1 1175.66  14
  -5  -4  -1 9606.92 1017.92   7
   5  -4   1 10610.9 1081.56   3
   5   4   1 12323.2 898.638   2
  -5   4  -1 10680.7 1048.24   7
   5   4   2 9200.17 1075.99  10
   5   4   2 9521.34 1114.67   6
   5  -4   2 10294.6 1138.32  15
  -5  -4  -2 9249.10 1215.82  14
   5   4   2 9499.13 765.536   2
  -5  -4  -2 8008.32 979.148   7
  -5   4  -2 8052.51 1035.46   7
   5  -4   2 11295.8 1131.72   3
   5  -4   3 13714.1 1334.36  15
  -5  -4  -3 14047.3 1539.45  14
   5   4   3 15059.0 1064.04  13
  -5  -4  -3 15035.8 1301.89   7
  -5   4  -3 16268.3 1417.12   7
   5  -4   3 15016.4 1337.14   3
   5   4   3 15258.0 1448.68   6
   5   4   3 14482.4 1390.95  10
   5  -4   4 12390.0 1283.67   3
   5  -4   4 12651.9 1398.41  15
  -5  -4  -4 12309.0 1280.90   7
  -5   4  -4 12635.7 1405.81   7
   5   4   4 13571.2 1412.18   6
   5   4   4 13833.6 1404.68  10
   5  -4   5 14265.2 1443.96   3
   5   4   5 14996.4 1531.98  10
   5   4   5 13499.3 1517.84   6
  -5  -4  -5 11965.7 1501.47  16
  -5  -4  -5 13932.9 1454.60   7
  -5   4  -5 14363.0 1535.54   7
   5  -4   6 7461.76 1138.41   3
   5   4   6 5896.36 1105.86  10
  -5  -4  -6 5374.20 1034.76   7
  -5  -5   9 9617.88 1363.10   8
  -5   5   8 2303.83 912.206   1
   5  -5  -8 5532.40 1173.95  16
   5   5  -8 3621.98 933.281   2
  -5  -5   8 2957.17 957.283   8
  -5   5   8 3567.06 1006.05  13
  -5   5   7 2072.44 799.944   1
   5   5  -7 3413.35 942.110   2
   5  -5  -7 3673.57 719.886   2
  -5  -5   7 3807.44 935.421   8
   5  -5  -7 3785.07 951.940  16
  -5   5   7 2668.13 906.733  13
  -5   5   7 2666.17 682.835  11
   5  -5  -6 49338.8 2194.24   5
  -5  -5   6 52042.5 2626.05   8
  -5  -5   6 49595.5 2229.89   4
   5  -5  -6 53442.9 2680.56  16
   5   5  -6 48060.1 2556.87   2
  -5   5   6 53178.6 2555.72  13
   5  -5  -6 44809.5 2304.21   2
  -5   5   6 48979.7 2347.37  11
   5  -5  -5 10448.6 1041.31   2
   5   5  -5 8603.86 1090.14   2
   5  -5  -5 10968.0 975.998   5
  -5  -5   5 10732.0 1016.83   4
  -5  -5   5 11539.5 1206.27   8
   5  -5  -5 10908.7 1190.68  16
  -5   5   5 9819.34 1046.96   7
  -5   5   5 8531.71 1001.48  13
   5   5  -5 9931.89 809.385  12
  -5   5   5 10293.2 1074.14  11
   5   5  -4 60293.4 2251.68  10
   5  -5  -4 63177.1 2443.63   5
  -5  -5   4 61277.2 2711.38   8
  -5  -5   4 60516.2 2540.88   4
   5  -5  -4 53927.6 2533.94  16
   5   5  -4 58699.2 2605.39   2
  -5  -5   4 58763.9 2499.69   7
   5  -5  -4 57458.7 2612.09   3
  -5   5   4 61851.1 2538.45   7
  -5   5   4 56566.8 2374.96  13
  -5   5   4 58673.7 1969.08  12
  -5   5   4 60008.9 2637.86  11
   5   5  -3 78928.7 2762.23  10
  -5  -5   3 74132.8 2197.08   5
  -5  -5   3 79435.0 3113.88   8
  -5  -5   3 74658.4 2951.00   4
   5  -5  -3 74202.2 2919.41  16
  -5  -5   3 75853.4 2844.19   7
   5   5  -3 81196.5 3011.53   2
  -5   5   3 78896.2 2919.27   7
   5  -5  -3 73458.2 3020.44   3
  -5   5   3 76746.0 2677.66  13
  -5   5   3 79626.3 2551.57  12
  -5   5   3 74362.5 3049.24  11
   5   5  -2 105008. 3544.46  10
   5   5  -2 105259. 3606.91   6
  -5  -5   2 104058. 3703.12   4
  -5  -5   2 107600. 3541.62   7
  -5   5   2 109116. 3608.19   7
   5   5  -2 105860. 3571.71   2
   5  -5  -2 107700. 3804.60   3
  -5   5   2 105065. 3374.78  12
  -5   5   2 99848.1 3790.72  11
  -5  -5   1 13621.7 1235.65   4
  -5  -5   1 15155.9 1240.39  14
  -5  -5   1 12785.1 1025.71   7
  -5   5   1 15155.6 1144.00   7
   5   5  -1 13439.8 1006.02   2
   5  -5  -1 13292.6 1187.78   3
  -5   5   1 15027.0 1113.80  12
  -5   5   1 11884.1 1228.28  11
   5   5  -1 14849.5 1193.23  10
   5   5  -1 13665.8 1157.48   6
  -5  -5   0 24819.6 1643.77   4
  -5  -5   0 22696.6 1548.26  14
  -5  -5   0 23681.2 1416.76   7
  -5   5   0 24030.5 1492.77   7
   5   5   0 22230.8 1261.27   2
   5  -5   0 28308.6 1722.89   3
  -5   5   0 23348.4 1515.71  12
   5   5   0 23636.9 1546.45   6
   5   5   0 22370.3 1521.05  10
   5   5   1 13207.8 1224.91   6
  -5  -5  -1 13740.6 1290.90  14
  -5  -5  -1 13865.1 1122.89   7
  -5   5  -1 14984.2 1243.06   7
   5  -5   1 13766.6 1267.59   3
   5   5   1 12817.9 908.062   2
   5   5   1 13863.5 1237.83  10
   5  -5   2 27919.6 1894.88  15
  -5  -5  -2 27057.9 1859.96  14
  -5  -5  -2 30420.9 1755.67   7
  -5   5  -2 31310.0 1856.24   7
   5  -5   2 28859.5 1834.13   3
   5   5   2 28069.3 1834.73   6
   5   5   2 30255.5 1904.67  10
   5   5   3 313.958 704.436  10
   5   5   3 1306.20 765.638   6
   5  -5   3 855.207 769.005  15
  -5  -5  -3 3343.24 1076.48  14
  -5  -5  -3 413.409 591.374   7
  -5   5  -3 616.555 677.606   7
   5  -5   3 979.762 642.218   3
   5  -5   4 4002.50 950.713   3
   5   5   4 4205.20 992.007  10
   5   5   4 3735.13 902.229   6
   5  -5   4 3225.99 910.989  15
  -5  -5  -4 4741.75 1171.08  14
  -5  -5  -4 3960.93 861.642   7
  -5   5  -4 4518.93 916.053   7
   5  -5   5 115.823 722.327   3
   5   5   5 2024.78 896.158  10
   5   5   5 137.119 641.589   6
  -5  -5  -5 610.436 853.570  16
   5  -5   5-150.193 794.499  15
  -5  -5  -5 1335.28 744.310   7
  -5   5  -5-31.4803 723.408   7
   5  -5   6 6755.65 1134.08   3
  -5  -5  -6 2948.13 934.757   7
   5   6  -8 2112.12 853.900   2
  -5  -6   8 1875.55 857.114   8
   5  -6  -8 3482.78 1050.46  16
  -5   6   8 1825.24 755.927   1
  -5   6   8 2409.83 930.338  13
   5   6  -7 2882.61 880.249   2
   5  -6  -7 1150.46 594.094   5
  -5  -6   7 2032.17 776.718   8
   5  -6  -7 2197.02 910.385  16
  -5   6   7 785.423 837.052  13
  -5   6   7 1097.79 614.661  11
  -5   6   7 1417.46 734.329   1
   5   6  -6 751.269 646.793   2
   5  -6  -6 908.769 613.970   5
   5  -6  -6 1365.67 592.426   2
  -5  -6   6 1231.84 613.577   4
  -5  -6   6 791.466 628.749   8
   5  -6  -6 1166.69 791.025  16
  -5   6   6 631.528 649.495  13
  -5   6   6 684.499 583.242  11
   5   6  -5 9992.98 1145.55   2
   5  -6  -5 11895.4 1097.60   5
  -5  -6   5 12799.9 1154.01   4
  -5  -6   5 13546.6 1350.75   8
   5  -6  -5 11363.1 1247.65  16
  -5   6   5 10653.9 1150.82  13
   5   6  -5 12722.6 1005.01  12
   5  -6  -5 10851.0 1105.44   2
  -5   6   5 12215.5 1215.81  11
   5   6  -4 11568.7 961.390  10
   5   6  -4 10521.3 1119.39   2
   5  -6  -4 10764.4 1056.73   5
  -5  -6   4 11511.6 1116.68   4
  -5  -6   4 13009.0 1262.75   8
  -5  -6   4 11628.2 1050.97   7
  -5   6   4 11296.5 1039.19   7
  -5   6   4 12125.7 1067.71  13
   5   6  -4 11988.8 1000.66  12
  -5   6   4 12354.0 846.683  12
   5  -6  -4 11005.7 1105.14  16
   5  -6  -4 9025.05 1043.27   3
  -5   6   4 10208.0 1124.14  11
   5   6  -3 23453.6 1407.75  10
  -5  -6   3 21375.9 1024.52   5
  -5  -6   3 21325.6 1562.17   8
  -5  -6   3 19491.7 1464.88   4
   5  -6  -3 23045.1 1482.19  16
   5   6  -3 23043.5 1513.80   2
  -5  -6   3 22431.5 1395.36   7
  -5   6   3 24037.1 1445.69   7
   5  -6  -3 22702.6 1587.15   3
  -5   6   3 22516.7 1341.78  13
  -5   6   3 24262.3 1290.16  12
  -5   6   3 20635.4 1538.22  11
   5   6  -2 3897.54 714.711  10
   5   6  -2 4794.85 715.325   2
  -5  -6   2 3679.17 798.942   4
  -5  -6   2 2885.99 592.782   7
  -5   6   2 3836.15 660.360   7
  -5   6   2 3280.01 625.823  12
  -5   6   2 3617.16 769.482  11
   5  -6  -2 3650.07 715.684   3
   5   6  -1 13055.2 1166.35  10
   5   6  -1 14145.1 1222.33   6
  -5  -6   1 15185.2 1290.65   4
  -5  -6   1 13896.3 1264.92  14
   5   6  -1 12217.8 988.068   2
  -5  -6   1 13145.2 1028.27   7
  -5   6   1 14861.9 1127.87   7
  -5   6   1 12096.3 1089.72  12
  -5   6   1 14402.2 1334.28  11
   5  -6  -1 12006.4 1187.27   3
  -5  -6   0 31248.0 1914.69   4
  -5  -6   0 30570.4 1901.56  14
   5   6   0 32206.1 1517.34   2
  -5  -6   0 32175.2 1642.15   7
  -5   6   0 31617.0 1721.52   7
   5  -6   0 29389.7 1866.61   3
  -5   6   0 30344.0 1839.00  12
  -5   6   0 34399.3 2010.96  11
   5   6   0 30679.4 1831.31  10
   5   6   0 31666.9 1885.22   6
  -5  -6  -1 23323.2 1680.47   4
  -5  -6  -1 23459.8 1703.85  14
   5   6   1 22374.9 1166.26   2
  -5  -6  -1 23584.2 1446.28   7
  -5   6  -1 22417.1 1527.23   7
   5  -6   1 21715.8 1606.77   3
  -5   6  -1 20780.5 1597.28  12
  -5   6  -1 20628.7 1641.29  11
   5   6   1 23051.3 1666.57   6
   5   6   1 21812.8 1594.51  10
  -5  -6  -2 12040.5 1392.54  14
  -5  -6  -2 13537.8 1165.04   7
  -5   6  -2 10317.7 1153.47   7
  -5   6  -2 11471.3 1337.71  12
  -5   6  -2 11033.8 1269.58  11
   5   6   2 14616.3 1389.95   6
   5   6   2 14829.8 1410.48  10
   5  -6   2 12983.5 1336.05   3
   5  -6   3 18112.1 1646.28  15
  -5  -6  -3 16771.5 1617.31  14
  -5  -6  -3 15987.8 1361.34   7
  -5   6  -3 15952.3 1480.71   7
   5  -6   3 17600.5 1588.63   3
  -5   6  -3 14441.8 1416.65  11
   5   6   3 14829.5 1446.64   6
   5   6   3 15859.2 1540.87  10
   5  -6   4 42919.9 2571.51  15
  -5  -6  -4 41629.7 2601.34  14
  -5  -6  -4 39492.7 2280.45   7
  -5   6  -4 39782.7 2384.57   7
   5  -6   4 42700.7 2529.55   3
  -5   6  -4 36455.2 2224.02  11
   5   6   4 34723.1 2316.56   6
   5   6   4 35998.4 2381.16  10
   5  -6   5 10346.4 1358.74   3
   5   6   5 9954.05 1432.44  10
   5   6   5 9307.18 1264.37   6
  -5  -6  -5 9537.85 1265.68   7
  -5   6  -5 10065.0 1346.36   7
  -5  -6  -6 15540.8 1621.64   7
  -5   7   8 24380.4 2062.27  13
   5   7  -7 4645.12 1053.42   2
   5  -7  -7 5337.57 944.948   5
  -5  -7   7 4619.05 1009.79   8
   5  -7  -7 4507.08 1017.27  16
  -5   7   7 4109.01 987.886  13
  -5   7   7 2916.39 887.375   1
  -5   7   7 3529.82 847.507  11
   5  -7  -6 37936.0 2096.36   5
  -5  -7   6 29650.9 2163.78   8
  -5  -7   6 31863.9 1926.97   4
   5   7  -6 32215.6 2150.56   2
   5  -7  -6 34408.2 2196.91  16
  -5   7   6 37804.2 2231.22  13
   5  -7  -6 30634.6 1842.79   2
  -5   7   6 35722.3 2236.61   1
  -5   7   6 35342.7 2148.27  11
   5  -7  -5 18700.6 1436.06   5
  -5  -7   5 16942.9 1525.62   8
  -5  -7   5 17790.4 1405.87   4
   5   7  -5 16548.4 1500.98   2
   5  -7  -5 18764.0 1527.51  16
   5  -7  -5 17746.7 1482.53   3
  -5   7   5 16214.6 1419.61  13
   5   7  -5 17721.2 1289.53  12
   5  -7  -5 14868.7 1299.91   2
  -5   7   5 15594.2 1396.73  11
   5   7  -4 39549.6 1930.18  10
   5  -7  -4 39259.8 2086.17   5
  -5  -7   4 33367.9 2108.45   8
  -5  -7   4 39027.0 2128.13   4
   5   7  -4 39469.3 2159.10   2
   5  -7  -4 37340.7 2059.43  16
  -5   7   4 40218.2 1958.38   7
   5  -7  -4 38108.2 2128.85   3
  -5   7   4 33897.9 1920.01  13
   5   7  -4 38227.0 1924.78  12
  -5   7   4 36811.7 1700.62  12
  -5   7   4 35694.1 2128.90  11
   5   7  -3 10971.3 1061.58  10
  -5  -7   3 9346.36 1118.23   8
   5   7  -3 12955.9 1167.53   2
  -5  -7   3 11209.2 1215.94   4
   5  -7  -3 9693.83 1018.73  16
  -5  -7   3 11195.5 973.622   7
  -5   7   3 10422.2 975.679   7
  -5   7   3 10879.6 952.167  12
   5  -7  -3 10094.8 1122.63   3
  -5   7   3 9713.44 1169.62  11
   5   7  -2 31077.7 1807.92  10
  -5  -7   2 32408.9 1549.25   5
  -5  -7   2 30345.5 1917.71   4
  -5  -7   2 31955.3 1926.04   8
   5   7  -2 31738.7 1723.40   2
  -5  -7   2 31310.8 1597.79   7
  -5   7   2 34166.6 1712.72   7
   5  -7  -2 32043.1 1929.60   3
  -5   7   2 31642.2 1708.03  12
  -5   7   2 31184.3 1992.11  11
   5   7  -1 10504.2 1118.66  10
   5   7  -1 9493.65 1087.92   6
   5   7  -1 10610.9 956.126   2
  -5  -7   1 10378.5 1151.94   4
  -5  -7   1 11866.1 958.023   7
  -5  -7   1 11715.4 1219.49  14
  -5   7   1 10406.7 978.865   7
   5  -7  -1 13847.4 1283.95   3
  -5   7   1 11028.6 1074.29  12
  -5   7   1 8602.71 1148.96  11
   5   7   0 12189.9 1215.49   6
   5   7   0 11595.0 1210.06  10
   5   7   0 11329.8 895.299   2
  -5  -7   0 10771.0 1251.59   4
  -5  -7   0 12247.6 1283.40  14
  -5  -7   0 12876.3 1023.54   7
  -5   7   0 10968.9 1044.68   7
  -5   7   0 10718.6 1201.71  12
  -5   7   0 11235.5 1301.34  11
   5  -7   0 13409.6 1311.21   3
   5   7   1 10433.2 1226.29  10
   5   7   1 10524.5 1188.07   6
  -5  -7  -1 9105.55 1134.23   4
  -5  -7  -1 11375.4 1331.50  14
  -5  -7  -1 9420.70 928.404   7
  -5   7  -1 11911.7 1110.94   7
  -5   7  -1 8898.95 1152.43  12
  -5   7  -1 11192.0 1288.69  11
   5  -7   1 11348.0 1274.39   3
   5   7   2 4876.52 1020.93  10
   5   7   2 4311.44 985.126   6
  -5  -7  -2 4185.94 1084.08  14
  -5  -7  -2 4089.52 728.166   7
  -5   7  -2 4657.98 853.947   7
  -5   7  -2 4042.79 969.832  12
  -5   7  -2 4421.43 901.708  11
   5  -7   2 4870.80 976.966   3
   5   7   3 12697.9 1434.03   6
   5  -7   3 15922.5 1564.73  15
  -5  -7  -3 17359.7 1704.81  14
  -5  -7  -3 17390.4 1425.31   7
  -5   7  -3 16639.9 1464.08   7
   5  -7   3 16968.1 1622.93   3
  -5   7  -3 16417.9 1671.02  12
  -5   7  -3 14253.9 1434.33  11
   5   7   3 17541.1 1654.29  10
  -5  -7  -4 37077.4 2480.93  16
   5  -7   4 36953.1 2484.44  15
  -5  -7  -4 37680.2 2558.16  14
  -5   7  -4 40517.0 2404.31   7
   5  -7   4 37511.3 2447.66   3
  -5   7  -4 36495.0 2572.98  12
  -5   7  -4 36789.9 2252.13  11
   5   7   4 34376.6 2361.83   6
   5   7   4 36541.0 2416.85  10
  -5   7  -5 13262.3 1614.77   7
   5   8  -7-610.195 833.455   2
   5  -8  -7 1370.14 757.821   5
   5  -8  -7 1255.77 813.052  16
  -5   8   7 1491.60 833.846   1
  -5   8   7 2930.97 894.270  13
  -5   8   7 1925.78 809.369  11
   5   8  -6 7650.86 1169.77   2
  -5   8   6 7322.83 1127.85   1
   5  -8  -6 6104.40 968.252   5
  -5  -8   6 7184.77 1047.96   4
  -5  -8   6 5987.95 1121.59   8
   5  -8  -6 7959.16 1191.06  16
  -5   8   6 5924.07 1083.61  13
  -5   8   6 6205.59 1042.80  11
   5  -8  -5 26482.9 1831.42   5
  -5  -8   5 25804.5 1930.57   8
   5   8  -5 28044.2 1953.02   2
  -5  -8   5 24230.4 1750.25   4
   5  -8  -5 24216.9 1781.14  16
   5  -8  -5 22961.3 1728.81   3
  -5   8   5 25805.1 1807.36  13
   5   8  -5 26222.8 1660.28  12
   5  -8  -5 22296.6 1642.03   2
  -5   8   5 28798.8 1875.05   1
  -5   8   5 24049.0 1855.90  11
   5   8  -4 7293.82 1024.65   2
   5  -8  -4 7394.77 1067.37   5
  -5  -8   4 6153.79 1049.23   4
  -5  -8   4 8532.73 1157.69   8
  -5   8   4 8589.33 917.492   7
  -5   8   4 6933.81 976.230  13
   5   8  -4 7025.33 937.175  12
   5  -8  -4 5824.47 951.823   3
  -5   8   4 6675.39 1037.30  11
   5  -8  -4 5526.53 887.191  16
   5   8  -3 6260.56 929.812   2
   5   8  -3 8063.87 1004.38  10
  -5  -8   3 6843.34 1072.56   4
  -5  -8   3 5862.82 727.850   7
  -5  -8   3 5854.57 1025.59   8
   5  -8  -3 6325.58 893.286  16
   5   8  -3 6765.67 967.155  12
  -5   8   3 8115.87 874.219   7
  -5   8   3 6658.73 859.274  12
   5  -8  -3 6777.21 1031.58   3
  -5   8   3 5414.18 943.543  11
   5   8  -2 11030.1 1198.91  10
  -5  -8   2 12724.6 1012.92   5
   5   8  -2 11127.8 1042.74   2
  -5  -8   2 12083.1 1302.80   4
  -5  -8   2 11946.9 1252.99   8
  -5   8   2 10798.1 953.548   7
  -5   8   2 13490.8 1190.00  12
  -5   8   2 11983.9 1301.96  11
   5  -8  -2 10353.6 1151.88   3
   5   8  -1 36472.3 2165.65  10
  -5  -8   1 36021.2 2196.91   4
   5   8  -1 37997.9 1830.86   2
  -5  -8   1 39567.8 2295.94  14
  -5   8   1 41496.7 1936.24   7
   5  -8  -1 40508.9 2292.12   3
  -5   8   1 41648.7 2178.96  12
  -5   8   1 38457.3 2315.86  11
   5   8   0 3636.77 856.245  10
   5   8   0 6238.21 966.087   6
  -5  -8   0 5480.18 1035.55   4
  -5  -8   0 5707.31 1034.74  14
  -5   8   0 5283.65 793.104   7
  -5   8   0 5955.51 1005.45  12
  -5   8   0 5639.43 980.801  11
   5  -8   0 5524.39 1030.74   3
   5   8   1 5655.48 994.610  10
   5   8   1 7318.71 1114.73   6
  -5  -8  -1 7863.63 1248.78  14
  -5   8  -1 10047.3 1025.31   7
  -5   8  -1 9475.96 1196.29  12
  -5   8  -1 9182.07 1174.54  11
  -5  -8  -1 10433.2 1302.09   4
   5  -8   1 7266.45 1115.34   3
   5   8   2 10333.4 1290.83  10
   5   8   2 12975.8 1455.83   6
  -5  -8  -2 12277.5 1353.30   4
  -5  -8  -2 12117.0 1449.04  14
  -5   8  -2 12646.7 1222.21   7
  -5   8  -2 10946.2 1400.92  12
  -5   8  -2 13557.8 1401.17  11
   5  -8   2 9463.15 1270.51   3
   5   8   3 21221.8 1880.04   6
  -5  -8  -3 22585.8 2027.99  14
  -5   8  -3 25143.9 1835.35   7
   5  -8   3 23601.0 1928.52   3
  -5   8  -3 22456.5 1989.45  12
   5  -8   3 26886.3 2048.07  15
  -5   8  -3 21481.1 1792.54  11
   5   8   3 23300.8 1952.64  10
  -5  -8  -4 2544.92 871.410  16
  -5   8  -4 4243.33 959.320   7
  -5   8  -4 1430.62 707.292  11
  -5   8  -5 8129.17 1198.16   7
   5  -9  -7 4745.78 1001.54   5
   5  -9  -7 5074.19 1089.27  16
  -5   9   7 2788.16 926.329   1
  -5   9   7 3924.29 1005.06  11
   5  -9  -6 38389.1 2411.66   5
   5   9  -6 43049.0 2614.88   2
  -5  -9   6 35405.7 2475.71   8
  -5  -9   6 37951.0 2321.66   4
   5  -9  -6 39024.5 2458.75  16
  -5   9   6 35195.3 2349.54   1
  -5   9   6 39696.0 2487.63  13
  -5   9   6 40129.0 2518.18  11
   5   9  -5 2882.55 836.241   2
   5  -9  -5 4134.95 994.337   5
  -5  -9   5 5347.94 956.764   4
  -5  -9   5 5669.67 1143.13   8
   5  -9  -5 4141.39 918.118  16
  -5   9   5 5285.90 982.066  13
   5   9  -5 3937.88 812.808  12
   5  -9  -5 3560.29 852.565   3
  -5   9   5 3389.82 947.363  11
  -5   9   5 4210.77 902.437   1
   5  -9  -4 36029.7 2259.11   5
   5   9  -4 38849.8 2243.45   2
  -5  -9   4 36963.0 2347.18   8
  -5  -9   4 36947.9 2280.99   4
   5  -9  -4 36609.7 2088.88  16
   5  -9  -4 35077.1 2174.22   3
   5   9  -4 36638.5 2135.56  12
  -5   9   4 39185.2 2115.74   1
  -5   9   4 35417.6 2332.71  11
   5   9  -3 251.666 611.211   2
   5   9  -3 646.146 598.676  10
  -5  -9   3-159.513 761.764   4
   5   9  -3 1087.74 678.891  12
  -5   9   3 694.964 543.030  12
  -5  -9   3 1108.75 688.751   8
   5  -9  -3 2337.77 781.233   3
  -5   9   3 961.254 707.487  11
   5   9  -2 13578.4 1353.33  10
   5   9  -2 15653.8 1268.47   2
  -5  -9   2 15827.6 1468.39   4
  -5  -9   2 15548.9 1480.55   8
   5  -9  -2 15751.0 1452.74   3
  -5   9   2 14123.3 1325.78  12
  -5   9   2 12521.9 1437.42  11
   5   9  -1 15372.5 1446.24  10
  -5  -9   1 13619.1 1421.46   8
  -5  -9   1 14146.8 1501.35   4
  -5  -9   1 13066.2 1454.64  14
   5  -9  -1 15590.3 1497.50   3
  -5   9   1 14640.4 1367.22  12
  -5   9   1 14364.4 1467.60  11
   5   9   0 25953.0 1934.61  10
  -5  -9   0 32213.9 2120.25   4
  -5  -9   0 27763.6 2067.36  14
   5  -9   0 28644.5 2004.94   3
  -5   9   0 31516.7 2049.59  12
  -5   9   0 28899.7 2044.67  11
   5   9   1 2181.01 807.746  10
  -5  -9  -1 3514.58 992.168   4
  -5  -9  -1 2357.33 852.364  14
  -5   9  -1 4154.06 956.381  12
  -5   9  -1 3388.64 855.243  11
   5  -9   1 2681.95 898.132   3
   5   9   2 11513.4 1453.74  10
   5   9   2 10804.1 1373.54   6
  -5  -9  -2 10781.5 1323.69   4
  -5  -9  -2 11704.6 1585.01  14
  -5   9  -2 11536.7 1463.35  12
  -5   9  -2 11921.2 1395.56  11
   5  -9   2 12202.0 1449.93   3
   5   9   3 1597.13 832.480   6
  -5  -9  -3 1284.27 714.284  16
  -5   9  -3 3938.60 1057.02  12
  -5   9  -3 1725.38 808.311  11
   5 -10  -6 2183.00 840.952   5
  -5 -10   6 2216.56 874.516   4
   5 -10  -6 1019.23 679.090  16
  -5  10   6 2391.19 869.076  13
  -5  10   6 2683.25 918.031   1
  -5  10   5 521.297 665.775   1
   5 -10  -5-902.961 869.505   5
  -5 -10   5-169.445 714.623   4
  -5 -10   5 24.5674 723.226   8
   5 -10  -5 617.774 656.731  16
   5  10  -5 358.085 696.116  12
   5 -10  -5 1323.66 725.375   3
  -5  10   5-262.068 806.561  11
   5  10  -5 486.500 773.543   2
   5 -10  -4 9078.82 1251.59   5
  -5 -10   4 10932.1 1334.70   4
  -5 -10   4 9030.10 1263.95   8
   5  10  -4 8203.70 1155.96  12
   5 -10  -4 11365.8 1291.52   3
  -5  10   4 8529.72 1224.84  11
   5  10  -4 8406.58 1139.23   2
   5  10  -3 6538.53 972.176   2
  -5 -10   3 4251.90 1032.09   4
  -5 -10   3 4870.72 1010.80   8
   5  10  -3 5038.58 1000.86  12
  -5  10   3 3248.31 804.614  12
   5 -10  -3 5865.61 992.485   3
  -5  10   3 3361.68 886.035  11
   5  10  -2 1296.99 773.764  10
  -5 -10   2 4234.34 927.471   4
  -5 -10   2 2316.78 793.284   8
  -5  10   2 2854.46 811.560  12
  -5  10   2 1681.40 836.171  11
   5 -10  -2 2374.13 772.668   3
   5  10  -1 1758.49 829.852  10
  -5 -10   1 1780.08 686.705   5
  -5 -10   1 1700.83 887.166   4
  -5 -10   1 1091.95 648.122   8
  -5 -10   1 689.809 709.700  14
  -5  10   1-81.0842 586.195  12
  -5  10   1 2002.89 807.784  11
   5 -10  -1 1641.68 768.582   3
   5  10   0 2913.66 979.979  10
  -5 -10   0 1777.91 915.454   4
  -5 -10   0 3501.56 900.746   8
  -5 -10   0 1900.92 800.572  14
  -5  10   0 903.833 709.200  12
  -5  10   0 2321.16 872.723  11
   5 -10   0 2198.16 922.255   3
   5  10   1 17875.6 1744.87  10
  -5 -10  -1 15731.3 1628.04   4
  -5 -10  -1 15972.0 1708.39  14
   5 -10   1 19424.5 1765.69   3
  -5  10  -1 19292.3 1769.22  12
  -5  10  -1 14757.4 1576.11  11
  -5 -10  -2 13097.7 1500.70   4
  -5  10  -2 11930.0 1524.99  12
  -5  10  -2 11576.1 1428.64  11
  -5 -10  -3 2795.60 904.461  16
  -5  10  -3 2967.65 940.267  11
   5  11  -5 11755.3 1402.88  12
   5  11  -5 10609.8 1354.60   2
   5  11  -4 6247.08 1126.85  12
   5 -11  -4 5846.09 1052.49   3
   5  11  -4 4791.31 1000.25   2
  -5 -11   3 12822.5 1507.54   4
  -5 -11   3 14957.2 1580.91   8
   5 -11  -3 14945.2 1532.40   3
   5  11  -3 12119.0 1509.54  12
   5  11  -2 10833.9 1374.01  10
  -5 -11   2 8702.37 1332.05   4
  -5 -11   2 11296.0 1360.96   8
  -5  11   2 11678.1 1342.80  12
   5 -11  -2 9604.55 1347.05   3
  -5  11   2 11480.5 1465.54  11
   5  11  -1 211.125 807.374  10
  -5 -11   1 2395.57 918.413   4
  -5 -11   1 1387.66 764.405   8
  -5 -11   1 983.779 833.446  14
  -5  11   1 1608.27 791.120  12
  -5  11   1 1239.86 862.694  11
   5 -11  -1 4052.34 1013.59   3
   5  11   0 14130.9 1589.29  10
  -5 -11   0 13175.5 1410.33   5
  -5 -11   0 14198.2 1444.62   8
  -5  11   0 16816.8 1726.13  12
  -5  11   0 13498.2 1585.49  11
   5 -11   0 14223.4 1637.44   3
  -5  11  -1 4744.27 1110.75  12
  -5  11  -1 4024.01 950.939  11
  -5 -11  -2 2311.45 873.253  16
   5 -12  -3 5478.27 1096.11   3
  -5 -12   2 7244.14 1158.80   8
  -5  12   2 6088.62 1125.77  12
   5 -12  -2 5979.09 1135.38   3
  -5 -12   1 9160.75 1291.15   8
  -5  12   1 8605.14 1362.65  12
   6   0  -9 1893.02 876.310   2
   6   0  -9 1535.70 910.457  16
  -6   0   9 3916.01 1137.93  13
   6   0  -8 19661.1 1739.24  16
   6   0  -8 20303.1 1720.78   2
  -6   0   7 21692.1 1471.81   8
   6   0  -7 18580.8 1653.68  16
   6   0  -7 17806.0 1553.16   2
  -6   0   6 40763.6 1998.36   8
   6   0  -6 39333.4 2252.61  16
  -6   0   6 35676.6 2199.33   7
   6   0  -6 37806.4 2167.21   2
  -6   0   6 41859.4 1823.30  11
   6   0  -5 1472.02 733.491   2
  -6   0   5 1347.91 549.813   8
  -6   0   5 686.761 616.522   7
  -6   0   4 16543.0 1359.91   7
   6   0  -4 18814.8 1402.21   2
   6   0  -4 16815.5 930.374  10
   6   0  -4 19540.0 936.744   6
  -6   0   3 30810.0 1245.60  14
  -6   0   3 30476.8 1771.77   7
  -6   0   3 30841.5 1215.58  12
   6   0  -3 30589.3 1789.85   2
   6   0  -3 29893.4 1371.72   6
   6   0  -3 29598.1 1407.06  10
   6   0  -2 21788.4 1439.26   3
  -6   0   2 20991.6 1048.93  14
  -6   0   2 17963.1 1354.34   7
  -6   0   2 20958.1 724.919  13
   6   0  -2 18202.5 1175.68   6
   6   0  -2 20092.0 1236.84  10
   6   0  -1 604.719 569.034  10
   6   0  -1 206.204 503.663   6
  -6   0   1 276.402 441.900  14
  -6   0   1-291.918 591.237   7
   6   0  -1-48.7106 502.490   3
   6   0   0 34602.7 1609.78  15
   6   0   0 30002.2 1656.23   3
  -6   0   0 32962.1 1611.86  14
  -6   0   0 28729.2 1798.70   7
   6   0   0 34514.5 1827.58   6
   6   0   0 31006.9 1757.77  10
   6   0   1 49221.7 2147.93  15
   6   0   1 53568.5 2268.57   3
  -6   0  -1 51535.1 2603.77   7
   6   0   1 49507.6 2404.27   6
   6   0   1 47544.2 2399.96  10
   6   0   2 1285.86 701.622   6
   6   0   2 255.059 597.142  10
   6   0   2 266.686 523.999  15
  -6   0  -2-24.4179 687.366   7
   6   0   2 137.848 467.313   3
   6   0   3 1920.79 858.721   6
   6   0   3 1840.82 765.217  10
  -6   0  -3 517.589 615.790   7
   6   0   3 1331.20 503.125   3
   6   0   4 5000.67 1085.54   6
   6   0   4 4840.34 1006.29  10
  -6   0  -4 4832.31 1043.92   7
   6   0   5 4350.55 1099.95   6
   6   0   5 2895.36 969.621  10
  -6   0  -5 3195.21 1105.89   7
   6   1  -9 15246.7 1617.00   2
   6   1  -9 15921.4 1692.80  16
   6  -1  -9 15998.5 1612.10   2
   6  -1  -9 16230.4 1770.27  16
  -6   1   9 15995.1 1765.63  13
  -6  -1   8 18551.3 1535.85   8
   6  -1  -8 20732.0 1803.47  16
   6   1  -8 20595.3 1780.03  16
   6  -1  -8 20216.0 1648.13   2
   6   1  -8 20114.0 1722.19   2
  -6   1   8 20517.5 1777.86  13
   6   1  -7 9950.79 1202.04   2
   6  -1  -7 7696.22 1085.24   2
  -6   1   7 8694.54 934.534   8
  -6  -1   7 9968.50 1096.58   8
   6  -1  -7 8772.00 1192.97  16
   6   1  -7 10079.6 1221.78  16
  -6   1   7 8769.69 1146.27  13
   6   1  -6 5204.48 943.563   2
   6  -1  -6 5653.44 902.270   2
  -6   1   6 5391.64 727.228   8
  -6  -1   6 6056.01 865.429   8
   6  -1  -6 6192.85 1018.89  16
  -6   1   6 6977.02 1072.16   7
  -6   1   6 5372.20 890.292  13
  -6  -1   6 5838.53 731.404  11
  -6   1   6 7356.27 821.475  11
  -6  -1   5 24380.8 1534.68   8
  -6   1   5 26318.2 1435.46   8
  -6  -1   5 23255.6 1662.43   7
  -6   1   5 22305.9 1639.02   7
   6   1  -5 20073.0 1551.95   2
  -6   1   5 24790.7 1446.79  13
   6  -1  -5 22705.4 1624.48   2
  -6   1   5 25548.8 1497.49  11
  -6   1   4 71667.6 2045.12  14
  -6  -1   4 67862.0 2898.37   7
  -6   1   4 72735.3 2978.31   7
  -6   1   4 70088.2 2446.50  13
   6   1  -4 73023.4 2962.37   2
   6  -1  -4 69358.7 2911.42   2
   6  -1  -4 71182.0 2282.85  10
   6  -1  -4 71105.0 2184.44   6
   6   1  -4 67353.3 2266.64  10
   6   1  -4 69911.0 2294.29   6
   6  -1  -3 1505.17 397.728   6
   6   1  -3 2183.36 474.939  10
   6   1  -3 1268.12 432.172   6
   6   1  -3 2860.21 756.463   2
  -6  -1   3 1621.20 411.173  14
   6  -1  -3 1429.06 645.558   2
  -6   1   3 2252.29 317.156  14
  -6   1   3 2120.71 393.737  13
  -6  -1   3 2179.80 662.946   7
  -6   1   3 2355.42 635.660   7
  -6  -1   3 1886.72 360.789  12
   6  -1  -2 79298.2 3033.30   3
  -6  -1   2 78050.6 2597.33  14
  -6   1   2 83694.2 2333.53  14
  -6  -1   2 76754.8 3043.71   7
  -6   1   2 81895.4 3128.90   7
  -6   1   2 77170.7 1984.89  13
   6   1  -2 80319.8 3032.73   2
   6  -1  -2 77422.1 2723.92   6
   6   1  -2 78427.0 2759.81   6
   6   1  -2 75803.4 2763.66  10
   6  -1  -1 2726.43 635.397   6
   6   1  -1 2032.56 635.846  10
   6   1  -1 2703.80 640.378   6
   6   1  -1 2363.72 431.979  15
  -6  -1   1 2521.23 563.187  14
  -6  -1   1 2634.15 654.092   7
  -6   1   1 3019.04 719.953   7
   6   1  -1 2718.84 614.109   3
   6  -1  -1 2005.93 641.948   3
   6   1   0 36055.7 1600.28  15
   6   1   0 36872.1 1818.03   3
  -6  -1   0 33564.5 1743.83  14
   6  -1   0 33791.0 1797.45   3
  -6  -1   0 34511.0 1974.13   7
  -6   1   0 33079.7 1926.08   7
   6  -1   0 33375.9 1860.18   6
   6   1   0 35746.3 1932.38   6
   6   1   0 29944.2 1781.53  10
   6   1   1 1848.48 737.125  10
   6   1   1 1410.79 704.093   6
   6  -1   1 1237.87 536.159  15
   6   1   1 2245.22 522.240  15
  -6  -1  -1 2048.20 742.533  14
  -6  -1  -1 2293.56 699.116   7
  -6   1  -1 2309.78 690.302   7
   6   1   1 2302.85 586.290   3
   6  -1   1 2074.82 601.509   3
   6  -1   2 71403.4 2918.54  15
   6   1   2 72039.5 2638.46   3
   6  -1   2 69590.8 2803.16   3
  -6  -1  -2 69336.0 3145.26   7
  -6   1  -2 67906.5 3081.56   7
   6  -1   2 66212.0 3028.69   6
   6   1   2 70570.9 3147.45   6
   6   1   2 64105.8 3006.07  10
   6  -1   3 8154.67 1167.55   6
   6   1   3 8280.64 1161.00   6
   6   1   3 10534.1 1320.26  10
  -6  -1  -3 7745.92 1197.10   7
  -6   1  -3 9919.98 1224.95   7
   6  -1   3 6572.33 889.512   3
   6  -1   4 5241.80 1049.04   6
   6   1   4 4861.41 1056.33   6
   6   1   4 4692.01 972.727  10
  -6  -1  -4 4827.53 1040.29   7
  -6   1  -4 2396.96 924.015   7
   6  -1   4 6467.92 1129.01  10
   6  -1   4 4476.84 830.120   3
   6  -1   5 7023.84 1233.82   6
   6  -1   5 8164.42 1269.95  10
   6   1   5 9660.85 1324.06   6
   6   1   5 10390.8 1415.18  10
  -6  -1  -5 6808.44 1166.11   7
  -6   1  -5 7506.05 1423.46   7
   6   2  -9 7727.30 1205.32   2
   6  -2  -9 12255.9 1382.12   2
  -6  -2   9 8010.29 1177.46   8
   6   2  -9 8477.95 1260.76  16
  -6   2   9 9796.48 1478.98  13
  -6  -2   8 31974.1 2030.53   8
   6  -2  -8 28281.0 2125.89  16
   6   2  -8 26103.0 1981.45  16
   6   2  -8 27021.2 2033.41   2
   6  -2  -8 26263.1 1876.35   2
  -6   2   8 25204.8 1963.33  13
  -6  -2   7 31748.0 1920.43   8
   6  -2  -7 25129.7 1964.52  16
   6   2  -7 28578.8 1987.45   2
   6  -2  -7 27447.3 1864.09   2
  -6   2   7 29099.4 1915.59  13
   6   2  -6 7320.30 1053.16   2
   6  -2  -6 10211.0 1133.27   2
  -6   2   6 8114.44 806.763   8
  -6  -2   6 7319.16 964.195   8
   6  -2  -6 8779.80 1134.05  16
  -6   2   6 6049.33 1009.96   7
  -6   2   6 8107.03 1000.90  13
  -6   2   6 9493.50 942.359  11
   6   2  -5 3606.99 776.195   2
   6  -2  -5 4729.80 827.186   2
   6  -2  -5 4514.97 894.982  16
  -6  -2   5 4381.21 781.466   8
  -6   2   5 4140.86 603.525   8
  -6   2   5 4090.79 724.209  13
  -6  -2   5 4743.80 875.637   7
  -6   2   5 4515.44 873.231   7
  -6   2   5 4874.96 786.263  11
   6   2  -4 41041.7 1688.83   6
  -6  -2   4 47144.2 2246.07   7
  -6   2   4 40139.0 2152.01   7
  -6   2   4 43617.6 1789.21  13
   6   2  -4 42407.6 2202.54   2
   6  -2  -4 43474.7 2205.00   2
   6  -2  -4 45257.5 1550.03   6
   6   2  -4 43032.3 1678.37  10
  -6   2   3 10416.8 672.567  13
   6   2  -3 11578.2 1105.68   2
  -6  -2   3 10001.5 1066.21   7
  -6   2   3 9382.54 1033.61   7
  -6   2   3 9603.82 687.903  12
   6  -2  -3 9445.03 1055.18   3
   6  -2  -3 10238.9 778.507   6
   6   2  -3 10375.8 856.346  10
   6   2  -3 10035.9 852.030   6
   6   2  -2 45882.3 1487.22  15
  -6  -2   2 40824.5 1810.66  14
   6  -2  -2 42100.9 2116.42   3
  -6  -2   2 45507.6 2172.37   7
  -6   2   2 43238.1 2149.48   7
   6   2  -2 41980.3 2084.18   2
   6   2  -2 40579.0 1890.26   6
   6   2  -2 45894.6 1964.12  10
   6   2  -1 1513.82 622.838  10
   6   2  -1 1156.34 570.363   6
   6   2  -1 1748.40 344.026  15
   6   2  -1 2203.91 662.693   2
  -6  -2   1 1509.83 550.094  14
  -6  -2   1 1112.64 595.535   7
  -6   2   1 1212.47 582.648   7
   6  -2  -1 647.482 609.420   3
   6   2   0 1143.05 631.318  10
   6   2   0 2162.52 735.718   6
   6   2   0 950.980 478.240   3
  -6  -2   0 322.660 612.197  14
  -6  -2   0 834.395 653.538   7
  -6   2   0 1658.43 714.780   7
   6  -2   0 1348.15 581.945   3
   6  -2   1 16581.0 1362.64  15
   6   2   1 25389.4 1340.99   3
  -6  -2  -1 26168.9 1629.91  14
   6  -2   1 19013.1 1441.45   3
  -6  -2  -1 23812.8 1614.61   7
  -6   2  -1 21222.4 1594.15   7
   6   2   1 25138.2 1676.46   6
   6   2   1 24058.2 1626.48  10
   6   2   2 725.373 610.380  10
   6   2   2 986.463 709.779   6
   6  -2   2 726.707 573.962  15
  -6  -2  -2 1151.17 578.433   7
  -6   2  -2 577.475 689.383   7
   6   2   2 2070.31 471.247   3
   6  -2   2 1219.54 616.940   3
   6   2   3 3059.40 942.981  10
   6   2   3 2736.07 858.178   6
   6  -2   3 2667.21 775.005  15
  -6  -2  -3 3135.28 882.393   7
  -6   2  -3 2125.22 803.352   7
   6  -2   3 2299.14 730.745   3
   6   2   4 10732.7 1306.18  10
   6   2   4 8682.94 1281.79   6
  -6  -2  -4 8053.29 1146.38   7
  -6   2  -4 7442.33 1169.24   7
   6  -2   4 8292.85 1083.01   3
   6   2   5 11563.6 1432.16  10
   6   2   5 12333.5 1510.89   6
  -6  -2  -5 15955.7 1638.21   7
  -6   2  -5 17572.5 1731.59   7
   6  -2   5 11814.7 1484.45   6
  -6   2  -6 17092.8 1658.24  16
   6  -3  -9 2150.47 720.900   2
  -6  -3   9 746.659 860.354   8
   6   3  -9 1141.97 730.704  16
  -6   3   9 1643.84 932.487  13
   6   3  -8 6092.73 1071.71   2
   6  -3  -8 7087.02 1087.50   2
  -6  -3   8 5437.24 1063.47   8
   6  -3  -8 5359.46 1045.19  16
  -6   3   8 6923.59 1200.43  13
   6   3  -7 2646.07 850.222   2
   6  -3  -7 3899.98 862.547   2
  -6  -3   7 4359.06 929.877   8
   6  -3  -7 2985.78 869.068  16
  -6   3   7 3759.59 926.118  13
  -6   3   7 3710.80 692.724  11
   6   3  -6 1810.78 688.867   2
   6  -3  -6 2350.73 700.305   2
  -6  -3   6 2507.94 733.086   8
   6  -3  -6 1547.17 737.199  16
  -6   3   6 3163.85 791.241  13
  -6   3   6 2482.92 645.959  11
   6   3  -5 1519.69 712.904   2
   6  -3  -5 2376.66 764.795  16
  -6  -3   5 2660.79 695.695   8
  -6   3   5 1814.80 434.256   8
   6  -3  -5 1041.28 676.037   2
  -6   3   5 1031.86 537.160  13
  -6  -3   5 3202.19 737.183   7
  -6   3   5 1982.54 735.383   7
  -6   3   5 2484.46 677.103  11
   6   3  -4 52369.1 1968.00  10
  -6  -3   4 51902.1 2442.40   7
  -6   3   4 51798.1 2437.68   7
   6   3  -4 50618.0 2429.85   2
  -6   3   4 51134.4 2025.30  13
   6  -3  -4 48725.4 2399.72   2
  -6   3   4 50813.9 2406.53  11
   6  -3  -4 52818.1 1786.84   6
   6   3  -3 4962.20 650.560  10
   6   3  -3 4815.79 663.800   6
   6   3  -3 4883.74 818.354   2
  -6   3   3 4709.40 513.973  13
  -6  -3   3 5576.98 848.839   7
  -6   3   3 5307.07 877.677   7
  -6   3   3 4773.22 536.994  12
   6  -3  -3 6115.88 944.003   3
  -6  -3   2 82450.9 2985.50  14
   6  -3  -2 82021.2 3274.11   3
  -6  -3   2 83765.5 3199.29   7
  -6   3   2 84159.6 3262.49   7
   6   3  -2 87139.8 3200.23   2
   6   3  -2 88143.3 3073.80   6
   6   3  -2 82613.7 3003.45  10
  -6  -3   1 117045. 3886.37  14
  -6  -3   1 119351. 4078.50   7
   6  -3  -1 120980. 4146.98   3
  -6   3   1 122872. 4139.84   7
   6   3  -1 114424. 3903.65   2
   6   3  -1 116833. 4007.26   6
   6   3  -1 115152. 4006.58  10
  -6  -3   0 37136.6 1967.62  14
  -6  -3   0 37861.4 2034.44   7
   6  -3   0 32987.7 1925.36   3
  -6   3   0 34595.9 1985.78   7
   6   3   0 41222.2 1914.34   2
   6   3   0 39732.7 2069.04   6
   6   3   0 35508.6 2004.31  10
   6   3   1 4244.85 846.172  10
   6   3   1 5885.73 944.544   6
   6  -3   1 4269.17 817.474  15
  -6  -3  -1 5222.37 912.426  14
  -6  -3  -1 7377.65 990.891   7
  -6   3  -1 4704.33 874.151   7
   6  -3   1 3475.56 794.050   3
   6  -3   2 26745.7 1787.75  15
  -6  -3  -2 31079.1 2014.67  14
  -6  -3  -2 26987.4 1878.57   7
  -6   3  -2 27191.0 1859.08   7
   6  -3   2 24485.3 1678.59   3
   6   3   2 25537.9 1833.16   6
   6   3   2 24955.2 1897.03  10
   6   3   3 11987.9 1350.93  10
   6   3   3 11954.3 1377.11   6
   6  -3   3 12481.0 1336.34  15
   6  -3   3 13269.0 1320.59   3
  -6  -3  -3 12563.6 1356.57   7
  -6   3  -3 11438.4 1356.74   7
   6  -3   4 20274.2 1722.58  15
  -6  -3  -4 20506.4 1779.44   7
  -6   3  -4 18217.0 1820.27   7
   6  -3   4 22032.4 1702.18   3
   6   3   4 24564.8 1943.52   6
   6   3   4 18719.0 1723.10  10
  -6  -3  -5 1923.68 783.221   7
   6  -3   5 1661.77 768.695   3
  -6  -4   9 14488.3 1596.42   8
  -6   4   9 15080.5 1697.40  13
  -6  -4   8 21615.0 1827.00   8
   6  -4  -8 21731.5 1925.08  16
   6   4  -8 27487.1 2085.34   2
   6  -4  -8 23587.5 1746.88   2
  -6   4   8 23458.2 1883.45  13
   6   4  -7 14466.4 1499.07   2
  -6  -4   7 15098.8 1466.88   8
   6  -4  -7 11470.2 1387.64  16
   6  -4  -7 15338.0 1382.40   2
  -6   4   7 12894.2 1345.01  13
  -6   4   7 15194.9 1267.81  11
  -6  -4   6 16646.7 1514.54   8
   6  -4  -6 15794.1 1494.56  16
   6   4  -6 16990.5 1556.38   2
  -6   4   6 19255.1 1476.64  13
   6  -4  -6 16564.9 1431.62   2
  -6   4   6 15107.3 1296.04  11
   6   4  -5 7699.22 1035.62   2
  -6  -4   5 9546.24 1155.20   8
   6  -4  -5 8165.19 1071.14   2
  -6   4   5 7564.63 889.430  13
  -6  -4   5 8654.62 1054.09   7
  -6   4   5 8609.79 1075.53   7
   6  -4  -5 8407.00 1159.07  16
  -6   4   5 7373.74 997.559  11
   6   4  -4 66481.7 2443.94  10
  -6  -4   4 71112.6 3020.40   8
   6  -4  -4 66693.4 2969.48   3
  -6  -4   4 71273.1 2921.32   7
  -6   4   4 68011.4 2886.82   7
   6   4  -4 67131.1 2910.80   2
  -6   4   4 69338.5 2522.27  13
  -6   4   4 63945.0 2850.86  11
   6   4  -3 63126.2 2608.56   6
   6  -4  -3 68582.0 2975.86   3
  -6  -4   3 68916.0 2861.37   7
  -6   4   3 72770.5 2932.79   7
  -6   4   3 74068.0 2377.28  13
   6   4  -3 69390.3 2870.31   2
  -6   4   3 71832.8 2371.62  12
  -6   4   3 70500.0 3013.04  11
   6   4  -3 68072.3 2611.23  10
  -6  -4   2 39917.9 1974.23  14
  -6  -4   2 37943.0 1995.57   7
   6  -4  -2 42031.7 2196.67   3
  -6   4   2 38208.4 2050.51   7
   6   4  -2 45538.1 2103.82   2
  -6   4   2 39607.4 1772.17  12
   6   4  -2 40177.1 1943.08  10
   6   4  -2 39139.4 1950.24   6
   6   4  -1 417.310 538.225  10
   6   4  -1-410.687 550.754   6
   6   4  -1 281.407 508.711   2
  -6  -4   1-434.435 537.140  14
  -6  -4   1-717.506 551.950   7
  -6   4   1 818.121 541.848   7
   6  -4  -1 494.755 617.357   3
  -6  -4   0 19591.2 1477.82  14
  -6  -4   0 18884.5 1463.35   7
  -6   4   0 20237.6 1495.88   7
   6  -4   0 20326.9 1528.94   3
   6   4   0 22509.5 1359.73   2
   6   4   0 20022.6 1499.04   6
   6   4   0 22548.0 1589.29  10
   6   4   1 11478.9 1279.33  10
  -6  -4  -1 12933.1 1313.60  14
  -6  -4  -1 13797.1 1271.15   7
  -6   4  -1 12594.9 1236.09   7
   6  -4   1 12362.1 1247.30   3
   6   4   1 13652.3 1093.86   2
   6   4   1 13513.6 1311.49   6
   6   4   2 5820.47 1004.99  10
   6   4   2 3950.91 894.057   6
   6  -4   2 4628.52 869.241  15
  -6  -4  -2 3454.81 942.154  14
  -6  -4  -2 5992.73 955.302   7
  -6   4  -2 6197.95 993.770   7
   6  -4   2 4343.16 864.454   3
   6   4   3 4311.22 1051.76  10
   6   4   3 4718.97 955.343   6
   6  -4   3 3700.66 972.003  15
  -6  -4  -3 5576.42 1223.90  14
  -6  -4  -3 2530.41 814.046   7
  -6   4  -3 3892.85 918.621   7
   6  -4   3 3621.61 861.675   3
   6   4   4 1176.70 771.759  10
   6   4   4 1126.86 821.234   6
   6  -4   4 1112.99 778.719  15
  -6  -4  -4 1713.17 718.385   7
  -6   4  -4 51.0079 750.792   7
   6  -4   4 292.062 664.458   3
  -6  -4  -5 1557.95 913.522   7
   6  -4   5 2326.78 830.540   3
   6   5  -8 13471.1 1625.74   2
  -6  -5   8 13409.7 1522.86   8
   6  -5  -8 14270.5 1677.51  16
  -6   5   8 11223.0 1486.63   1
  -6   5   8 13220.3 1534.33  13
   6   5  -7 2895.74 911.450   2
   6  -5  -7 4163.85 854.504   2
  -6  -5   7 2901.82 861.432   8
   6  -5  -7 3446.15 969.537  16
  -6   5   7 3303.06 847.185  13
  -6   5   7 4324.51 811.377  11
  -6  -5   6 20719.4 1719.60   8
  -6  -5   6 21905.8 1490.78   4
   6  -5  -6 20526.5 1752.37  16
   6   5  -6 22148.5 1762.15   2
  -6   5   6 18731.1 1497.54  13
   6  -5  -6 18320.8 1501.31   2
  -6   5   6 21649.3 1571.27  11
  -6  -5   5 41339.1 2324.09   8
  -6  -5   5 39872.3 2067.63   4
   6  -5  -5 39708.3 2250.20  16
   6   5  -5 36353.1 2190.22   2
  -6  -5   5 33676.0 2043.14   7
  -6   5   5 40789.2 2182.09   7
  -6   5   5 39456.4 2008.94  13
   6  -5  -5 38268.6 2130.18   2
  -6   5   5 40336.5 2181.66  11
   6   5  -4 58512.4 2307.91  10
  -6  -5   4 56153.5 2729.73   8
  -6  -5   4 56964.6 2597.42   4
  -6  -5   4 54219.8 2562.90   7
   6  -5  -4 53205.0 2657.99   3
   6   5  -4 55645.2 2643.97   2
  -6   5   4 63394.1 2709.34   7
  -6   5   4 59698.7 2349.99  13
  -6   5   4 57387.6 2715.08  11
   6   5  -3 65179.1 2604.99  10
   6   5  -3 59336.4 2583.95   6
  -6  -5   3 66571.5 2856.77   4
  -6  -5   3 64799.9 2749.05   7
  -6   5   3 69423.5 2835.05   7
   6  -5  -3 66989.5 2956.10   3
   6   5  -3 67470.1 2817.17   2
  -6   5   3 64183.9 2332.72  13
  -6   5   3 67706.1 2370.20  12
  -6   5   3 65165.7 2932.87  11
   6   5  -2 6274.07 836.496  10
   6   5  -2 6434.15 867.939   6
   6   5  -2 8181.45 962.453   2
  -6  -5   2 7110.75 966.559  14
  -6  -5   2 6110.86 862.635   7
  -6   5   2 7643.12 929.729   7
  -6   5   2 7826.39 848.617  12
  -6   5   2 6910.55 1025.38  11
   6  -5  -2 4900.46 905.507   3
   6   5  -1 5516.79 887.921  10
   6   5  -1 7911.52 1001.60   6
   6   5  -1 4639.06 738.584   2
  -6  -5   1 5648.94 874.534  14
  -6  -5   1 5331.17 799.537   7
  -6   5   1 6456.20 941.921   7
  -6   5   1 6077.29 884.237  12
  -6   5   1 5184.47 1037.94  11
   6  -5  -1 5828.28 915.166   3
  -6  -5   0 33635.1 1986.59  14
  -6  -5   0 34027.6 1884.75   7
  -6   5   0 32519.6 1903.72   7
   6  -5   0 34713.9 2063.92   3
   6   5   0 30502.0 1653.34   2
   6   5   0 32915.4 1962.10   6
   6   5   0 33212.2 1974.94  10
   6   5   1 4332.37 923.908  10
   6   5   1 5037.79 940.027   6
   6   5   1 4480.34 644.202   2
  -6  -5  -1 6302.36 1023.67  14
  -6  -5  -1 5476.16 878.634   7
  -6   5  -1 4490.38 900.482   7
   6  -5   1 5978.18 1034.41   3
   6  -5   2 35188.4 2266.11  15
  -6  -5  -2 41101.2 2449.14  14
  -6  -5  -2 39812.4 2203.64   7
  -6   5  -2 44305.2 2440.57   7
   6  -5   2 39392.9 2340.01   3
   6   5   2 38873.1 2343.65   6
   6   5   2 40084.5 2370.95  10
   6   5   3 9216.08 1202.54  10
   6   5   3 9332.45 1262.65   6
   6  -5   3 8612.09 1229.35  15
  -6  -5  -3 8984.17 1431.00  14
  -6  -5  -3 12359.9 1299.23   7
  -6   5  -3 9074.48 1244.00   7
   6  -5   3 10173.2 1292.24   3
   6   5   4 13193.9 1568.63  10
   6   5   4 10421.6 1395.85   6
   6  -5   4 14549.7 1572.02  15
  -6  -5  -4 12830.6 1416.11   7
  -6   5  -4 10932.9 1383.15   7
   6  -5   4 13517.6 1506.73   3
  -6  -5  -5 150.845 788.006   7
   6  -5   5 1892.90 925.652   3
  -6   6   8 23914.9 1979.98  13
   6   6  -7 3646.83 968.077   2
   6  -6  -7 2886.58 749.861   2
  -6  -6   7 5942.68 1043.39   8
   6  -6  -7 3955.37 989.044  16
  -6   6   7 3065.50 888.421  13
  -6   6   7 3317.05 825.326  11
   6   6  -6 13299.7 1500.46   2
  -6  -6   6 12640.2 1238.47   4
   6  -6  -6 12526.2 1254.13   2
  -6  -6   6 12745.8 1409.01   8
   6  -6  -6 11313.4 1374.05  16
  -6   6   6 13764.5 1330.05  13
  -6   6   6 15041.0 1431.58  11
  -6  -6   5 28055.2 1966.11   8
  -6  -6   5 24771.8 1717.76   4
   6  -6  -5 32778.4 2062.55  16
   6   6  -5 26505.3 1901.87   2
   6  -6  -5 26169.2 1867.06   3
  -6   6   5 25395.4 1733.61   7
  -6   6   5 29215.3 1753.89  13
   6  -6  -5 26085.0 1757.49   2
  -6   6   5 26124.1 1831.17  11
   6   6  -4 27646.1 1591.35  10
  -6  -6   4 28926.5 1970.94   8
  -6  -6   4 27107.0 1822.49   4
   6   6  -4 29291.1 1896.86   2
  -6  -6   4 28117.8 1748.45   7
  -6   6   4 33564.0 1905.16   7
   6  -6  -4 28456.4 1906.55   3
  -6   6   4 29605.1 1626.80  13
  -6   6   4 30927.1 1980.13  11
   6   6  -3 17738.7 1330.92  10
  -6  -6   3 16885.9 1454.32   4
   6   6  -3 17854.5 1413.33   2
  -6  -6   3 19150.9 1384.02   7
  -6   6   3 18002.9 1392.78   7
   6  -6  -3 19771.6 1578.31   3
  -6   6   3 19173.7 1207.68  12
  -6   6   3 19169.3 1563.82  11
   6   6  -2 31909.3 1844.62  10
   6   6  -2 30533.4 1857.57   6
  -6  -6   2 34555.7 2050.90   4
  -6  -6   2 31650.4 1925.39  14
   6   6  -2 33062.6 1844.15   2
  -6  -6   2 33586.9 1819.88   7
  -6   6   2 32065.5 1833.29   7
   6  -6  -2 34761.2 2080.86   3
  -6   6   2 30727.7 1685.84  12
  -6   6   2 31665.3 2049.76  11
   6   6  -1 1662.00 675.906  10
   6   6  -1 1935.20 672.231   6
   6   6  -1 1469.27 548.034   2
  -6  -6   1 1565.25 817.578   4
  -6  -6   1 2044.27 719.349  14
  -6  -6   1 736.896 524.081   7
  -6   6   1 2541.70 673.746   7
  -6   6   1 884.054 587.698  12
  -6   6   1 1799.93 867.197  11
   6  -6  -1 1170.13 690.331   3
  -6  -6   0 13561.7 1347.11  14
  -6  -6   0 14693.3 1209.57   7
  -6   6   0 13885.5 1271.81   7
   6   6   0 13123.2 1067.86   2
   6  -6   0 13372.4 1340.25   3
  -6   6   0 11827.5 1225.25  12
  -6   6   0 10698.9 1301.05  11
   6   6   0 13917.6 1328.57  10
   6   6   0 13738.4 1356.55   6
  -6  -6  -1 30654.2 2058.05  14
  -6  -6  -1 27164.6 1753.16   7
  -6   6  -1 29612.6 1924.64   7
   6  -6   1 32146.7 2119.50   3
  -6   6  -1 28930.8 2006.77  12
  -6   6  -1 29698.0 2065.08  11
   6   6   1 30923.6 2030.74   6
   6   6   1 30306.5 2008.81  10
   6   6   2 14576.9 1502.33  10
   6   6   2 14416.0 1449.27   6
   6  -6   2 17743.8 1641.75  15
  -6  -6  -2 15647.3 1628.75  14
  -6  -6  -2 15338.0 1357.44   7
  -6   6  -2 15773.9 1485.86   7
  -6   6  -2 13071.8 1460.79  11
   6  -6   2 15274.8 1510.43   3
   6   6   3 7126.97 1148.81  10
   6   6   3 8424.07 1273.46   6
   6  -6   3 5603.77 1047.43  15
  -6  -6  -3 5503.86 1242.12  14
  -6  -6  -3 6632.60 1066.91   7
  -6   6  -3 7016.87 1118.15   7
   6  -6   3 5764.16 1049.13   3
  -6  -6  -4 5104.92 1032.22   7
  -6   6  -4 5445.28 1101.31   7
  -6   6  -4 6004.92 1188.40  11
   6  -6   4 5158.98 1063.96   3
  -6  -6  -5 785.451 1053.97   7
  -6   7   8-190.241 751.815  13
  -6  -7   7 30518.8 2255.01   8
   6   7  -7 24997.6 2067.16   2
   6  -7  -7 29250.9 2197.73  16
  -6   7   7 26050.8 2008.98  13
  -6   7   7 25079.9 2046.67   1
  -6   7   7 27868.0 2001.38  11
   6  -7  -6 29671.5 1859.01   5
  -6  -7   6 27896.4 2087.34   8
  -6  -7   6 26609.4 1842.29   4
   6   7  -6 26836.7 2025.23   2
   6  -7  -6 25176.2 1949.46  16
  -6   7   6 27092.1 1904.04  13
   6  -7  -6 24369.8 1786.97   2
  -6   7   6 24099.1 1855.24  11
   6   7  -5 310.352 708.931   2
  -6  -7   5 799.319 675.372   4
  -6  -7   5 722.869 719.931   8
   6  -7  -5-465.986 719.797  16
   6  -7  -5-408.937 633.887   2
  -6   7   5 81.2206 596.753  13
  -6   7   5 818.240 585.451   7
   6  -7  -5 488.055 652.357   3
  -6   7   5-27.3599 677.215  11
   6   7  -4 7583.99 928.899  10
   6   7  -4 7616.62 1034.66   2
  -6  -7   4 7449.15 1112.41   4
  -6  -7   4 8880.71 1182.49   8
  -6   7   4 7234.37 905.162  13
  -6  -7   4 7369.11 935.929   7
  -6   7   4 6699.63 941.420   7
   6  -7  -4 8758.59 1176.39   3
  -6   7   4 8381.09 1182.41  11
   6   7  -3 64992.8 2824.51  10
  -6  -7   3 69295.3 3165.75   8
  -6  -7   3 66488.0 3069.55   4
   6   7  -3 57193.0 2753.05   2
  -6  -7   3 65987.1 2754.98   7
  -6   7   3 65077.6 2788.59   7
   6  -7  -3 71023.1 3175.94   3
  -6   7   3 69897.4 2664.89  12
  -6   7   3 59507.7 3030.93  11
   6   7  -2 5211.80 879.174  10
   6   7  -2 3932.07 774.531   2
  -6  -7   2 5006.19 987.858   4
  -6  -7   2 4791.44 959.458  14
  -6  -7   2 5363.79 789.328   7
  -6   7   2 5865.56 869.107   7
  -6   7   2 5005.95 796.973  12
  -6   7   2 5168.21 1057.00  11
   6  -7  -2 5442.80 1031.45   3
   6   7  -1 18605.8 1556.84  10
   6   7  -1 21832.4 1648.79   6
  -6  -7   1 21116.4 1676.43   4
   6   7  -1 23229.1 1469.46   2
  -6  -7   1 18016.1 1564.97  14
  -6  -7   1 19706.4 1398.45   7
  -6   7   1 20548.8 1503.83   7
   6  -7  -1 20513.8 1701.08   3
  -6   7   1 19955.4 1490.51  12
  -6   7   1 19416.4 1675.42  11
   6   7   0 35792.1 2226.26   6
  -6  -7   0 38928.6 2336.77  14
  -6  -7   0 39091.7 2021.63   7
  -6   7   0 35806.9 2079.70   7
   6  -7   0 39439.0 2364.93   3
  -6   7   0 37659.4 2220.70  12
  -6   7   0 38644.1 2401.73  11
   6   7   0 42294.5 2353.66  10
  -6  -7  -1 26505.6 2002.85  14
  -6  -7  -1 26845.9 1738.21   7
  -6   7  -1 27355.8 1847.79   7
   6  -7   1 30513.3 2106.97   3
  -6   7  -1 30038.8 2068.88  12
  -6   7  -1 28745.9 2078.49  11
   6   7   1 25180.7 1949.44  10
   6   7   1 27437.3 2012.55   6
   6   7   2 2911.75 883.231  10
   6   7   2 3208.53 886.399   6
   6  -7   2 3416.64 1005.65  15
  -6  -7  -2 5592.16 1215.12  14
  -6  -7  -2 2837.11 796.131   7
  -6   7  -2 1769.17 735.361   7
  -6   7  -2 2378.74 858.458  12
  -6   7  -2 3015.19 1011.41  11
   6  -7   2 1836.97 827.636   3
   6   7   3 9646.25 1337.50  10
   6   7   3 10637.6 1426.26   6
   6  -7   3 9478.91 1441.64  15
  -6  -7  -3 10127.3 1526.61  14
  -6   7  -3 10003.3 1260.82   7
  -6   7  -3 10723.3 1622.31  12
  -6   7  -3 8588.98 1326.12  11
   6  -7   3 10422.7 1395.38   3
  -6   7  -4 6147.96 1163.93   7
  -6   7  -4 6185.55 1213.04  11
  -6   8   7 7206.14 1213.88   1
   6  -8  -7 8505.94 1297.19  16
  -6   8   7 7817.51 1266.95  13
  -6   8   7 6388.59 1116.91  11
   6  -8  -6 20602.3 1692.00   5
  -6  -8   6 22437.9 1947.00   8
   6   8  -6 21600.0 1851.54   2
  -6  -8   6 24278.8 1827.87   4
   6  -8  -6 22965.6 1874.79  16
  -6   8   6 23268.6 1824.75  13
  -6   8   6 22797.6 1896.29   1
  -6   8   6 22107.7 1815.44  11
   6   8  -5 4008.80 914.563   2
  -6  -8   5 3727.66 860.141   4
  -6  -8   5 5149.10 1075.23   8
   6  -8  -5 2948.26 820.276  16
  -6   8   5 3000.89 789.531  13
   6  -8  -5 4869.99 996.200   3
  -6   8   5 3351.12 916.587  11
   6   8  -4 5651.46 891.945  10
   6   8  -4 4552.15 906.113   2
  -6  -8   4 5124.49 972.487   4
  -6  -8   4 6854.43 1156.75   8
  -6   8   4 5560.66 868.872   7
   6  -8  -4 6529.63 1027.24   3
  -6   8   4 5526.35 1115.16  11
   6   8  -3 13100.6 1290.43  10
   6   8  -3 12676.2 1262.40   2
  -6  -8   3 13658.1 1455.36   4
  -6  -8   3 13366.0 1465.21   8
  -6   8   3 15205.5 1262.63   7
   6  -8  -3 12396.9 1369.33   3
  -6   8   3 13701.9 1430.19  11
   6   8  -2 5816.47 967.933  10
   6   8  -2 5750.30 864.072   2
  -6  -8   2 4786.94 974.180   4
  -6  -8   2 5973.47 1047.11   8
  -6  -8   2 5268.69 1035.82  14
  -6   8   2 6385.13 860.475   7
  -6   8   2 5723.44 897.586  12
   6  -8  -2 4895.45 938.209   3
  -6   8   2 5508.99 1064.56  11
   6   8  -1 3101.14 855.571  10
  -6  -8   1 3117.38 966.906   4
  -6  -8   1 3611.36 965.890  14
  -6   8   1 1988.87 613.352   7
  -6   8   1 2475.39 680.819  12
  -6   8   1 2084.12 833.412  11
   6  -8  -1 3528.05 874.219   3
   6   8   0 2852.35 850.883  10
   6   8   0 2506.24 835.616   6
  -6  -8   0 4191.62 1025.88   4
  -6  -8   0 2690.36 883.461  14
  -6   8   0 2511.32 688.760   7
  -6   8   0 3579.09 869.562  12
  -6   8   0 2562.80 932.048  11
   6  -8   0 3342.12 917.294   3
   6   8   1 6888.44 1123.64  10
   6   8   1 6310.61 1091.82   6
  -6  -8  -1 6424.21 1160.14  14
  -6   8  -1 7869.00 1076.09   7
  -6   8  -1 6473.54 1104.16  12
  -6   8  -1 6202.49 1135.21  11
   6  -8   1 6127.92 1089.91   3
   6   8   2 10223.4 1362.88  10
   6   8   2 9340.47 1323.68   6
  -6  -8  -2 9244.19 1437.50  14
  -6   8  -2 11260.4 1277.48   7
  -6   8  -2 10899.4 1443.75  12
  -6   8  -2 10529.3 1411.77  11
   6  -8   2 12019.1 1509.70   3
  -6   8  -3-581.351 896.508   7
  -6   8  -3 285.712 764.656  11
   6  -9  -6 2041.32 784.599   5
  -6   9   6 890.648 814.542   1
  -6  -9   6 1531.66 797.206   4
   6  -9  -6 800.389 667.869  16
  -6   9   6 1863.88 836.761  13
  -6   9   6 396.354 741.475  11
   6   9  -5 7300.54 1160.03   2
  -6  -9   5 7150.39 1201.93   4
  -6  -9   5 7172.50 1180.07   8
   6  -9  -5 6375.92 1097.67  16
   6  -9  -5 6172.25 1133.38   3
  -6   9   5 7269.21 1254.55  11
  -6   9   5 6522.08 1083.66   1
   6   9  -4-231.872 635.976   2
   6   9  -4 195.879 620.687  10
  -6  -9   4 1959.74 920.688   4
  -6  -9   4 693.755 871.578   8
   6  -9  -4 407.344 704.327   3
  -6   9   4 1504.99 761.579  11
   6   9  -3 13559.4 1365.63  10
  -6  -9   3 15399.9 1536.18   8
   6   9  -3 15544.2 1389.79   2
  -6  -9   3 13554.4 1466.03   4
   6  -9  -3 14883.6 1554.29   3
  -6   9   3 10911.6 1368.31  11
   6   9  -2 16235.6 1546.83  10
  -6  -9   2 19544.9 1722.67   8
  -6  -9   2 16647.1 1642.07   4
  -6  -9   2 14700.6 1516.75  14
   6  -9  -2 17715.8 1649.72   3
  -6   9   2 15896.9 1434.42  12
  -6   9   2 14137.7 1559.49  11
   6   9  -1 6289.78 1102.37  10
  -6  -9   1 8496.58 1225.75   4
  -6  -9   1 7316.64 1205.24  14
  -6   9   1 8020.20 1119.45  12
  -6   9   1 5303.32 1018.17  11
   6  -9  -1 5578.73 1059.77   3
   6   9   0 8419.41 1258.84  10
  -6  -9   0 5349.20 1073.77   4
  -6  -9   0 5408.66 1258.69  14
  -6   9   0 5808.52 1073.72  12
  -6   9   0 5777.39 1125.71  11
   6  -9   0 6345.93 1109.51   3
   6   9   1 18782.8 1806.24  10
   6   9   1 16731.3 1701.91   6
  -6  -9  -1 16383.7 1672.75   4
  -6  -9  -1 19049.1 1880.74  14
   6  -9   1 15791.3 1688.60   3
  -6   9  -1 16586.5 1688.28  12
  -6   9  -1 17073.3 1750.86  11
  -6   9  -2 14702.6 1670.51  12
  -6   9  -2 14264.2 1634.47  11
  -6   9  -3 2950.00 964.891  11
   6 -10  -6 11658.3 1432.58   5
   6 -10  -6 10551.3 1413.12  16
   6  10  -5 6487.57 1201.60   2
   6 -10  -5 8216.32 1242.43   3
   6  10  -4 3861.40 937.902   2
  -6 -10   4 2711.82 1019.41   4
   6 -10  -4 2266.49 885.372   3
   6  10  -3 5700.68 1054.68  10
  -6 -10   3 4919.20 1114.96   4
  -6 -10   3 5509.68 1119.31   8
   6 -10  -3 6454.44 1221.00   3
  -6  10   3 5993.35 1129.61  11
   6  10  -2 1021.27 760.907  10
  -6 -10   2 499.208 798.333   4
  -6 -10   2 843.280 823.068   8
  -6 -10   2 1173.43 840.593  14
  -6  10   2 1772.55 744.772  12
   6 -10  -2 868.864 767.884   3
  -6  10   2 1403.31 741.468  11
   6  10  -1 605.515 759.029  10
  -6 -10   1 1144.48 894.509   4
  -6 -10   1 670.361 783.995   8
  -6 -10   1 2008.71 863.448  14
  -6  10   1 2377.09 856.523  12
  -6  10   1 2236.74 935.682  11
   6 -10  -1 1973.93 790.099   3
  -6  10   0 4404.87 1000.93  12
  -6  10   0 2529.77 1012.87  11
  -6  10  -1 9506.37 1386.24  12
   6  11  -3-536.742 857.269  10
  -6 -11   1 18421.1 1739.19   8
  -6  11   1 16223.6 1685.71  12
  -6 -11   0 1684.26 757.871   8
  -7   0   9 19832.1 1881.52  13
   7   0  -8 10655.2 1337.76   2
   7   0  -8 7924.16 1248.11  16
  -7   0   8 10757.7 1318.56  13
  -7   0   7 24087.2 1656.72   8
   7   0  -7 21515.3 1790.17   2
  -7   0   7 23237.2 1704.25  13
  -7   0   6 15857.6 1320.86   8
  -7   0   6 17041.8 1558.33   7
   7   0  -6 17321.8 1530.66   2
  -7   0   6 14841.0 1282.16  13
  -7   0   6 16955.8 1299.17  11
   7   0  -5 185.511 611.775   2
  -7   0   5 149.056 513.221  13
  -7   0   5 1147.63 625.043   7
  -7   0   4 89331.3 3606.74   7
   7   0  -4 85328.6 3522.48   2
   7   0  -4 89069.3 2887.72  10
   7   0  -4 86544.8 2819.07   6
  -7   0   3 18836.5 1496.09   7
   7   0  -3 16701.6 1437.05   2
   7   0  -3 18429.2 1171.04   6
   7   0  -3 19822.9 1239.44  10
   7   0  -2 10849.7 1136.04   3
  -7   0   2 10745.9 815.268  14
  -7   0   2 10367.6 1138.86   7
   7   0  -2 10539.3 982.035   6
   7   0  -2 11258.9 1052.88  10
   7   0  -1 41444.7 1844.92  15
   7   0  -1 39098.6 2043.18   3
  -7   0   1 39869.4 1768.66  14
  -7   0   1 41794.9 2239.69   7
   7   0  -1 39575.1 2031.26   6
   7   0  -1 39159.4 2052.99  10
   7   0   0 44600.1 2005.51  15
   7   0   0 43565.4 2128.91   3
  -7   0   0 36945.0 2234.77   7
   7   0   0 40747.5 2186.10   6
   7   0   0 39174.2 2178.89  10
   7   0   1 699.620 695.110   6
   7   0   1 1913.64 810.880  10
   7   0   1 1077.19 534.413  15
  -7   0  -1 976.660 747.092   7
   7   0   1 1982.08 638.715   3
   7   0   2 1193.56 773.531   6
   7   0   2 759.933 698.526  10
  -7   0  -2 1211.46 747.280   7
   7   0   2 1709.35 600.554   3
   7   0   3 2346.61 900.114   6
   7   0   3 1290.67 892.316  10
  -7   0  -3 1881.28 894.390   7
   7  -1  -9 15394.5 1624.73   2
  -7   1   9 14901.6 1639.15  13
   7   1  -8 10444.8 1382.90   2
   7  -1  -8 11820.9 1393.73   2
  -7  -1   8 12349.1 1299.50   8
   7  -1  -8 9864.88 1360.46  16
  -7   1   8 8547.14 1224.26  13
   7   1  -7 611.334 819.039   2
   7  -1  -7 1417.03 777.086   2
  -7  -1   7 2307.72 703.366   8
   7  -1  -7 2843.99 1028.73  16
  -7   1   7-52.0981 704.072  13
  -7   1   6 12867.4 1135.59   8
   7  -1  -6 12645.4 1407.87   2
  -7  -1   6 12418.9 1218.45   8
  -7  -1   6 12833.7 1346.95   7
   7   1  -6 15961.9 1478.92   2
  -7   1   6 13636.4 1238.72  13
  -7   1   6 12910.1 1378.85   7
  -7   1   6 13635.1 1188.05  11
   7   1  -5 910.763 638.725   2
   7  -1  -5 229.630 681.897   2
  -7  -1   5 202.970 533.398   8
  -7   1   5-562.262 524.470  13
  -7  -1   5-79.1010 633.265   7
  -7   1   5 158.748 588.360   7
  -7  -1   4 37729.8 1619.92  14
  -7  -1   4 35854.2 2110.44   7
  -7   1   4 36749.7 2149.50   7
   7   1  -4 37711.6 2180.50   2
   7  -1  -4 35621.7 2122.19   2
   7  -1  -4 36030.8 1614.91  10
   7   1  -4 38534.0 1659.31  10
   7   1  -4 37473.6 1638.24   6
   7   1  -3 8542.64 1062.41   2
  -7  -1   3 9570.50 801.653  14
   7  -1  -3 9600.24 1143.50   2
  -7  -1   3 9621.08 1115.29   7
  -7   1   3 8332.11 1102.70   7
   7  -1  -3 9068.60 824.117   6
   7  -1  -3 9315.68 884.386  10
   7   1  -3 8449.15 831.808   6
   7   1  -3 9053.09 882.576  10
   7  -1  -2 9598.95 936.943   6
   7   1  -2 9380.93 953.411   6
  -7  -1   2 9493.38 836.080  14
   7   1  -2 9304.78 1067.36   2
  -7  -1   2 9193.12 1082.53   7
  -7   1   2 11477.6 1220.62   7
   7  -1  -2 9457.00 1062.39   3
   7   1  -2 10546.4 1008.85  10
   7   1  -1 62517.6 2282.41  15
   7  -1  -1 63697.7 2762.91   3
  -7  -1   1 62805.2 2448.65  14
  -7  -1   1 57061.0 2802.07   7
  -7   1   1 60550.1 2904.78   7
   7  -1  -1 63960.6 2691.88   6
   7   1  -1 63314.2 2714.61   6
   7   1  -1 59523.8 2679.04  10
   7  -1   0 36157.1 1906.55  15
   7   1   0 39604.1 1775.16  15
   7   1   0 37448.9 2043.18   3
   7  -1   0 39679.8 2085.25   3
  -7  -1   0 37087.8 1988.96  14
  -7  -1   0 35611.2 2174.73   7
  -7   1   0 37692.9 2206.60   7
   7  -1   0 37464.9 2096.52   6
   7   1   0 37902.6 2144.64   6
   7   1   0 32901.6 2036.94  10
   7  -1   1 29199.3 1735.24  15
   7   1   1 31574.7 1734.63   3
   7  -1   1 25649.4 1705.53   3
  -7  -1  -1 26972.8 1883.07   7
  -7   1  -1 27364.6 1927.54   7
   7  -1   1 21156.7 1706.62   6
   7   1   1 23800.6 1791.86   6
   7   1   1 28171.5 1926.59  10
   7  -1   2 4639.21 1024.39   6
   7   1   2 3365.53 958.006  10
   7   1   2 2667.38 887.335   6
   7  -1   2 3964.44 841.828  15
  -7  -1  -2 3002.83 867.839   7
  -7   1  -2 3592.00 893.356   7
   7  -1   2 3237.81 751.408   3
   7  -1   2 3023.10 932.769  10
   7  -1   3 13870.1 1531.35   6
   7  -1   3 12650.8 1476.30  10
   7   1   3 13036.9 1513.11  10
   7   1   3 11961.7 1461.06   6
   7  -1   3 15484.6 1337.02   3
  -7  -1  -3 13316.3 1494.45   7
  -7   1  -3 15545.0 1631.92   7
  -7  -1  -4 19505.3 1846.49   7
   7  -2  -9 15795.2 1662.95   2
  -7   2   9 18229.8 1786.73  13
   7   2  -8 5785.11 1151.33   2
   7  -2  -8 7543.18 1183.61   2
  -7  -2   8 9224.83 1208.96   8
   7  -2  -8 9711.56 1382.27  16
  -7   2   8 7984.67 1249.35  13
  -7  -2   7 25886.4 1829.60   8
   7  -2  -7 24184.2 1953.07  16
   7   2  -7 25509.8 1969.60   2
   7  -2  -7 26650.0 1939.86   2
  -7   2   7 27693.5 1827.88  13
  -7  -2   6 50664.8 2608.08   8
  -7  -2   6 52885.5 2795.65   7
  -7   2   6 58081.6 2906.00   7
   7   2  -6 56752.9 2864.10   2
  -7   2   6 56182.5 2500.16  13
   7  -2  -6 56545.2 2862.92   2
  -7   2   6 52472.8 2477.53  11
  -7  -2   5 21979.0 1600.53   8
  -7  -2   5 21593.9 1675.11   7
  -7   2   5 21837.4 1675.95   7
   7   2  -5 19567.4 1621.50   2
  -7   2   5 18579.1 1232.06  13
   7  -2  -5 21483.8 1649.69   2
  -7   2   5 22287.6 1601.81  11
   7   2  -4 18956.1 1174.69   6
  -7  -2   4 20425.4 1573.33   7
  -7   2   4 20561.4 1626.09   7
   7   2  -4 21473.4 1622.45   2
   7  -2  -4 20495.3 1592.02   2
   7   2  -4 21315.8 1220.43  10
   7  -2  -3 20277.7 1558.54   3
  -7  -2   3 23194.0 1303.70  14
  -7  -2   3 19471.5 1548.32   7
  -7   2   3 19820.3 1561.59   7
   7   2  -3 19490.0 1512.95   2
   7  -2  -3 18861.2 1196.63   6
   7   2  -3 19815.9 1279.86  10
   7   2  -3 20523.3 1306.65   6
   7  -2  -2 66532.6 2909.70   3
  -7  -2   2 66223.4 2545.22  14
  -7  -2   2 68823.5 2957.22   7
  -7   2   2 67214.7 2965.19   7
   7   2  -2 63688.8 2820.62   2
   7  -2  -2 64878.2 2602.65   6
   7   2  -2 62048.7 2611.64   6
   7   2  -2 59742.0 2613.43  10
   7   2  -1 2196.39 676.836  10
   7   2  -1 3466.58 764.190   6
   7   2  -1 4625.61 851.056   2
  -7  -2   1 3223.66 681.841  14
  -7  -2   1 3452.11 830.416   7
  -7   2   1 3717.02 843.436   7
   7  -2  -1 4088.56 839.772   3
   7  -2  -1 3090.28 759.548   6
   7  -2   0 14419.6 1331.98   3
  -7  -2   0 12895.5 1203.15  14
  -7  -2   0 11692.2 1270.46   7
  -7   2   0 12173.2 1301.49   7
   7   2   0 15297.1 1384.79   6
   7   2   0 13758.5 1364.02  10
   7   2   1 6987.14 1097.95  10
   7   2   1 7098.58 1103.88   6
   7  -2   1 5460.46 876.393  15
  -7  -2  -1 6818.97 1054.54  14
  -7  -2  -1 8249.12 1125.54   7
  -7   2  -1 7501.12 1110.85   7
   7   2   1 7563.43 855.120   3
   7  -2   1 6823.20 972.617   3
   7   2   2 2059.67 875.757  10
   7   2   2 3092.65 950.951   6
   7  -2   2 3166.63 798.738  15
  -7  -2  -2 4331.38 960.047   7
  -7   2  -2 3843.41 957.519   7
   7  -2   2 3330.83 786.448   3
   7   2   3 3115.49 978.064  10
   7   2   3 2985.79 969.110   6
   7  -2   3 1101.76 725.895  15
  -7  -2  -3 3199.83 939.688   7
  -7   2  -3 593.066 824.671   7
   7  -2   3 3674.25 975.308   6
   7  -2   3 992.885 660.436   3
  -7  -2  -4 17292.1 1800.10   7
   7  -3  -9-140.639 794.406   2
  -7  -3   9 786.992 839.832   8
  -7   3   9 420.573 822.546  13
   7   3  -8 2262.47 926.682   2
   7  -3  -8 1211.58 765.044   2
  -7  -3   8 491.936 778.046   8
   7  -3  -8 884.953 724.779  16
  -7   3   8 135.448 694.035  13
   7   3  -7 1105.32 675.816   2
   7  -3  -7 218.791 714.730   2
  -7  -3   7 1699.90 792.467   8
   7  -3  -7-110.298 811.404  16
  -7   3   7 765.979 668.120  13
   7   3  -6 441.594 745.086   2
   7  -3  -6 88.6480 591.427   2
  -7  -3   6 1080.41 659.305   8
  -7   3   6 790.710 566.830  13
  -7  -3   6-514.048 781.452   7
  -7   3   6-311.561 665.526   7
  -7   3   6 672.192 628.239  11
   7   3  -5 2155.15 845.449   2
  -7  -3   5 2984.95 806.770   8
   7  -3  -5 2020.33 786.412   2
  -7  -3   5 618.994 674.101   7
  -7   3   5 2251.87 835.222   7
  -7   3   5 2163.87 762.951  11
   7   3  -4 1306.90 450.515  10
   7   3  -4 1526.10 479.390   6
   7   3  -4 1708.73 712.969   2
   7  -3  -4 2051.39 748.033   2
  -7  -3   4 1037.83 627.925   7
  -7   3   4 1559.10 702.844   7
  -7   3   4 1443.87 728.500  11
   7  -3  -3 33893.3 2065.69   3
  -7  -3   3 32844.5 1709.50  14
  -7  -3   3 31121.7 1928.01   7
  -7   3   3 30167.1 1931.93   7
   7   3  -3 30693.4 1896.22   2
   7  -3  -3 31842.1 1597.83   6
   7   3  -3 29139.8 1640.17  10
   7   3  -3 30428.4 1656.38   6
  -7  -3   2 22182.1 1427.92  14
   7  -3  -2 21865.7 1629.38   3
  -7  -3   2 17765.3 1477.16   7
  -7   3   2 19949.1 1544.23   7
   7   3  -2 19807.7 1498.08   2
   7   3  -2 20752.8 1432.53   6
   7   3  -2 20934.9 1448.87  10
  -7  -3   1 22116.9 1503.65  14
   7  -3  -1 24242.9 1745.27   3
  -7  -3   1 20795.2 1607.83   7
  -7   3   1 24408.3 1750.36   7
   7   3  -1 27654.9 1667.60   2
   7   3  -1 23037.4 1601.17   6
   7   3  -1 25986.7 1689.33  10
  -7  -3   0 13937.5 1311.72  14
   7  -3   0 16867.0 1452.46   3
  -7  -3   0 15255.0 1387.14   7
  -7   3   0 15655.6 1432.37   7
   7   3   0 13410.6 1244.41   2
   7   3   0 13001.3 1357.10   6
   7   3   0 13489.3 1374.44  10
   7   3   1 10118.9 1244.79  10
   7   3   1 11981.5 1280.11   6
   7  -3   1 11682.7 1264.25  15
  -7  -3  -1 11405.3 1271.49  14
  -7  -3  -1 11496.3 1287.31   7
  -7   3  -1 9977.16 1229.01   7
   7   3   1 10265.6 1081.84   2
   7  -3   1 8397.00 1094.43   3
   7   3   2-250.974 683.476  10
   7   3   2 258.737 758.203   6
   7  -3   2 1208.53 676.943  15
  -7  -3  -2 2093.99 976.994  14
  -7  -3  -2 1441.64 723.320   7
  -7   3  -2 744.995 691.660   7
   7  -3   2 797.628 664.509   3
   7  -3   3 31156.8 2163.85  15
  -7  -3  -3 34001.1 2315.36   7
   7  -3   3 32909.0 2143.75   3
  -7   3  -3 33367.7 2331.28   7
   7   3   3 29185.7 2208.72   6
   7   3   3 38170.8 2479.68  10
  -7  -3  -4 3366.80 936.256   7
   7  -3   4 3902.14 902.245   3
  -7  -4   8 20400.6 1839.36   8
   7  -4  -8 23475.4 1883.50   2
  -7   4   8 23916.8 1897.69  13
   7   4  -7 5160.82 1112.39   2
   7  -4  -7 4256.19 1021.15   2
  -7  -4   7 4316.17 1018.83   8
   7  -4  -7 2933.24 980.565  16
  -7   4   7 5527.10 962.414  13
  -7   4   7 5587.03 914.744  11
  -7  -4   6 29828.0 2094.73   8
   7  -4  -6 26542.5 2005.50  16
  -7   4   6 29757.3 2051.90   7
   7   4  -6 30715.4 2137.38   2
  -7   4   6 32824.3 1850.52  13
   7  -4  -6 30728.4 2052.06   2
  -7   4   6 30102.2 1943.69  11
  -7  -4   5 21010.3 1684.92   8
  -7  -4   5 20508.1 1627.32   7
  -7   4   5 18807.1 1613.25   7
   7   4  -5 17320.7 1577.06   2
   7  -4  -5 17600.1 1586.51   2
  -7   4   5 18167.5 1535.83  11
   7   4  -4 16964.2 1186.11  10
   7  -4  -4 17327.3 1549.84   3
  -7  -4   4 17999.4 1493.96   7
  -7   4   4 18594.6 1512.36   7
   7   4  -4 16464.7 1463.10   2
  -7   4   4 14845.2 1447.74  11
   7   4  -3 4799.04 755.644  10
   7   4  -3 4909.70 775.421   6
   7   4  -3 5732.50 936.988   2
  -7  -4   3 6436.84 867.011  14
  -7  -4   3 5713.76 917.433   7
  -7   4   3 4700.89 860.832   7
  -7   4   3 5920.89 1063.51  11
   7  -4  -3 5019.31 944.379   3
  -7  -4   2 44587.8 2176.44  14
   7  -4  -2 40714.0 2349.71   3
  -7  -4   2 38228.9 2186.56   7
  -7   4   2 40517.4 2262.98   7
   7   4  -2 46377.0 2267.40   2
  -7   4   2 42248.9 1964.64  12
   7   4  -2 41597.8 2133.38  10
   7   4  -2 39416.0 2096.37   6
   7   4  -1 3639.48 764.296  10
   7   4  -1 3513.32 791.466   6
   7   4  -1 3719.24 747.677   2
  -7  -4   1 3364.96 813.582  14
  -7  -4   1 3510.27 812.396   7
  -7   4   1 3417.64 855.958   7
   7  -4  -1 2242.68 748.148   3
  -7  -4   0 19720.3 1587.21  14
  -7  -4   0 21612.0 1608.68   7
   7  -4   0 18299.1 1557.73   3
  -7   4   0 16320.0 1464.74   7
   7   4   0 15640.5 1332.28   2
   7   4   0 17047.8 1503.62   6
   7   4   0 14071.7 1438.32  10
   7  -4   1 14102.5 1411.77  15
  -7  -4  -1 16142.0 1532.01  14
  -7  -4  -1 16433.1 1472.92   7
  -7   4  -1 15460.1 1489.37   7
   7   4   1 16979.3 1291.30   2
   7  -4   1 13317.2 1426.47   3
   7   4   1 13873.4 1475.14   6
   7   4   1 15999.1 1561.02  10
   7   4   2 9818.85 1312.44  10
   7   4   2 13068.7 1533.45   6
   7  -4   2 12434.4 1373.02  15
  -7  -4  -2 13800.2 1537.23  14
  -7  -4  -2 11546.3 1350.77   7
  -7   4  -2 13097.7 1442.72   7
   7  -4   2 11467.4 1310.16   3
   7   4   3 2495.89 974.054  10
   7   4   3 1711.75 799.313   6
   7  -4   3 1489.44 777.539  15
  -7  -4  -3 2732.13 896.289   7
  -7   4  -3 2104.04 911.345   7
   7  -4   3 3093.17 900.606   3
   7  -4   4 1839.16 878.483   3
   7  -5  -8 15310.2 1537.84   2
  -7   5   8 13414.0 1486.42  13
   7   5  -7 2345.32 924.073   2
   7  -5  -7 2004.80 854.642   2
  -7  -5   7 2919.74 940.240   8
   7  -5  -7 1385.07 797.120  16
  -7   5   7 241.623 717.535  13
  -7   5   7 2263.80 757.127  11
   7   5  -6 11963.4 1383.42   2
   7  -5  -6 10722.7 1282.25   2
  -7  -5   6 11519.2 1389.44   8
   7  -5  -6 9780.47 1338.49  16
  -7   5   6 8275.26 1179.45   7
  -7   5   6 9233.72 1188.17  11
   7   5  -5 10640.5 1323.80   2
  -7  -5   5 7415.11 1091.95   8
   7  -5  -5 7936.72 1173.80   2
  -7  -5   5 8291.54 1133.96   7
  -7   5   5 9239.36 1148.84   7
  -7   5   5 7849.21 1156.59  11
   7   5  -4 2583.96 583.192  10
   7   5  -4 3344.17 802.884   2
  -7  -5   4 3233.39 899.759   8
  -7  -5   4 2360.45 783.216   7
  -7   5   4 1675.42 737.837   7
   7  -5  -4 1682.77 694.709   3
  -7   5   4 1463.38 778.047  11
   7   5  -3 11055.0 1079.70  10
   7   5  -3 10990.4 1123.26   6
   7   5  -3 10321.4 1160.17   2
  -7  -5   3 11988.7 1226.31   7
  -7  -5   3 12020.1 1178.45  14
  -7   5   3 12038.4 1260.99   7
   7  -5  -3 12893.9 1393.75   3
  -7   5   3 11232.6 1313.61  11
   7   5  -2 4875.83 866.292  10
   7   5  -2 3085.02 760.860   6
   7   5  -2 3159.52 762.948   2
  -7  -5   2 4589.60 913.854  14
  -7  -5   2 3750.62 809.062   7
  -7   5   2 5529.20 952.182   7
  -7   5   2 4635.80 743.798  12
   7  -5  -2 4473.75 995.727   3
  -7   5   2 4503.79 1033.55  11
   7   5  -1 6427.00 982.354  10
   7   5  -1 3832.40 867.525   6
   7   5  -1 6844.38 903.329   2
  -7  -5   1 6002.08 966.851  14
  -7  -5   1 5847.17 903.069   7
  -7   5   1 5930.72 991.176   7
  -7   5   1 5402.40 883.029  12
   7  -5  -1 6117.09 1052.08   3
  -7  -5   0 32581.6 2080.75  14
  -7  -5   0 29205.0 1893.80   7
  -7   5   0 31808.9 2044.59   7
   7  -5   0 31736.8 2081.73   3
   7   5   0 26476.7 1659.59   2
   7   5   0 30122.8 2009.87   6
   7   5   0 30985.1 2039.41  10
  -7  -5  -1 32407.3 2159.45  14
  -7  -5  -1 36732.2 2228.23   7
  -7   5  -1 36044.4 2242.43   7
   7  -5   1 34204.5 2235.03   3
   7   5   1 31640.1 2202.37   6
   7   5   1 36995.8 2318.14  10
   7   5   2 10210.7 1408.57  10
   7   5   2 9961.92 1373.92   6
   7  -5   2 12330.0 1403.60  15
  -7  -5  -2 12927.1 1509.60  14
  -7  -5  -2 13767.1 1425.07   7
  -7   5  -2 11222.8 1384.14   7
   7  -5   2 12405.5 1436.22   3
   7  -5   3 3661.16 1011.54  15
  -7  -5  -3 2205.82 1131.54  14
  -7  -5  -3 2654.31 857.058   7
  -7   5  -3 1637.67 760.947   7
   7  -5   3 2380.74 808.214   3
   7  -6  -7 2066.19 763.121   2
  -7  -6   7 2124.73 874.937   8
   7  -6  -7 1939.97 891.726  16
  -7   6   7 2186.85 791.017  11
  -7  -6   6 52093.4 2885.86   8
   7  -6  -6 41219.7 2592.96  16
   7   6  -6 44297.2 2650.98   2
  -7   6   6 44198.8 2534.20   7
   7  -6  -6 43133.6 2600.70   2
  -7   6   6 41726.2 2503.61  11
   7   6  -5 5756.82 1064.46   2
  -7  -6   5 7011.19 1182.77   8
   7  -6  -5 7637.68 1133.46   3
   7  -6  -5 4720.40 1051.67   2
  -7  -6   5 5818.52 973.736   7
  -7   6   5 8759.98 1153.40   7
  -7   6   5 7381.79 1136.67  11
   7   6  -4 16615.3 1301.27  10
   7   6  -4 13909.6 1416.20   2
  -7  -6   4 16487.7 1623.30   8
  -7  -6   4 19418.3 1536.38   7
   7  -6  -4 18684.8 1635.03   3
  -7   6   4 15038.1 1415.55   7
  -7   6   4 17002.7 1610.81  11
   7   6  -3 52547.5 2495.19  10
  -7  -6   3 51570.4 2614.03  14
  -7  -6   3 52202.8 2573.44   7
   7   6  -3 52442.3 2590.62   2
  -7   6   3 50940.1 2591.32   7
   7  -6  -3 53268.3 2819.85   3
  -7   6   3 51856.7 2783.87  11
   7   6  -2 46683.1 2495.05   6
  -7  -6   2 48298.1 2527.38  14
  -7  -6   2 47511.2 2422.62   7
  -7   6   2 51768.2 2594.69   7
   7   6  -2 46514.3 2385.26   2
   7  -6  -2 55615.3 2823.57   3
  -7   6   2 50053.6 2315.53  12
  -7   6   2 44829.7 2658.49  11
   7   6  -2 46963.7 2438.50  10
   7   6  -1 10219.3 1246.27  10
   7   6  -1 11253.7 1299.69   6
  -7  -6   1 11977.3 1222.32   7
  -7  -6   1 12447.0 1345.33  14
   7   6  -1 12723.8 1184.46   2
  -7   6   1 11137.5 1248.83   7
  -7   6   1 10473.6 1181.75  12
  -7   6   1 9746.61 1303.69  11
   7  -6  -1 12843.7 1423.57   3
   7   6   0 12049.4 1388.85  10
   7   6   0 13919.7 1459.53   6
  -7  -6   0 13749.3 1490.20  14
  -7  -6   0 12539.1 1263.95   7
  -7   6   0 13016.6 1347.18   7
  -7   6   0 12995.6 1397.97  12
  -7   6   0 12864.6 1560.92  11
   7  -6   0 15172.5 1551.48   3
   7   6   1 928.284 827.386  10
   7   6   1 747.963 739.426   6
  -7  -6  -1 912.278 901.893  14
  -7  -6  -1 358.185 636.168   7
  -7   6  -1-239.139 569.346   7
  -7   6  -1 219.153 781.852  12
  -7   6  -1-1482.16 998.134  11
   7  -6   1 253.243 758.771   3
   7   6   2 3291.65 1027.44  10
   7   6   2 4380.16 1073.09   6
   7  -6   2 4589.98 1041.71  15
  -7  -6  -2 2632.07 1097.88  14
  -7  -6  -2 3706.62 843.983   7
  -7   6  -2 5131.10 1040.00   7
   7  -6   2 4314.23 1087.56   3
  -7  -6  -3 2378.20 825.871   7
  -7   6  -3 2150.21 921.419   7
  -7   7   7 5702.26 1073.86  11
   7   7  -6 4250.56 1069.58   2
  -7  -7   6 5546.35 1082.67   8
   7  -7  -6 5308.06 1042.21  16
  -7  -7   6 4747.45 984.155   4
   7  -7  -6 6564.62 1092.80   2
  -7   7   6 6108.28 1082.70  11
   7   7  -5 1528.90 871.451   2
  -7  -7   5 304.186 736.699   8
  -7  -7   5 775.458 776.404   4
   7  -7  -5-414.779 688.395   2
  -7   7   5 350.419 598.643   7
   7  -7  -5 1201.15 879.418   3
  -7   7   5 443.553 769.502  11
   7   7  -4 4363.47 808.166  10
   7   7  -4 3008.84 914.277   2
  -7  -7   4 3558.49 942.412   8
  -7  -7   4 4604.29 1044.85   4
  -7  -7   4 2558.42 732.431   7
  -7   7   4 4079.56 882.134   7
   7  -7  -4 1632.57 799.687   3
  -7   7   4 2912.63 983.754  11
   7   7  -3 18120.4 1489.58  10
  -7  -7   3 18635.8 1676.00   8
  -7  -7   3 18480.7 1634.10   4
   7   7  -3 16484.9 1449.55   2
  -7  -7   3 17536.1 1552.98  14
  -7  -7   3 15343.2 1395.10   7
  -7   7   3 18257.8 1529.21   7
   7  -7  -3 16570.5 1627.33   3
  -7   7   3 16294.5 1633.43  11
   7   7  -2 11021.2 1275.94  10
   7   7  -2 9987.81 1194.46   6
   7   7  -2 10142.8 1144.71   2
  -7  -7   2 10024.3 1220.22  14
  -7  -7   2 8070.73 1033.96   7
  -7   7   2 10837.9 1190.74   7
   7  -7  -2 11895.8 1427.31   3
  -7   7   2 10083.2 1338.03  11
   7   7  -1 123.435 622.200  10
   7   7  -1-168.935 708.722   6
  -7  -7   1 447.755 670.836  14
  -7  -7   1 823.242 531.675   7
  -7   7   1 159.186 623.161   7
  -7   7   1 1402.75 703.736  12
  -7   7   1 695.177 740.461  11
   7  -7  -1 670.205 711.966   3
   7   7   0 38966.1 2413.87   6
  -7  -7   0 33677.1 2294.68  14
  -7  -7   0 36056.8 2123.11   7
  -7   7   0 36283.2 2252.90   7
   7  -7   0 36690.8 2419.30   3
  -7   7   0 35261.8 2269.57  12
  -7   7   0 38953.9 2501.21  11
   7   7   0 34972.1 2317.09  10
   7   7   1 1192.62 899.783  10
   7   7   1 3059.18 1023.55   6
  -7  -7  -1 2078.26 876.696  14
  -7   7  -1 2072.06 740.651   7
  -7   7  -1 782.822 742.376  12
  -7   7  -1 1987.19 987.552  11
   7  -7   1 1710.09 774.213   3
  -7   7  -2 9208.58 1228.11   7
  -7   7  -2 5497.83 1225.67  12
  -7   7  -2 7537.29 1334.83  11
  -7  -8   6 22790.8 1891.45   4
   7  -8  -6 18618.0 1827.73  16
  -7   8   6 24124.8 2036.07  11
   7   8  -5 12175.4 1412.33   2
  -7  -8   5 11747.2 1389.63   4
   7  -8  -5 12384.4 1471.38   3
  -7   8   5 11158.2 1462.18  11
   7   8  -4 17870.1 1503.99  10
  -7  -8   4 22519.2 1928.94   8
  -7  -8   4 20588.6 1790.66   4
   7   8  -4 21025.5 1712.28   2
   7  -8  -4 19288.1 1828.76   3
  -7   8   4 19939.9 1832.59  11
   7   8  -3 2503.25 779.474  10
   7   8  -3 1125.90 700.749   2
  -7  -8   3 971.499 899.632   4
  -7  -8   3 1258.85 844.294   8
  -7  -8   3 146.673 761.345  14
  -7   8   3 2190.99 744.296   7
   7  -8  -3 2217.51 816.363   3
  -7   8   3 3263.31 994.392  11
   7   8  -2 1039.92 647.308  10
  -7  -8   2 2219.71 913.091   4
  -7  -8   2 996.567 789.659  14
  -7   8   2 1222.35 662.449   7
   7  -8  -2 1913.35 963.313   3
  -7   8   2 2034.84 1029.54  11
   7   8  -1 6423.67 1130.13  10
   7   8  -1 7062.98 1143.33   6
  -7  -8   1 5781.26 1139.90  14
  -7   8   1 6398.76 1006.71   7
  -7   8   1 6683.46 1049.68  12
  -7   8   1 8038.70 1318.29  11
   7  -8  -1 8368.17 1282.26   3
   7   8   0 17183.4 1702.00  10
   7   8   0 14302.0 1561.57   6
  -7  -8   0 12433.8 1493.63  14
  -7   8   0 12177.6 1334.16   7
  -7   8   0 13612.3 1496.60  12
  -7   8   0 15560.9 1705.41  11
   7  -8   0 15482.9 1642.15   3
  -7   8  -1 671.736 659.517   7
  -7   8  -1-2.65756 819.684  12
  -7   8  -1 1207.59 1051.79  11
  -7   8  -2 2408.04 874.698   7
   7   9  -5 115.597 786.984   2
   7   9  -4 7900.42 1165.94   2
   7  -9  -4 6669.41 1195.92   3
   7   9  -3 1617.18 718.948  10
  -7  -9   3 648.301 869.449  14
   7  -9  -3 1966.40 861.266   3
  -7  -9   2 8864.47 1289.28   8
  -7  -9   2 7590.35 1309.58  14
   7  -9  -2 7178.88 1253.09   3
   7   9  -1 3283.05 992.952  10
  -7  -9   1 1919.16 888.151  14
  -7   9   1 3454.02 892.521  12
  -7   9   0 6774.33 1170.05  12
   7  10  -3 2824.58 890.665  10
   8   0  -7-310.792 660.555   2
  -8   0   7-158.416 812.210   7
  -8   0   6 27979.5 1857.81   8
  -8   0   6 25204.3 2029.28   7
   8   0  -6 26207.0 1991.59   2
   8   0  -5 3346.24 876.986   2
  -8   0   5 1557.38 754.504   7
  -8   0   4 55395.2 2880.95   7
   8   0  -4 59083.1 2948.44   2
   8   0  -3 898.129 574.987  10
   8   0  -3 785.690 469.475   6
   8   0  -3 759.486 703.131   2
  -8   0   3 779.125 719.314   7
  -8   0   2 14750.0 1444.87   7
   8   0  -2 18427.1 1547.85   2
   8   0  -2 18193.0 1402.21   6
   8   0  -2 16281.8 1360.08  10
   8   0  -1 7801.20 1061.04  10
   8   0  -1 9021.43 1101.87   6
  -8   0   1 9541.80 1253.50   7
   8   0  -1 10219.2 1183.88   3
   8   0   0 6826.05 1117.28  10
   8   0   0 5666.34 997.285   6
   8   0   0 5137.70 822.185  15
  -8   0   0 6519.10 1136.02   7
   8   0   0 5517.84 932.792   3
   8   0   1 9939.60 1355.68  10
   8   0   1 7498.39 1115.41   6
   8   0   1 7614.57 969.011  15
  -8   0  -1 10286.4 1388.95   7
   8   0   1 8593.65 1076.62   3
  -8   0  -2 23925.8 2007.31   7
   8   0   2 21634.7 1885.52   6
   8   0   2 22041.6 1942.35  10
   8  -1  -7 15827.5 1612.87   2
  -8  -1   7 15938.2 1510.49   8
  -8   1   7 15480.1 1716.23   7
   8   1  -7 19150.9 1750.65   2
   8   1  -6 10636.0 1384.04   2
  -8   1   6 11692.4 1205.75   8
   8  -1  -6 9970.23 1305.37   2
  -8  -1   6 9640.81 1179.11   8
  -8  -1   6 11164.4 1323.11   7
  -8   1   6 11413.6 1447.36   7
  -8   1   6 9675.79 1167.57  11
   8   1  -5 4801.14 1030.67   2
   8  -1  -5 4557.47 965.080   2
  -8  -1   5 4737.27 1026.44   7
  -8   1   5 6630.38 1155.06   7
  -8  -1   4 20968.9 1725.34   7
  -8   1   4 17714.2 1634.66   7
   8   1  -4 19661.1 1672.50   2
   8  -1  -4 18106.7 1596.64   2
   8  -1  -3 624.868 512.779  10
   8   1  -3 968.459 543.954  10
   8  -1  -3-346.692 493.395   6
   8   1  -3 801.761 536.078   6
   8   1  -3 1684.87 681.955   2
   8  -1  -3-860.126 785.040   2
  -8  -1   3 1213.06 683.973   7
  -8   1   3 230.415 593.064   7
   8  -1  -2 4632.05 869.013  10
   8  -1  -2 4925.07 823.657   6
   8   1  -2 3701.19 813.264  10
   8   1  -2 5436.11 834.117   6
   8   1  -2 3855.88 854.767   2
  -8  -1   2 5155.02 982.833   7
  -8   1   2 5183.07 1040.65   7
   8  -1  -2 5497.91 960.859   3
   8  -1  -1 16413.4 1274.67  15
   8  -1  -1 12879.9 1337.46   3
  -8  -1   1 14492.8 1478.60   7
  -8   1   1 14925.1 1531.18   7
   8   1  -1 14585.6 1427.77   2
   8  -1  -1 14689.2 1348.38   6
   8   1  -1 16973.0 1435.84   6
   8  -1  -1 16176.8 1394.47  10
   8   1  -1 15295.8 1398.67  10
   8  -1   0 12199.6 1342.61  10
   8   1   0 14508.3 1480.75  10
   8   1   0 13211.4 1364.95   6
   8  -1   0 14750.5 1264.47  15
   8   1   0 14122.9 1275.40   3
   8  -1   0 14570.9 1399.44   3
  -8  -1   0 12814.5 1414.35   7
  -8   1   0 15151.8 1532.56   7
   8  -1   0 15618.5 1438.14   6
   8  -1   1 5284.51 1049.29   6
   8  -1   1 4540.94 1096.93  10
   8   1   1 7068.73 1188.97  10
   8   1   1 5707.28 1105.49   6
   8  -1   1 6718.15 946.276  15
  -8  -1  -1 8768.22 1252.55   7
  -8   1  -1 4802.31 1041.50   7
   8  -1   1 6829.43 1051.84   3
   8  -1   2 8848.37 1375.28   6
   8  -1   2 7462.44 1273.56  10
   8   1   2 9892.83 1368.43  10
   8   1   2 7945.44 1263.89   6
   8  -1   2 9251.32 1158.38  15
  -8  -1  -2 13986.6 1622.48   7
  -8   1  -2 8677.67 1353.46   7
   8  -1   2 12753.8 1307.64   3
  -8  -2   8 14808.0 1538.01   8
   8   2  -7 902.514 726.584   2
   8  -2  -7 2395.88 906.840   2
  -8  -2   7 1909.26 774.280   8
  -8   2   7 1815.26 846.509   7
   8   2  -6 2041.06 836.452   2
   8  -2  -6 2564.96 891.678   2
  -8  -2   6 1880.37 772.076   8
  -8  -2   6 1143.55 745.227   7
  -8   2   6 3096.13 900.650   7
  -8   2   6 2484.17 733.288  11
   8   2  -5 4410.67 1028.14   2
   8  -2  -5 6621.43 1144.14   2
  -8  -2   5 8456.69 1203.55   7
  -8   2   5 7485.87 1233.41   7
  -8   2   5 8032.00 1175.38  11
   8   2  -4 5665.38 1037.27   2
   8  -2  -4 4830.18 1024.38   2
  -8  -2   4 6421.57 1045.07   7
  -8   2   4 5124.51 1040.51   7
   8   2  -3 11652.1 1331.41   2
  -8  -2   3 14314.9 1412.71   7
  -8   2   3 13708.1 1428.71   7
   8  -2  -3 13891.5 1456.84   3
   8  -2  -3 13730.3 1121.86   6
   8   2  -3 14676.6 1224.36   6
   8   2  -3 12898.7 1175.92  10
   8  -2  -2 21515.2 1711.12   3
  -8  -2   2 22828.9 1438.50  14
  -8  -2   2 19435.0 1657.28   7
  -8   2   2 22555.6 1804.83   7
   8   2  -2 17686.5 1551.76   2
   8  -2  -2 18326.8 1416.55   6
   8   2  -2 16971.9 1402.50   6
   8   2  -2 18130.3 1461.61  10
   8  -2  -1 55738.4 2777.92   3
  -8  -2   1 55464.1 2504.68  14
  -8  -2   1 54176.7 2841.47   7
  -8   2   1 58939.1 2958.79   7
   8   2  -1 55356.1 2706.33   2
   8  -2  -1 54156.9 2651.75   6
   8   2  -1 52367.2 2656.03   6
   8   2  -1 50307.3 2637.70  10
   8  -2   0 26012.1 1766.16  15
   8  -2   0 24923.5 1833.86   3
  -8  -2   0 28038.0 1874.96  14
  -8  -2   0 26045.2 1971.76   7
  -8   2   0 26322.5 2011.77   7
   8   2   0 32174.4 2084.56   2
   8  -2   0 25149.6 1868.11   6
   8   2   0 30519.7 2110.57   6
   8   2   0 24824.4 1955.65  10
   8  -2   1 1459.99 794.049   6
   8   2   1 761.893 847.726  10
   8   2   1 832.972 810.873   6
   8  -2   1-118.641 629.593  15
  -8  -2  -1 811.115 810.209   7
  -8   2  -1 849.029 729.674   7
   8  -2   1 981.558 666.614   3
   8  -2   2 35880.1 2276.05  15
   8  -2   2 38440.6 2315.78   3
  -8  -2  -2 33687.1 2543.28   7
  -8   2  -2 39825.0 2602.79   7
   8  -2   2 38526.1 2527.18   6
   8   2   2 36062.2 2485.94   6
   8   2   2 34166.7 2487.33  10
  -8  -3   8 67512.7 3446.95   8
  -8  -3   7 22282.6 1863.49   8
   8   3  -7 19545.8 1851.93   2
   8  -3  -7 17749.2 1800.67   2
   8   3  -6 6419.28 1159.59   2
   8  -3  -6 8089.45 1224.14   2
  -8  -3   6 8474.68 1225.53   8
  -8  -3   6 8162.75 1255.78   7
  -8   3   6 7419.99 1166.47   7
  -8   3   6 8980.85 1196.55  11
   8   3  -5 7747.82 1244.06   2
  -8  -3   5 9667.79 1193.28   8
   8  -3  -5 8899.92 1229.98   2
  -8  -3   5 8040.78 1169.06   7
  -8   3   5 7513.93 1166.43   7
  -8   3   5 7228.38 1145.25  11
  -8  -3   4 14148.3 1459.04   7
  -8   3   4 17677.1 1603.65   7
   8   3  -4 16135.8 1545.93   2
   8  -3  -4 18494.8 1663.78   2
   8   3  -3 7513.19 947.020  10
   8   3  -3 7492.39 969.303   6
   8   3  -3 7413.90 1084.03   2
  -8  -3   3 8339.67 969.276  14
  -8  -3   3 7924.34 1155.16   7
  -8   3   3 7841.78 1189.50   7
   8  -3  -3 7987.67 1195.53   3
   8   3  -2 14219.3 1383.37   2
  -8  -3   2 16741.5 1312.99  14
  -8  -3   2 13723.6 1402.91   7
  -8   3   2 14241.5 1434.60   7
   8  -3  -2 14775.1 1433.05   3
   8  -3  -2 13493.9 1243.51   6
   8   3  -2 12196.7 1240.20   6
   8   3  -2 14522.4 1356.33  10
   8   3  -1 928.048 707.439  10
   8   3  -1 1340.43 733.229   6
   8   3  -1 1418.46 739.575   2
  -8  -3   1 1375.49 684.246  14
  -8  -3   1 1137.46 618.234   7
  -8   3   1 2124.04 712.640   7
   8  -3  -1 2433.68 769.416   3
   8  -3  -1 2732.80 831.302   6
   8   3   0 1424.12 764.016  10
   8   3   0 2179.65 831.946   6
   8  -3   0 225.151 637.604  15
   8   3   0 647.096 581.592   2
  -8  -3   0 604.571 701.119  14
  -8  -3   0 614.806 683.424   7
  -8   3   0 115.230 596.405   7
   8  -3   0 1174.31 754.416   3
   8   3   1 2305.19 978.108  10
   8   3   1 3142.35 925.713   6
   8  -3   1 2096.62 761.621  15
   8   3   1 1976.05 724.218   2
  -8  -3  -1 2917.43 1030.28  14
  -8  -3  -1 3122.40 805.687   7
  -8   3  -1 3079.90 959.170   7
   8  -3   1 1897.02 791.313   3
   8   3   2 4128.51 1075.41   6
   8  -3   2 4629.99 1018.68  15
  -8  -3  -2 4066.42 1074.94   7
  -8   3  -2 3433.75 1014.42   7
   8  -3   2 2809.37 1003.54   6
   8  -3   2 3585.70 922.910   3
   8  -3   3 6310.40 1112.76   3
   8  -4  -7 9534.95 1379.33   2
  -8  -4   7 10022.4 1391.60   8
  -8  -4   6 23041.0 1919.41   8
  -8  -4   6 20860.6 1838.46   7
  -8   4   6 20488.5 1864.19   7
   8   4  -6 21273.1 1888.74   2
   8  -4  -6 20525.9 1862.32   2
  -8   4   6 20862.2 1739.49  11
   8   4  -5 10293.1 1289.96   2
  -8  -4   5 11124.5 1327.83   8
   8  -4  -5 7869.54 1239.63   2
  -8  -4   5 10473.0 1351.33   7
  -8   4   5 11994.6 1417.26   7
  -8   4   5 9630.38 1298.83  11
   8   4  -4 23585.8 1557.35   6
   8  -4  -4 22764.9 1918.75   3
  -8  -4   4 22544.4 1562.33  14
  -8  -4   4 23387.4 1837.05   7
  -8   4   4 23206.6 1839.06   7
   8   4  -4 23708.6 1850.49   2
  -8   4   4 20611.6 1828.96  11
   8   4  -3 1163.70 601.761  10
   8   4  -3 1339.09 610.683   6
   8   4  -3 1387.97 659.988   2
  -8  -4   3 1481.66 579.873  14
  -8  -4   3 1830.53 783.044   7
  -8   4   3 1085.36 784.522   7
   8  -4  -3 1885.19 811.303   3
  -8  -4   2 22007.9 1586.30  14
   8  -4  -2 20924.6 1795.76   3
  -8  -4   2 18802.8 1615.70   7
  -8   4   2 19094.1 1653.12   7
   8   4  -2 19058.6 1587.06   2
   8   4  -2 19155.9 1540.56  10
   8   4  -2 19689.6 1563.86   6
   8   4  -1 12087.2 1292.45   6
   8   4  -1 10692.8 1251.75   2
  -8  -4   1 11262.1 1250.39  14
  -8  -4   1 11687.4 1316.63   7
  -8   4   1 12188.3 1361.34   7
   8  -4  -1 10399.5 1332.51   3
   8   4  -1 13053.6 1354.39  10
  -8  -4   0 17075.5 1569.14  14
   8  -4   0 19124.7 1722.04   3
  -8  -4   0 18917.5 1687.61   7
  -8   4   0 20974.0 1778.68   7
   8   4   0 17516.8 1459.68   2
   8   4   0 17141.9 1679.02   6
   8   4   0 20750.6 1768.29  10
   8   4   1 1202.24 857.526  10
   8   4   1 1148.18 801.669   6
   8  -4   1 2924.31 877.378  15
  -8  -4  -1 1030.96 846.239  14
  -8  -4  -1 2727.88 919.282   7
  -8   4  -1 1372.37 796.148   7
   8  -4   1 1923.24 839.393   3
   8  -4   2 3705.69 977.184  15
  -8  -4  -2 3537.42 944.469   7
   8  -4   2 4675.48 1056.13   3
   8  -5  -7 4336.37 1094.13   2
  -8   5   7 5164.66 1033.00  11
   8   5  -6-358.192 790.875   2
  -8  -5   6 744.635 730.277   8
   8  -5  -6 323.623 836.776   2
  -8  -5   6 1261.89 708.986   7
  -8   5   6 52.5267 667.910   7
  -8   5   6 750.924 750.157  11
   8   5  -5 9901.85 1329.53   2
  -8  -5   5 10518.6 1360.22   8
   8  -5  -5 9914.32 1289.31   2
  -8  -5   5 10377.6 1315.10   7
  -8   5   5 10018.9 1301.58   7
  -8   5   5 8166.96 1229.07  11
   8   5  -4 6941.32 1146.27   2
  -8  -5   4 9551.66 1109.37  14
  -8  -5   4 6784.39 1052.07   7
  -8   5   4 5268.50 1066.54   7
   8  -5  -4 7555.24 1264.60   3
  -8   5   4 6628.24 1197.14  11
   8   5  -3 959.018 611.162  10
   8   5  -3 1121.69 593.782   6
   8   5  -3 3133.88 869.409   2
  -8  -5   3 2164.23 752.680  14
  -8  -5   3 1387.64 720.776   7
  -8   5   3 2705.26 817.778   7
   8  -5  -3 1789.58 887.249   3
  -8   5   3 1739.47 1013.37  11
   8   5  -2 8873.78 1155.39  10
   8   5  -2 9820.18 1192.06   6
   8   5  -2 7312.32 1014.07   2
  -8  -5   2 6555.97 1001.55  14
  -8  -5   2 10207.4 1209.05   7
  -8   5   2 10416.1 1284.40   7
  -8   5   2 6462.00 1213.22  11
   8  -5  -2 7850.69 1213.41   3
   8   5  -1 1902.99 809.771  10
   8   5  -1 1670.52 653.401   6
   8   5  -1 1694.93 716.010   2
  -8  -5   1 1006.11 725.120  14
  -8  -5   1 2077.98 772.347   7
  -8   5   1 2598.39 854.191   7
  -8   5   1 897.070 674.518  12
   8  -5  -1 2040.30 858.556   3
   8   5   0 9763.77 1310.92  10
   8   5   0 10924.5 1407.37   6
  -8  -5   0 9589.73 1284.88  14
  -8  -5   0 11997.7 1404.98   7
  -8   5   0 10015.9 1307.44   7
   8  -5   0 11549.8 1430.87   3
   8   5   1 5389.60 1189.01  10
   8   5   1 3341.01 977.962   6
   8  -5   1 5584.14 1129.20  15
  -8  -5  -1 3296.55 975.454  14
  -8  -5  -1 6050.30 1092.50   7
  -8   5  -1 6647.90 1175.54   7
   8  -5   1 5365.55 1050.68   3
  -8  -5  -2 9116.19 1454.52  14
  -8  -5  -2 6688.80 1163.95   7
   8  -6  -7 2745.33 958.423   2
  -8   6   7 2743.21 952.426  11
   8  -6  -6 670.498 762.936   2
  -8   6   6 611.226 756.977   7
  -8   6   6 1864.70 890.587  11
  -8  -6   5 23318.7 2031.86   8
   8   6  -5 23677.0 1955.61   2
  -8  -6   5 25950.9 1958.08   7
  -8   6   5 24481.1 1932.18   7
   8  -6  -5 20151.7 1857.32   2
  -8   6   5 23302.8 1957.07  11
   8   6  -4 15080.9 1488.91   2
  -8  -6   4 11330.1 1419.89   8
  -8   6   4 16212.9 1551.63   7
  -8  -6   4 11549.9 1299.51  14
  -8  -6   4 10944.7 1257.86   7
   8  -6  -4 14420.3 1625.88   3
  -8   6   4 12514.6 1484.46  11
   8   6  -3 2207.72 745.095  10
   8   6  -3 2161.15 695.630   6
   8   6  -3 2626.22 746.924   2
  -8  -6   3 2750.43 881.677  14
  -8  -6   3 1980.57 761.410   7
  -8   6   3 3220.74 930.218   7
   8  -6  -3 2236.78 801.714   3
  -8   6   3 2956.85 955.504  11
   8   6  -2 24854.9 1868.85   6
  -8  -6   2 26542.0 1945.31  14
  -8  -6   2 28664.3 1959.99   7
   8  -6  -2 28730.4 2137.70   3
  -8   6   2 27036.7 1978.07   7
   8   6  -2 22243.3 1713.43   2
  -8   6   2 25215.7 2090.43  11
   8   6  -2 20658.8 1723.92  10
   8   6  -1 7300.56 1165.11  10
   8   6  -1 5388.36 1054.68   6
  -8  -6   1 4530.58 1059.25  14
  -8  -6   1 5146.86 913.856   7
  -8   6   1 5795.01 1035.47   7
  -8   6   1 5195.03 1235.83  11
   8  -6  -1 5281.84 1061.58   3
   8   6   0 5782.63 1145.28  10
   8   6   0 2969.94 867.241   6
  -8  -6   0 4663.06 1044.63  14
  -8  -6   0 4600.31 902.333   7
  -8   6   0 5577.12 1053.96   7
  -8   6   0 4462.95 976.496  12
  -8   6   0 6425.75 1375.56  11
   8  -6   0 7331.25 1220.59   3
  -8  -6  -1 15168.6 1566.28   7
  -8  -6  -1 15818.3 1774.26  14
  -8   6  -1 13690.0 1552.22   7
  -8   6  -1 12377.7 1548.93  12
  -8  -6  -2 11827.0 1445.07   7
  -8   7   6 15450.3 1630.79   7
   8  -7  -6 14290.8 1627.55   2
   8   7  -5 2508.30 937.731   2
   8  -7  -5 3103.09 955.576   2
  -8  -7   5 2961.31 861.270   7
  -8   7   5 3887.50 880.234   7
  -8   7   5 3887.44 1134.19  11
   8   7  -4 19348.2 1757.71   2
  -8  -7   4 21596.4 1732.97   7
  -8  -7   4 19236.3 1692.52  14
  -8   7   4 21952.8 1793.57   7
  -8   7   4 20912.5 1945.39  11
   8   7  -3 6358.08 1094.19  10
   8   7  -3 9335.14 1238.79   2
  -8  -7   3 10249.6 1292.16  14
  -8  -7   3 7578.13 1114.79   7
  -8   7   3 9526.80 1243.85   7
   8  -7  -3 9639.39 1380.08   3
  -8   7   3 8752.62 1451.17  11
   8   7  -2 2307.19 806.736  10
   8   7  -2 3741.72 929.372   6
  -8  -7   2 4079.18 1017.49  14
  -8  -7   2 4023.43 871.988   7
  -8   7   2 2597.15 807.181   7
   8  -7  -2 4459.87 1142.52   3
  -8   7   2 4453.10 1183.12  11
   8   7  -1 9164.22 1301.07  10
   8   7  -1 8072.93 1212.99   6
  -8  -7   1 7925.09 1207.44  14
  -8   7   1 9095.31 1259.30   7
  -8  -7   0 3581.34 1090.42  14
  -8   7   0 2033.31 846.158   7
  -8   7   0 2948.02 878.141  12
  -8   7  -1 4930.89 1089.54   7
  -8   7  -1 8413.32 1342.10  12
   8   8  -4 5526.64 1096.54   2
  -8  -8   4 6820.53 1140.83  14
   8   8  -3 12925.1 1434.88  10
  -8  -8   3 14256.7 1623.66  14
   8   8  -2 75935.4 3645.05  10
  -8  -8   2 74957.7 3703.22  14
  -8   8   2 78834.8 3577.58   7
  -8   8   1 1902.37 750.960   7
  -8   8   0 7380.17 1177.95   7
  -8   8   0 8377.06 1339.27  12
   8   9  -3 15149.3 1599.29  10
  -9   0   6 2583.44 784.041   8
   9   0  -5 1497.36 740.754   2
  -9   0   5 2958.11 993.202   7
   9   0  -4 4739.50 1040.19   2
  -9   0   4 6094.83 1204.51   7
   9   0  -3 4140.18 836.478  10
   9   0  -3 4484.84 983.685   2
  -9   0   3 3505.74 1026.43   7
   9   0  -2 5491.58 975.582  10
   9   0  -2 6497.00 956.180   6
   9   0  -2 6129.95 1134.89   2
  -9   0   2 6801.19 1150.59   7
   9   0  -1 36855.7 2301.24   3
  -9   0   1 36287.5 2455.08   7
   9   0  -1 32145.0 2168.44   6
   9   0  -1 34636.4 2259.87  10
   9   0   0 93500.0 3850.71   3
  -9   0   0 92974.0 4211.47   7
   9   0   0 84473.8 3899.01   6
   9   0   0 86594.1 3992.30  10
  -9  -1   7 12472.1 1442.45   8
  -9  -1   6 53719.3 2869.53   8
  -9   1   6 51274.6 2786.01  11
   9   1  -5 10701.3 1428.43   2
   9  -1  -5 12502.4 1510.91   2
  -9  -1   5 10672.3 1357.02   7
  -9   1   5 14674.3 1589.15   7
  -9  -1   4 19248.6 1740.77   7
  -9   1   4 17225.2 1699.85   7
   9   1  -4 20249.0 1813.67   2
   9  -1  -4 18232.6 1770.64   2
  -9  -1   3 21843.8 1895.99   7
  -9   1   3 25459.3 2035.07   7
   9   1  -3 27313.6 2059.21   2
   9  -1  -3 25066.0 1976.88   2
   9  -1  -3 25354.7 1727.29  10
   9   1  -3 22347.7 1624.42  10
   9  -1  -2 10810.4 1250.52  10
   9   1  -2 10045.2 1221.30  10
   9  -1  -2 7678.38 1057.30   6
   9   1  -2 7715.25 1052.38   6
   9  -1  -2 10268.4 1337.02   3
   9   1  -2 11151.9 1380.46   2
  -9  -1   2 9327.26 1319.48   7
  -9   1   2 9951.90 1399.40   7
   9   1  -1 14055.8 1458.99   6
   9  -1  -1 17513.4 1647.87   3
   9   1  -1 14282.7 1499.36   2
  -9  -1   1 13363.0 1563.72   7
  -9   1   1 14842.5 1608.14   7
   9  -1  -1 15323.3 1520.59   6
   9  -1  -1 14634.0 1535.53  10
   9   1  -1 15864.7 1574.19  10
   9  -1   0 34027.6 2234.83   3
  -9  -1   0 30993.1 2264.17   7
  -9   1   0 31136.9 2374.83   7
   9  -1   0 33249.1 2294.75   6
   9   1   0 31727.0 2215.74   6
   9  -1   0 28789.5 2173.58  10
   9   1   0 30596.2 2243.90  10
  -9  -2   7-507.269 829.485   8
  -9  -2   6 8580.88 1268.87   8
  -9   2   6 8232.59 1206.10  11
   9   2  -5 3903.93 1009.83   2
   9  -2  -5 5125.32 1074.31   2
  -9  -2   5 5079.13 1072.90   7
  -9   2   5 6238.75 1234.76   7
   9   2  -4 1456.15 791.159   2
   9  -2  -4 2942.72 990.063   2
  -9  -2   4 3633.70 933.221   7
  -9   2   4 1984.34 880.480   7
   9  -2  -3 1016.63 631.392  10
   9   2  -3 1080.93 632.397  10
   9   2  -3 610.735 533.848   6
   9   2  -3 1353.58 740.745   2
   9  -2  -3 1676.81 949.217   2
  -9  -2   3 2928.18 897.415   7
  -9   2   3-26.0391 832.780   7
   9  -2  -2 10619.0 1240.04  10
   9  -2  -2 9054.76 1111.37   6
   9   2  -2 7642.53 1122.45  10
   9   2  -2 9262.68 1125.92   6
   9   2  -2 8665.55 1284.15   2
  -9  -2   2 8840.58 1282.44   7
  -9   2   2 9348.42 1336.38   7
   9  -2  -2 10966.5 1334.79   3
   9  -2  -1 1724.62 855.675  10
   9  -2  -1 1012.19 749.433   6
   9   2  -1 1162.22 748.169  10
   9   2  -1 1818.90 715.739   6
   9   2  -1 1637.59 749.478   2
  -9  -2   1 1608.28 933.207   7
  -9   2   1 2996.14 890.220   7
   9  -2  -1 1490.27 782.794   3
   9  -2   0 1223.19 854.730  10
   9  -2   0 1638.42 858.007   6
   9   2   0 2109.49 915.519  10
   9   2   0 3389.70 1041.67   6
   9   2   0 1782.34 761.172   2
  -9  -2   0 640.172 692.034   7
   9  -2   0 2587.88 912.369   3
   9  -2   1 20506.5 1814.13   3
  -9  -3   6 26981.8 2134.61   8
  -9   3   6 23749.4 1937.48  11
   9   3  -5 2546.69 935.841   2
   9  -3  -5 2324.68 983.925   2
  -9  -3   5 866.336 719.426   7
  -9   3   5-443.777 807.965   7
  -9   3   5 379.297 753.422  11
  -9  -3   4 34355.0 2346.46   7
  -9   3   4 36890.8 2437.35   7
   9   3  -4 33852.5 2355.00   2
   9  -3  -4 31679.5 2325.26   2
   9   3  -3 5806.86 933.764  10
   9   3  -3 6202.24 942.384   6
   9   3  -3 7049.54 1147.59   2
  -9  -3   3 4925.19 1103.63   7
  -9   3   3 5575.65 1099.40   7
   9  -3  -3 4714.93 1110.70   3
   9  -3  -2 13079.0 1319.30   6
   9  -3  -2 16354.7 1632.10   3
   9   3  -2 16358.4 1612.85   2
  -9  -3   2 13945.7 1513.44   7
  -9   3   2 13589.6 1537.21   7
   9   3  -2 15832.9 1446.69   6
   9   3  -2 15284.7 1486.75  10
   9  -3  -1 349.579 708.039   6
   9   3  -1 97.2014 757.733  10
   9   3  -1 1647.55 732.862   6
   9   3  -1 362.314 647.095   2
  -9  -3   1 63.8335 724.246   7
  -9   3   1 1282.80 892.102   7
   9  -3  -1 1655.08 813.735   3
   9  -3   0 9297.93 1328.89   6
   9   3   0 9625.77 1405.94  10
   9   3   0 8866.16 1365.62   6
   9   3   0 9159.72 1241.01   2
   9  -3   0 12429.5 1370.69  15
  -9  -3   0 8524.01 1360.95   7
   9  -3   0 13315.9 1474.13   3
   9  -3   1 7303.04 1177.54  15
   9  -3   1 8047.45 1270.75   3
  -9   4   6 6781.15 1208.93  11
  -9  -4   5 15609.7 1675.58   8
  -9  -4   5 13366.0 1518.37   7
  -9   4   5 14209.7 1651.20   7
  -9   4   5 13121.0 1599.21  11
   9   4  -4 4283.83 1009.66   2
   9  -4  -4 3352.47 946.588   2
  -9  -4   4 5359.44 1070.00   7
  -9   4   4 5453.84 1109.50   7
  -9   4   4 6327.51 1293.98  11
   9   4  -3 7519.42 1037.47  10
   9   4  -3 8236.64 1089.11   6
   9   4  -3 7381.24 1153.47   2
  -9  -4   3 7577.94 1214.46   7
  -9   4   3 9483.27 1318.77   7
   9  -4  -3 7801.38 1276.04   3
   9   4  -2 1992.04 773.937  10
   9   4  -2 2840.80 855.807   6
   9   4  -2 1188.53 804.891   2
  -9  -4   2 2100.39 890.543   7
  -9   4   2 3073.19 969.801   7
   9  -4  -2 3734.11 1024.44   3
   9   4  -1 3529.84 908.330  10
   9   4  -1 777.857 721.407   6
   9   4  -1 2844.45 849.900   2
  -9  -4   1 1101.73 803.714   7
  -9   4   1 1912.10 795.409   7
   9  -4  -1 3730.99 1029.91   3
   9  -4  -1 2567.27 855.513   6
   9  -4   0 11970.1 1388.11  15
  -9  -4   0 8578.45 1305.70  14
  -9  -4   0 9048.28 1316.43   7
   9  -4   0 8956.80 1314.03   6
  -9  -4  -1 412.082 902.676  14
  -9  -5   5 33728.5 2417.88   7
   9   5  -4 3039.59 936.177   2
  -9  -5   4 5329.10 1081.10   7
  -9   5   4 3884.51 1011.66   7
   9   5  -3 2724.76 796.146   6
   9   5  -3 3242.80 851.138   2
  -9  -5   3 3118.03 932.684   7
  -9   5   3 2475.74 795.411   7
   9   5  -2 14542.0 1537.13  10
  -9   5   2 18360.2 1757.57   7
  -9  -5   2 16042.6 1537.95  14
   9   5  -2 20171.0 1684.49   2
  -9  -5   2 14302.7 1558.70   7
   9   5  -2 18288.1 1659.81   6
   9   5  -1 966.798 785.459  10
   9   5  -1 3357.59 957.463   6
  -9  -5   1 1189.96 865.703  14
  -9  -5   1 2761.47 888.580   7
  -9  -5   0 2099.05 1005.62  14
   9   6  -4 678.818 670.468   2
  -9  -6   4-670.766 800.972   7
  -9   6   4-554.188 856.391   7
   9   6  -3 1156.82 743.281   6
   9   6  -3 3688.80 972.377   2
  -9  -6   3 2742.87 936.819  14
  -9  -6   3 1895.13 758.123   7
  -9   6   3 2414.38 944.381   7
   9   6  -2 3901.62 977.131  10
   9   6  -2 3701.76 998.722   6
  -9  -6   2 5449.29 1103.90  14
  -9  -6   2 6168.41 1124.20   7
  -9   6   2 4374.41 1085.97   7
  -9  -6   1 7097.05 1284.20  14
  -9  -6   1 8069.45 1227.20   7
  -9  -7   3 6696.46 1185.49  14
  10   0  -2 64.2269 730.323  10
  10   0  -1-1035.61 896.139   6
  10  -1  -2 6932.27 1193.44  10
  10   1  -2 5402.37 1096.34  10
  10  -1  -1 3736.64 969.797   6
  10  -1  -1 5549.65 1108.94   3
  10  -2  -2-286.941 864.502  10
  10   2  -2-812.101 771.575  10
  10   2  -2-1012.74 824.689   6
  10  -2  -1-126.767 723.528   6
  10  -3  -2 22040.7 1880.19  10
  10   3  -2 21373.2 1858.80   6
  10   3  -2 22968.1 1935.55  10
   0   0   0    0.00    0.00   0
;
_shelx_hkl_checksum              41884
_shelx_res_file
;
    shelx.res created by SHELXL-2014/7
TITL ap8 in P2(1)
CELL  0.71073   7.6327  10.4510   7.6553   90.000  108.559   90.000
ZERR     2.00   0.0002   0.0002   0.0002    0.000    0.003    0.000
LATT  -1
SYMM  - X, 1/2 + Y, - Z
SFAC  C    H    N    O    CL
UNIT  22   34   4    4    2
MERG   2
OMIT     0   1   1
OMIT     1  -1   0
OMIT     1   1   0
OMIT     0  -1   1
OMIT     6  -6   5
mpla n1 c2 c3 c4 c5 c6
FMAP   2
PLAN   20
ACTA    50.00
HTAB C5 Cl1
EQIV $1 -x+1, y-1/2, -z+1
HTAB C11 O1W_$1
HTAB C11 Cl1_$1
EQIV $2 x-1, y, z
HTAB N12 O2_$2
EQIV $3 -x+1, y-1/2, -z
HTAB N12 Cl1_$3
HTAB C13 Cl1
EQIV $4 x, y, z+1
HTAB O1W Cl1_$4
HTAB O1W Cl1_$1
BOND   $H
CONF
L.S.   4
WGHT    0.039900    0.065100
FVAR      13.75626
N1    3    0.952839    0.401644    0.341096    11.00000    0.01053    0.01077 =
         0.01132    0.00050    0.00380   -0.00024
C2    1    1.070423    0.376431    0.238753    11.00000    0.01015    0.01361 =
         0.01300   -0.00279    0.00338   -0.00319
O2    4    1.175339    0.280523    0.281566    11.00000    0.01199    0.01525 =
         0.01937    0.00030    0.00652    0.00066
C3    1    1.063872    0.462999    0.094078    11.00000    0.01364    0.01945 =
         0.01307   -0.00250    0.00581   -0.00373
REM AFIX  43
H3    2    1.138646    0.447373    0.020007    11.00000    0.02112
REM AFIX   0
C4    1    0.950949    0.566876    0.061292    11.00000    0.01962    0.01611 =
         0.01038    0.00246    0.00302   -0.00500
REM AFIX  43
H4    2    0.945330    0.622527   -0.035027    11.00000    0.01725
REM AFIX   0
C5    1    0.835227    0.589005    0.169108    11.00000    0.01434    0.01193 =
         0.01326   -0.00025    0.00124   -0.00167
REM AFIX  43
H5    2    0.753871    0.660522    0.147567    11.00000    0.02158
REM AFIX   0
C6    1    0.838886    0.506796    0.308324    11.00000    0.01026    0.01193 =
         0.01217   -0.00306    0.00183   -0.00175
C7    1    0.718427    0.528627    0.428944    11.00000    0.01405    0.00898 =
         0.01564   -0.00151    0.00501   -0.00007
REM AFIX  13
H7    2    0.707181    0.616888    0.436832    11.00000    0.01863
REM AFIX   0
C8    1    0.806097    0.470969    0.619342    11.00000    0.01582    0.01756 =
         0.01257   -0.00332    0.00481   -0.00171
REM AFIX  23
H8A   2    0.914636    0.514335    0.673731    11.00000    0.01579
H8B   2    0.736727    0.486903    0.704242    11.00000    0.02230
REM AFIX   0
C9    1    0.826617    0.328834    0.591682    11.00000    0.01390    0.01686 =
         0.01218    0.00340    0.00580    0.00172
REM AFIX  13
H9    2    0.875956    0.286306    0.709995    11.00000    0.01638
REM AFIX   0
C10   1    0.967064    0.308245    0.491155    11.00000    0.01389    0.01511 =
         0.01565    0.00505    0.00599    0.00282
REM AFIX  23
H10A  2    1.096040    0.319783    0.581354    11.00000    0.02376
H10B  2    0.963855    0.220305    0.440418    11.00000    0.00566
REM AFIX   0
C11   1    0.639474    0.266419    0.498006    11.00000    0.01564    0.01521 =
         0.01614    0.00215    0.00830    0.00129
REM AFIX  23
H11A  2    0.652898    0.176311    0.467975    11.00000    0.02312
H11B  2    0.565624    0.271372    0.581255    11.00000    0.01084
REM AFIX   0
N12   3    0.532546    0.331560    0.322412    11.00000    0.01179    0.01373 =
         0.01388   -0.00184    0.00555   -0.00167
REM AFIX  23
H12A  2    0.419289    0.308043    0.292651    11.00000    0.01276
H12B  2    0.574447    0.308842    0.226892    11.00000    0.01168
REM AFIX   0
C13   1    0.525334    0.473583    0.341483    11.00000    0.01357    0.01172 =
         0.01758   -0.00058    0.00632    0.00110
REM AFIX  23
H13A  2    0.455335    0.481846    0.419586    11.00000    0.01105
H13B  2    0.471003    0.507971    0.220122    11.00000    0.02245
REM AFIX   0
CL1   5    0.375660    0.749893    0.026059    11.00000    0.02556    0.02575 =
         0.02047    0.01003    0.01306    0.00912
O1W   4    0.358552    0.491574    0.770805    11.00000    0.04592    0.03692 =
         0.03279    0.00020    0.00670    0.00064
H1W2  2    0.354831    0.565239    0.849775    11.00000    0.07200
H1W1  2    0.425132    0.431845    0.832772    11.00000    0.05011
HKLF 4
REM  ap8 in P2(1)
REM R1 =  0.0286 for    2653 Fo > 4sig(Fo)  and  0.0312 for all    2796 data
REM    213 parameters refined using      1 restraints
END
WGHT      0.0396      0.0672
REM Highest difference peak  0.304,  deepest hole -0.180,  1-sigma level  0.047
Q1    1   0.3155  0.6913 -0.0386  11.00000  0.05    0.30
Q2    1   0.7898  0.5237  0.3763  11.00000  0.05    0.25
Q3    1   0.7565  0.5044  0.5342  11.00000  0.05    0.22
Q4    1   0.2543  0.5643  0.7578  11.00000  0.05    0.22
Q5    1   1.0491  0.4268  0.1735  11.00000  0.05    0.21
Q6    1   0.5283  0.4047  0.3306  11.00000  0.05    0.21
Q7    1   0.4117  0.7024 -0.0587  11.00000  0.05    0.21
Q8    1   1.0165  0.4041  0.3040  11.00000  0.05    0.20
Q9    1   0.8711  0.4187  0.2997  11.00000  0.05    0.19
Q10   1   0.8681  0.5596  0.2580  11.00000  0.05    0.19
Q11   1   0.3861  0.7804 -0.0721  11.00000  0.05    0.19
Q12   1   0.9555  0.3634  0.4084  11.00000  0.05    0.19
Q13   1   0.7123  0.3152  0.5186  11.00000  0.05    0.18
Q14   1   1.2821  0.4991  0.0532  11.00000  0.05    0.18
Q15   1   0.8104  0.3927  0.5910  11.00000  0.05    0.18
Q16   1   0.4721  0.8224  0.0821  11.00000  0.05    0.17
Q17   1   0.8750  0.3217  0.5219  11.00000  0.05    0.16
Q18   1   0.7846  0.5542  0.2430  11.00000  0.05    0.16
Q19   1   0.9272  0.5922  0.1376  11.00000  0.05    0.16
Q20   1   1.0319  0.5277  0.1158  11.00000  0.05    0.15
;
_shelx_res_checksum              43437
loop_
_space_group_symop_operation_xyz
'x, y, z'
'-x, y+1/2, -z'
loop_
_atom_site_type_symbol
_atom_site_label
_atom_site_fract_x
_atom_site_fract_y
_atom_site_fract_z
_atom_site_U_iso_or_equiv
_atom_site_adp_type
_atom_site_calc_flag
_atom_site_occupancy
N N1 0.9528(2) 0.40164(16) 0.3411(2) 0.0108(3) Uani d 1
C C2 1.0704(3) 0.37643(19) 0.2388(3) 0.0123(4) Uani d 1
O O2 1.1753(2) 0.28052(13) 0.2816(2) 0.0152(3) Uani d 1
C C3 1.0639(3) 0.4630(2) 0.0941(3) 0.0150(4) Uani d 1
H H3 1.139(4) 0.447(3) 0.020(4) 0.021(7) Uiso d 1
C C4 0.9509(3) 0.5669(2) 0.0613(3) 0.0158(4) Uani d 1
H H4 0.945(4) 0.623(3) -0.035(4) 0.017(6) Uiso d 1
C C5 0.8352(3) 0.5890(2) 0.1691(3) 0.0139(4) Uani d 1
H H5 0.754(4) 0.661(3) 0.148(4) 0.022(7) Uiso d 1
C C6 0.8389(3) 0.50680(18) 0.3083(3) 0.0119(4) Uani d 1
C C7 0.7184(3) 0.52863(19) 0.4289(3) 0.0128(4) Uani d 1
H H7 0.707(4) 0.617(3) 0.437(4) 0.019(7) Uiso d 1
C C8 0.8061(3) 0.4710(2) 0.6193(3) 0.0152(4) Uani d 1
H H8A 0.915(4) 0.514(2) 0.674(4) 0.016(6) Uiso d 1
H H8B 0.737(4) 0.487(3) 0.704(4) 0.022(7) Uiso d 1
C C9 0.8266(3) 0.3288(2) 0.5917(3) 0.0139(4) Uani d 1
H H9 0.876(4) 0.286(2) 0.710(4) 0.016(6) Uiso d 1
C C10 0.9671(3) 0.3082(2) 0.4912(3) 0.0146(4) Uani d 1
H H10A 1.096(4) 0.320(3) 0.581(4) 0.024(7) Uiso d 1
H H10B 0.964(3) 0.220(2) 0.440(3) 0.006(5) Uiso d 1
C C11 0.6395(3) 0.2664(2) 0.4980(3) 0.0149(4) Uani d 1
H H11A 0.653(4) 0.176(3) 0.468(4) 0.023(8) Uiso d 1
H H11B 0.566(3) 0.271(2) 0.581(3) 0.011(6) Uiso d 1
N N12 0.5325(3) 0.33156(17) 0.3224(2) 0.0128(4) Uani d 1
H H12A 0.419(4) 0.308(2) 0.293(3) 0.013(6) Uiso d 1
H H12B 0.574(4) 0.309(2) 0.227(3) 0.012(6) Uiso d 1
C C13 0.5253(3) 0.4736(2) 0.3415(3) 0.0140(4) Uani d 1
H H13A 0.455(4) 0.482(2) 0.420(3) 0.011(6) Uiso d 1
H H13B 0.471(4) 0.508(3) 0.220(4) 0.022(7) Uiso d 1
Cl Cl1 0.37566(8) 0.74989(5) 0.02606(7) 0.02257(15) Uani d 1
O O1W 0.3586(3) 0.4916(2) 0.7708(3) 0.0399(5) Uani d 1
H H1W2 0.355(6) 0.565(4) 0.850(6) 0.072(13) Uiso d 1
H H1W1 0.425(5) 0.432(4) 0.833(5) 0.050(11) Uiso d 1
loop_
_atom_site_aniso_label
_atom_site_aniso_U_11
_atom_site_aniso_U_22
_atom_site_aniso_U_33
_atom_site_aniso_U_12
_atom_site_aniso_U_13
_atom_site_aniso_U_23
N1 0.0105(8) 0.0108(8) 0.0113(8) -0.0002(6) 0.0038(6) 0.0005(6)
C2 0.0101(9) 0.0136(9) 0.0130(9) -0.0032(7) 0.0034(7) -0.0028(7)
O2 0.0120(7) 0.0152(8) 0.0194(7) 0.0007(5) 0.0065(6) 0.0003(5)
C3 0.0136(10) 0.0194(10) 0.0131(10) -0.0037(8) 0.0058(8) -0.0025(8)
C4 0.0196(11) 0.0161(10) 0.0104(9) -0.0050(8) 0.0030(8) 0.0025(8)
C5 0.0143(10) 0.0119(9) 0.0133(10) -0.0017(8) 0.0012(8) -0.0002(8)
C6 0.0103(9) 0.0119(9) 0.0122(9) -0.0018(7) 0.0018(8) -0.0031(7)
C7 0.0140(10) 0.0090(9) 0.0156(10) -0.0001(8) 0.0050(8) -0.0015(7)
C8 0.0158(10) 0.0176(10) 0.0126(10) -0.0017(9) 0.0048(8) -0.0033(8)
C9 0.0139(10) 0.0169(10) 0.0122(9) 0.0017(8) 0.0058(8) 0.0034(8)
C10 0.0139(11) 0.0151(10) 0.0157(10) 0.0028(8) 0.0060(8) 0.0051(8)
C11 0.0156(10) 0.0152(12) 0.0161(9) 0.0013(8) 0.0083(8) 0.0021(8)
N12 0.0118(9) 0.0137(8) 0.0139(9) -0.0017(7) 0.0055(7) -0.0018(7)
C13 0.0136(10) 0.0117(10) 0.0176(10) 0.0011(8) 0.0063(8) -0.0006(8)
Cl1 0.0256(3) 0.0258(3) 0.0205(3) 0.0091(2) 0.0131(2) 0.0100(2)
O1W 0.0459(13) 0.0369(12) 0.0328(11) 0.0006(10) 0.0067(10) 0.0002(9)
loop_
_atom_type_symbol
_atom_type_description
_atom_type_scat_dispersion_real
_atom_type_scat_dispersion_imag
_atom_type_scat_source
C C 0.0033 0.0016 'International Tables Vol C Tables 4.2.6.8 and 6.1.1.4'
H H 0.0000 0.0000 'International Tables Vol C Tables 4.2.6.8 and 6.1.1.4'
N N 0.0061 0.0033 'International Tables Vol C Tables 4.2.6.8 and 6.1.1.4'
O O 0.0106 0.0060 'International Tables Vol C Tables 4.2.6.8 and 6.1.1.4'
Cl Cl 0.1484 0.1585 'International Tables Vol C Tables 4.2.6.8 and 6.1.1.4'
loop_
_geom_angle_atom_site_label_1
_geom_angle_atom_site_label_2
_geom_angle_atom_site_label_3
_geom_angle
C6 N1 C2 122.20(17)
C6 N1 C10 123.58(16)
C2 N1 C10 114.18(15)
O2 C2 N1 118.35(17)
O2 C2 C3 124.90(19)
N1 C2 C3 116.75(18)
C4 C3 C2 121.1(2)
C4 C3 H3 120.0(18)
C2 C3 H3 118.9(18)
C3 C4 C5 120.18(19)
C3 C4 H4 120.9(18)
C5 C4 H4 118.9(17)
C6 C5 C4 119.7(2)
C6 C5 H5 118.7(17)
C4 C5 H5 121.6(17)
C5 C6 N1 120.09(19)
C5 C6 C7 121.14(18)
N1 C6 C7 118.77(17)
C6 C7 C8 110.94(17)
C6 C7 C13 111.43(17)
C8 C7 C13 109.90(18)
C6 C7 H7 106.0(17)
C8 C7 H7 110.6(17)
C13 C7 H7 107.8(17)
C9 C8 C7 106.73(17)
C9 C8 H8A 115.3(16)
C7 C8 H8A 107.3(16)
C9 C8 H8B 111.3(16)
C7 C8 H8B 113.9(17)
H8A C8 H8B 102(2)
C8 C9 C10 109.28(18)
C8 C9 C11 111.21(18)
C10 C9 C11 114.01(18)
C8 C9 H9 110.2(15)
C10 C9 H9 106.3(16)
C11 C9 H9 105.7(15)
N1 C10 C9 114.12(17)
N1 C10 H10A 105.4(16)
C9 C10 H10A 109.1(15)
N1 C10 H10B 108.6(13)
C9 C10 H10B 113.2(14)
H10A C10 H10B 106(2)
N12 C11 C9 112.90(17)
N12 C11 H11A 107.1(16)
C9 C11 H11A 111.6(18)
N12 C11 H11B 107.4(14)
C9 C11 H11B 108.6(14)
H11A C11 H11B 109(2)
C13 N12 C11 113.00(17)
C13 N12 H12A 104.2(17)
C11 N12 H12A 108.9(17)
C13 N12 H12B 111.6(15)
C11 N12 H12B 111.7(16)
H12A N12 H12B 107(2)
N12 C13 C7 110.93(18)
N12 C13 H13A 101.7(16)
C7 C13 H13A 111.0(15)
N12 C13 H13B 107.2(17)
C7 C13 H13B 110.1(18)
H13A C13 H13B 116(2)
H1W2 O1W H1W1 111(3)
loop_
_geom_bond_atom_site_label_1
_geom_bond_atom_site_label_2
_geom_bond_distance
N1 C6 1.374(3)
N1 C2 1.392(3)
N1 C10 1.485(3)
C2 O2 1.259(3)
C2 C3 1.419(3)
C3 C4 1.359(3)
C3 H3 0.94(3)
C4 C5 1.407(3)
C4 H4 0.93(3)
C5 C6 1.362(3)
C5 H5 0.95(3)
C6 C7 1.513(3)
C7 C8 1.521(3)
C7 C13 1.524(3)
C7 H7 0.93(3)
C8 C9 1.516(3)
C8 H8A 0.92(3)
C8 H8B 0.97(3)
C9 C10 1.521(3)
C9 C11 1.526(3)
C9 H9 0.97(3)
C10 H10A 1.01(3)
C10 H10B 1.00(2)
C11 N12 1.496(3)
C11 H11A 0.98(3)
C11 H11B 0.98(2)
N12 C13 1.494(3)
N12 H12A 0.86(3)
N12 H12B 0.92(3)
C13 H13A 0.92(2)
C13 H13B 0.96(3)
O1W H1W2 0.98(4)
O1W H1W1 0.85(4)
loop_
_geom_hbond_atom_site_label_D
_geom_hbond_atom_site_label_H
_geom_hbond_atom_site_label_A
_geom_hbond_site_symmetry_A
_geom_hbond_distance_DH
_geom_hbond_distance_HA
_geom_hbond_distance_DA
_geom_hbond_angle_DHA
N12 H12A O2 1_455 0.86(3) 1.86(3) 2.697(2) 165(2)
N12 H12B Cl1 2_645 0.92(3) 2.18(3) 3.0863(19) 170(2)
O1W H1W2 Cl1 1_556 0.98(4) 2.33(5) 3.311(2) 173(4)
O1W H1W1 Cl1 2_646 0.85(4) 2.46(4) 3.302(2) 172(3)
loop_
_geom_torsion_atom_site_label_1
_geom_torsion_atom_site_label_2
_geom_torsion_atom_site_label_3
_geom_torsion_atom_site_label_4
_geom_torsion
C6 N1 C2 O2 177.52(18)
C10 N1 C2 O2 -0.4(3)
C6 N1 C2 C3 -1.7(3)
C10 N1 C2 C3 -179.60(18)
O2 C2 C3 C4 -177.6(2)
N1 C2 C3 C4 1.6(3)
C2 C3 C4 C5 -1.2(3)
C3 C4 C5 C6 1.0(3)
C4 C5 C6 N1 -1.1(3)
C4 C5 C6 C7 179.09(18)
C2 N1 C6 C5 1.5(3)
C10 N1 C6 C5 179.21(19)
C2 N1 C6 C7 -178.64(17)
C10 N1 C6 C7 -1.0(3)
C5 C6 C7 C8 -152.29(19)
N1 C6 C7 C8 27.9(2)
C5 C6 C7 C13 84.9(2)
N1 C6 C7 C13 -94.9(2)
C6 C7 C8 C9 -60.1(2)
C13 C7 C8 C9 63.6(2)
C7 C8 C9 C10 66.7(2)
C7 C8 C9 C11 -60.1(2)
C6 N1 C10 C9 7.4(3)
C2 N1 C10 C9 -174.76(18)
C8 C9 C10 N1 -40.3(2)
C11 C9 C10 N1 84.8(2)
C8 C9 C11 N12 53.4(2)
C10 C9 C11 N12 -70.7(2)
C9 C11 N12 C13 -48.3(2)
C11 N12 C13 C7 51.3(2)
C6 C7 C13 N12 63.5(2)
C8 C7 C13 N12 -59.9(2)

_cod_database_fobs_code 2021284
