#------------------------------------------------------------------------------
#$Date: 2019-06-15 07:15:48 +0300 (Sat, 15 Jun 2019) $
#$Revision: 216000 $
#$URL: file:///home/coder/svn-repositories/cod/cif/2/02/16/2021666.cif $
#------------------------------------------------------------------------------
#
# This file is available in the Crystallography Open Database (COD),
# http://www.crystallography.net/. The original data for this entry
# were provided by IUCr Journals, http://journals.iucr.org/.
#
# The file may be used within the scientific community so long as
# proper attribution is given to the journal article from which the
# data were obtained.
#
data_2021666
loop_
_publ_author_name
'Silverman, Joshua A.'
'Mathivathanan, Logesh'
'Govor, Evgen V.'
'Raptis, Raphael G.'
'Kavallieratos, Konstantinos'
_publ_section_title
;
 Coordination polymers of Cd^II^ and Pb^II^ with croconate show remarkable
 differences in coordination patterns: a structural and spectroscopic
 study
;
_journal_coeditor_code           YF3176
_journal_issue                   7
_journal_name_full               'Acta Crystallographica Section C'
_journal_page_first
;
;
_journal_paper_doi               10.1107/S2053229619007277
_journal_volume                  75
_journal_year                    2019
_chemical_formula_iupac          '[Pb (C5 O5) (H2 O)2], H2 O'
_chemical_formula_moiety         'C5 H4 O7 Pb, H2 O'
_chemical_formula_sum            'C5 H6 O8 Pb'
_chemical_formula_weight         401.29
_chemical_name_systematic
'<i>catena</i>-Poly[[[diaqualead(II)]-\m-croconato-\k^4^<i>O</i>^1^,<i>O</i>^2^:<i>O</i>^3^,<i>O</i>^4^] monohydrate]'
_space_group_crystal_system      triclinic
_space_group_IT_number           2
_space_group_name_Hall           '-P 1'
_space_group_name_H-M_alt        'P -1'
_symmetry_space_group_name_Hall  '-P 1'
_symmetry_space_group_name_H-M   'P -1'
_atom_sites_solution_hydrogens   difmap
_audit_creation_method
;
Olex2 1.2
(compiled May 18 2018 14:05:52 for OlexSys, GUI svn.r5506)
;
_cell_angle_alpha                104.0550(10)
_cell_angle_beta                 90.956(2)
_cell_angle_gamma                96.200(2)
_cell_formula_units_Z            2
_cell_length_a                   6.4360(4)
_cell_length_b                   7.9058(4)
_cell_length_c                   8.3495(5)
_cell_measurement_reflns_used    6853
_cell_measurement_temperature    296(2)
_cell_measurement_theta_max      28.27
_cell_measurement_theta_min      3.19
_cell_volume                     409.30(4)
_computing_cell_refinement
;
APEX2 (Bruker, 2015)
;
_computing_data_collection
;
SAINT (Bruker, 2015)
;
_computing_data_reduction
;
SAINT (Bruker, 2015)
;
_computing_molecular_graphics
;
OLEX2 (Dolomanov <i>et al.</i>,  2009) and CrystalMaker (Palmer,
2014)
;
_computing_publication_material
;
OLEX2 (Dolomanov <i>et al.</i>,  2009)
;
_computing_structure_refinement
;
SHELXL2018 (Sheldrick, 2015b)
;
_computing_structure_solution
;
SHELXT2014 (Sheldrick, 2015a)
;
_diffrn_ambient_temperature      296
_diffrn_detector_area_resol_mean 10.42
_diffrn_measured_fraction_theta_full 0.999
_diffrn_measured_fraction_theta_max 0.999
_diffrn_measurement_device_type  'Bruker D8 with PHOTON 100 detector'
_diffrn_measurement_method       '\f and \w shutterless scans'
_diffrn_radiation_type           MoK\a
_diffrn_radiation_wavelength     0.71073
_diffrn_reflns_av_R_equivalents  0.0266
_diffrn_reflns_av_unetI/netI     0.0208
_diffrn_reflns_limit_h_max       8
_diffrn_reflns_limit_h_min       -8
_diffrn_reflns_limit_k_max       10
_diffrn_reflns_limit_k_min       -10
_diffrn_reflns_limit_l_max       10
_diffrn_reflns_limit_l_min       -11
_diffrn_reflns_number            8040
_diffrn_reflns_theta_full        25.242
_diffrn_reflns_theta_max         28.267
_diffrn_reflns_theta_min         3.187
_exptl_absorpt_coefficient_mu    20.631
_exptl_absorpt_correction_T_max  0.7457
_exptl_absorpt_correction_T_min  0.4153
_exptl_absorpt_correction_type   multi-scan
_exptl_absorpt_process_details
;
(SADABS; Bruker, 2016)
;
_exptl_crystal_colour            yellow
_exptl_crystal_density_diffrn    3.256
_exptl_crystal_description       needle
_exptl_crystal_F_000             364
_exptl_crystal_size_max          0.127
_exptl_crystal_size_mid          0.035
_exptl_crystal_size_min          0.033
_refine_diff_density_max         0.491
_refine_diff_density_min         -1.366
_refine_ls_extinction_method     none
_refine_ls_goodness_of_fit_ref   1.219
_refine_ls_hydrogen_treatment    mixed
_refine_ls_matrix_type           full
_refine_ls_number_parameters     144
_refine_ls_number_reflns         2026
_refine_ls_number_restraints     4
_refine_ls_restrained_S_all      1.218
_refine_ls_R_factor_all          0.0190
_refine_ls_R_factor_gt           0.0171
_refine_ls_shift/su_max          0.001
_refine_ls_shift/su_mean         0.000
_refine_ls_structure_factor_coef Fsqd
_refine_ls_weighting_details
'w=1/[\s^2^(Fo^2^)+(0.0217P)^2^+0.0167P] where P=(Fo^2^+2Fc^2^)/3'
_refine_ls_weighting_scheme      calc
_refine_ls_wR_factor_gt          0.0416
_refine_ls_wR_factor_ref         0.0422
_reflns_number_gt                1928
_reflns_number_total             2026
_reflns_threshold_expression     'I > 2\s(I)'
_cod_data_source_file            yf3176sup1.cif
_cod_data_source_block           rgr545_a_pl
_cod_database_code               2021666
_shelx_space_group_comment
;
The symmetry employed for this shelxl refinement is uniquely defined
by the following loop, which should always be used as a source of
symmetry information in preference to the above space-group names.
They are only intended as comments.
;
_shelx_hkl_file
;
  -1   0   0 4097.99  131.99
  -1   0   0 4891.21  131.49
  -1   0   0 3907.81  132.49
  -1   0   0 4723.93  131.39
   1   0   0 4059.89  132.09
   1   0   0 5038.70  131.49
   1   0   0 5059.79  131.49
  -2   0   0 1552.74   46.10
  -2   0   0 1531.95   44.70
  -2   0   0 1455.65   44.50
  -2   0   0 1414.26   46.70
   2   0   0 1541.55   44.60
   2   0   0 1409.26   47.00
   2   0   0 1506.65   44.60
  -3   0   0 2143.59   65.69
  -3   0   0 2107.39   63.89
  -3   0   0 2276.57   66.79
  -3   0   0 2059.09   63.69
   3   0   0 1977.90   64.99
   3   0   0 2071.99   63.59
   3   0   0 2284.57   67.29
   3   0   0 2075.69   65.69
   3   0   0 2106.59   63.79
  -4   0   0  318.07   13.50
  -4   0   0  318.17   13.70
   4   0   0  312.77   15.80
   4   0   0  339.77   17.00
  -5   0   0 1411.26   46.70
  -5   0   0 1401.16   46.30
   5   0   0 1434.96   49.00
   5   0   0 1530.15   49.99
  -6   0   0 1200.78   42.00
  -6   0   0 1200.58   41.50
   6   0   0 1269.67   44.60
   6   0   0 1207.88   44.10
  -7   0   0  293.27   18.70
  -7   0   0  251.67   17.50
   7   0   0  286.57   20.60
   7   0   0  288.77   21.00
  -8   0   0   44.40   10.90
  -8   0   0   44.80   11.90
   8   0   0   62.09   13.00
   8   0   0   37.60   10.90
   8   0   0   68.19   13.30
   8  -1   0  308.47   22.90
   8  -1   0  301.77   23.90
   8  -1   0  301.57   23.40
  -8   1   0  273.87   21.70
  -8   1   0  263.47   20.90
   7  -1   0  806.62   33.20
   7  -1   0  713.33   33.30
   7  -1   0  694.73   29.80
  -7   1   0  721.53   28.80
  -7   1   0  695.03   29.70
   6  -1   0  979.30   38.50
   6  -1   0 1003.30   38.60
  -6   1   0  972.40   35.40
  -6   1   0  980.90   34.40
   5  -1   0  125.19   13.10
   5  -1   0  115.49   14.60
  -5   1   0  109.49   10.00
  -5   1   0  121.39    9.80
   4  -1   0  782.02   28.70
   4  -1   0  763.32   29.10
  -4   1   0  778.62   25.80
  -4   1   0  777.22   26.60
   3  -1   0 3989.70  122.69
   3  -1   0 3876.51  122.89
   3  -1   0 4365.16  121.09
   3  -1   0 4103.89  121.59
  -3   1   0 4021.40  122.29
  -3   1   0 4348.67  121.19
  -3   1   0 4172.58  121.69
  -3   1   0 4182.18  123.59
   2  -1   0 5397.16  151.88
   2  -1   0 5292.77  151.28
   2  -1   0 5088.69  152.18
  -2   1   0 5134.29  152.08
  -2   1   0 5264.77  151.38
  -2   1   0 4978.60  151.98
  -2   1   0 5340.57  151.88
   1  -1   0 2813.62   82.69
   1  -1   0 2801.82   82.39
   1  -1   0 2899.91   82.79
   1  -1   0 2863.41   82.39
  -1   1   0 2861.01   82.79
  -1   1   0 2737.63   82.29
  -1   1   0 2826.12   82.79
  -1   1   0 2966.40   82.79
  -1  -1   0  202.48    7.60
  -1  -1   0  201.58    7.50
  -1  -1   0  194.98    7.00
   1   1   0  203.98    7.60
   1   1   0  207.18    7.50
   1   1   0  205.68    7.60
   1   1   0  204.98    7.50
   1   1   0  197.38    7.00
  -2  -1   0 2278.87   68.19
  -2  -1   0 2367.16   69.29
  -2  -1   0 2330.87   69.59
  -2  -1   0 2324.37   68.69
   2   1   0 2341.97   68.19
   2   1   0 2362.56   68.59
   2   1   0 2235.98   69.39
   2   1   0 2265.97   69.29
   2   1   0 2298.67   69.39
  -3  -1   0 5661.53  162.68
  -3  -1   0 5607.44  164.08
  -3  -1   0 5629.44  162.38
   3   1   0 5830.02  162.28
   3   1   0 5048.49  164.48
   3   1   0 5523.35  164.18
  -4  -1   0 3445.96   98.79
  -4  -1   0 3393.36   98.49
   4   1   0 3324.27  100.59
   4   1   0 2974.00  101.39
  -5  -1   0  175.18   11.60
  -5  -1   0  120.69   11.10
   5   1   0  168.98   15.40
   5   1   0  172.68   13.70
  -6  -1   0  449.46   21.70
  -6  -1   0  454.35   21.10
   6   1   0  489.15   23.60
   6   1   0  492.55   24.50
  -7  -1   0  489.85   24.50
  -7  -1   0  492.75   24.10
   7   1   0  510.75   26.10
   7   1   0  494.95   26.00
  -8  -1   0  255.57   19.70
  -8  -1   0  304.77   21.70
   8   1   0  224.58   22.00
   8   1   0  270.47   22.80
   8  -2   0  262.77   24.60
   8  -2   0  206.08   24.30
   8  -2   0  258.47   21.40
  -8   2   0  244.08   20.90
  -8   2   0  283.77   20.50
   7  -2   0   33.70   13.20
   7  -2   0   46.80   12.50
   7  -2   0   35.10    9.10
  -7   2   0   24.70    9.10
  -7   2   0   21.00    8.20
   6  -2   0  235.08   19.00
   6  -2   0  254.97   19.90
   6  -2   0  247.38   14.60
  -6   2   0  248.38   14.50
  -6   2   0  240.68   15.50
   5  -2   0 2552.84   81.59
   5  -2   0 2589.24   78.19
   5  -2   0 2557.54   81.29
  -5   2   0 2579.64   78.29
  -5   2   0 2597.44   79.39
   4  -2   0 3149.28   94.89
   4  -2   0 3256.07   97.29
   4  -2   0 3265.67   96.89
  -4   2   0 3190.78   95.99
  -4   2   0 3130.09   94.89
   3  -2   0 1846.42   63.19
   3  -2   0 2212.88   62.49
   3  -2   0 2130.09   62.39
   3  -2   0 2070.19   63.49
   3  -2   0 2076.19   63.79
  -3   2   0 2175.88   62.49
  -3   2   0 2179.78   63.59
  -3   2   0 2122.79   63.59
   2  -2   0   54.99    4.50
   2  -2   0   52.39    3.30
   2  -2   0   50.69    3.40
   2  -2   0   49.40    4.10
   2  -2   0   44.40    4.10
  -2   2   0   48.50    4.20
  -2   2   0   47.00    4.20
  -2   2   0   50.09    4.30
   1  -2   0  623.54   19.80
   1  -2   0  631.64   19.00
   1  -2   0  650.63   19.60
   1  -2   0  621.74   19.90
  -1   2   0  636.64   19.80
  -1   2   0  647.04   19.60
  -1   2   0  666.83   19.10
  -1   2   0  619.04   19.80
   0  -2   0 4148.98  130.89
   0  -2   0 4737.03  131.49
   0  -2   0 4564.14  131.49
   0   2   0 4516.75  131.39
   0   2   0 4597.24  131.39
   0   2   0 4583.54  130.89
  -1  -2   0 4610.44  131.49
  -1  -2   0 4378.36  132.59
  -1  -2   0 4566.54  132.59
  -1  -2   0 4683.83  132.59
   1   2   0 4449.45  131.49
   1   2   0 4562.44  132.69
   1   2   0 4481.45  132.59
   1   2   0 4699.63  132.49
   1   2   0 4459.75  132.49
  -2  -2   0 4817.32  135.79
  -2  -2   0 4818.82  135.89
  -2  -2   0 4736.83  134.79
  -2  -2   0 4248.38  135.79
   2   2   0 4742.63  134.79
   2   2   0 4538.55  135.59
   2   2   0 4478.65  135.79
   2   2   0 4733.83  135.69
   2   2   0 4545.04  135.89
  -3  -2   0  180.88   10.70
  -3  -2   0  195.08    9.70
  -3  -2   0  188.58    8.70
   3   2   0  180.58   10.40
   3   2   0  164.28    8.80
   3   2   0  184.38   10.60
  -4  -2   0  353.06   15.60
  -4  -2   0  362.36   14.60
   4   2   0  346.17   18.00
   4   2   0  339.77   17.50
  -5  -2   0 1504.75   46.70
  -5  -2   0 1463.15   47.40
   5   2   0 1486.25   49.50
   5   2   0 1267.67   50.59
  -6  -2   0  966.10   35.30
  -6  -2   0  958.50   35.70
   6   2   0  960.80   39.50
   6   2   0  969.70   37.80
  -7  -2   0  433.46   22.90
  -7  -2   0  411.36   23.40
   7   2   0  475.75   26.90
   7   2   0  446.96   24.80
  -8  -2   0   28.10   12.70
  -8  -2   0   17.30   10.80
   8   2   0   15.70   13.40
   8   2   0   43.80   14.00
   8  -3   0  164.78   16.40
   8  -3   0  190.98   20.20
   8  -3   0  177.08   20.30
  -8   3   0  186.78   19.00
   7  -3   0  627.64   34.60
   7  -3   0  668.13   28.00
   7  -3   0  682.93   32.10
  -7   3   0  695.63   28.40
  -7   3   0  671.33   28.50
   6  -3   0  843.32   36.70
   6  -3   0  872.61   31.10
   6  -3   0  919.51   34.90
  -6   3   0  874.31   31.10
  -6   3   0  892.81   32.60
   5  -3   0  853.21   31.30
   5  -3   0  777.52   27.40
   5  -3   0  834.02   29.80
  -5   3   0  792.62   27.30
  -5   3   0  788.02   29.00
   4  -3   0  438.96   16.20
   4  -3   0  440.56   16.10
   4  -3   0  460.95   17.70
   4  -3   0  483.65   18.70
  -4   3   0  458.75   17.80
   3  -3   0  597.04   18.50
   3  -3   0  555.04   20.00
   3  -3   0  571.94   18.50
   3  -3   0  576.24   19.80
  -3   3   0  571.54   19.80
   2  -3   0 7849.11  228.88
   2  -3   0 7899.71  228.68
   2  -3   0 7929.51  227.68
   2  -3   0 7891.21  229.08
   2  -3   0 7997.80  227.68
  -2   3   0 7795.82  228.88
  -2   3   0 7920.01  227.68
  -2   3   0 7480.75  228.48
  -2   3   0 8171.08  228.88
   1  -3   0 8446.66  241.68
   1  -3   0 8218.28  240.48
   1  -3   0 8023.00  240.68
   1  -3   0 8213.78  241.58
  -1   3   0 8593.04  241.58
  -1   3   0 8793.92  240.48
  -1   3   0 8664.03  241.68
  -1   3   0 7733.33  240.68
   0  -3   0 1181.08   35.80
   0  -3   0 1189.58   36.50
   0  -3   0 1180.88   36.50
   0   3   0 1193.98   36.40
   0   3   0 1199.78   36.40
   0   3   0 1224.88   35.70
  -1  -3   0   62.79    5.00
  -1  -3   0   57.99    5.00
  -1  -3   0   63.89    5.00
  -1  -3   0   67.59    3.10
   1   3   0   71.99    5.20
   1   3   0   65.39    5.10
   1   3   0   74.89    5.10
   1   3   0   59.09    5.00
   1   3   0   71.09    3.30
  -2  -3   0  558.24   17.30
  -2  -3   0  530.45   19.10
  -2  -3   0  546.25   18.90
   2   3   0  555.84   17.40
   2   3   0  503.65   18.90
   2   3   0  547.85   19.10
  -3  -3   0 2310.57   68.09
  -3  -3   0 2288.77   70.39
  -3  -3   0 2264.37   69.49
   3   3   0 2202.38   69.89
   3   3   0 2294.77   70.39
   3   3   0 2283.67   68.09
  -4  -3   0 2333.87   73.29
  -4  -3   0 2226.58   69.99
  -4  -3   0 2299.57   71.49
   4   3   0 2368.56   73.19
   4   3   0 2306.87   73.09
  -5  -3   0  767.62   27.80
  -5  -3   0  782.22   29.20
   5   3   0  785.22   33.00
   5   3   0  749.73   31.20
  -6  -3   0    8.60    7.80
  -6  -3   0   21.80    8.50
   6   3   0   23.30   12.50
   6   3   0    2.30    9.20
  -7  -3   0   62.89   12.70
  -7  -3   0   60.59   10.70
   7   3   0   56.09   12.80
   7   3   0   67.49   15.00
   8  -4   0  353.36   32.30
   8  -4   0  359.36   29.30
  -8   4   0  394.06   22.90
   7  -4   0  183.38   23.70
   7  -4   0  231.08   17.20
   7  -4   0  232.38   21.80
  -7   4   0  246.18   17.80
   6  -4   0   22.00   10.70
   6  -4   0   21.20    6.80
   6  -4   0   26.30    8.90
  -6   4   0   20.20    7.30
   5  -4   0  566.74   24.00
   5  -4   0  537.75   22.20
   5  -4   0  559.94   20.20
  -5   4   0  532.05   22.00
   4  -4   0 2401.26   71.79
   4  -4   0 2390.36   73.69
   4  -4   0 2466.95   71.99
   4  -4   0 2379.66   74.29
  -4   4   0 2424.46   73.69
   3  -4   0 4687.13  142.59
   3  -4   0 5000.50  140.59
   3  -4   0 4774.72  142.29
   3  -4   0 4929.01  140.59
  -3   4   0 4763.12  141.89
   2  -4   0 1165.48   37.40
   2  -4   0 1190.08   36.50
   2  -4   0 1159.58   37.20
   2  -4   0 1180.28   35.50
  -2   4   0 1245.18   35.50
  -2   4   0 1189.78   36.40
   1  -4   0    2.90    2.60
   1  -4   0    0.60    2.40
   1  -4   0    3.00    1.80
   1  -4   0    4.20    2.10
  -1   4   0    3.30    1.90
  -1   4   0    1.90    2.90
  -1   4   0   -0.10    1.90
   0  -4   0 1344.57   41.70
   0  -4   0 1356.96   40.80
   0  -4   0 1330.27   41.70
   0   4   0 1360.36   40.50
  -1  -4   0 2124.79   64.39
  -1  -4   0 2121.89   63.89
  -1  -4   0 2136.39   64.39
   1   4   0 2157.18   64.39
   1   4   0 2074.79   63.59
  -2  -4   0 4661.93  135.09
  -2  -4   0 4601.54  132.79
  -2  -4   0 4534.55  135.49
   2   4   0 4594.74  132.89
   2   4   0 4463.65  135.39
  -3  -4   0 1734.63   53.39
  -3  -4   0 1681.43   53.79
  -3  -4   0 1586.84   50.79
   3   4   0 1733.83   51.19
   3   4   0 1672.93   53.59
  -4  -4   0    9.80    7.10
  -4  -4   0    7.00    5.90
  -4  -4   0   17.30    5.10
   4   4   0   20.80    7.00
   4   4   0    1.60    6.80
  -5  -4   0  614.54   23.60
  -5  -4   0  618.64   25.50
  -5  -4   0  608.84   27.90
   5   4   0  590.84   27.80
   5   4   0  597.84   27.90
  -6  -4   0  568.34   25.50
  -6  -4   0  589.04   27.00
   6   4   0  608.34   33.20
   6   4   0  589.14   29.70
  -7  -4   0  359.76   24.00
  -7  -4   0  404.76   24.40
   7   4   0  358.26   27.10
   7   4   0  352.56   30.60
   7  -5   0  443.26   26.60
   7  -5   0  492.55   29.70
  -7   5   0  396.36   23.30
   6  -5   0 1108.29   40.50
   6  -5   0 1085.69   37.70
   6  -5   0 1172.08   43.70
  -6   5   0 1150.78   39.90
   5  -5   0  949.40   31.60
   5  -5   0  991.00   35.60
   5  -5   0  956.50   34.00
  -5   5   0  962.00   33.90
   4  -5   0  406.06   16.90
   4  -5   0  392.16   17.70
   4  -5   0  366.96   14.50
   4  -5   0  389.96   14.30
  -4   5   0  409.46   16.80
   3  -5   0   24.60    5.30
   3  -5   0   31.80    3.60
   3  -5   0   26.60    5.20
   3  -5   0   29.10    3.20
  -3   5   0   22.10    4.30
   2  -5   0  587.84   20.90
   2  -5   0  578.04   21.20
   2  -5   0  595.84   18.80
   2  -5   0  592.14   19.60
  -2   5   0  603.44   19.40
  -2   5   0  588.74   18.60
   1  -5   0 3440.56  101.19
   1  -5   0 3418.86   99.39
   1  -5   0 3319.57  101.09
  -1   5   0 3271.07   98.49
  -1   5   0 3509.95   99.09
   0  -5   0 4795.12  143.39
   0  -5   0 4839.62  142.29
   0  -5   0 4815.72  143.39
   0   5   0 4988.50  141.79
  -1  -5   0 1583.04   48.80
  -1  -5   0 1597.94   49.70
  -1  -5   0 1553.54   49.60
   1   5   0 1577.14   49.70
  -2  -5   0   -0.50    4.60
  -2  -5   0    6.30    4.60
   2   5   0    6.50    4.60
   2   5   0    7.50    2.30
  -3  -5   0  923.01   32.20
  -3  -5   0  928.11   28.90
  -3  -5   0  948.81   33.10
   3   5   0  912.71   32.80
   3   5   0  898.11   29.40
  -4  -5   0 1168.98   38.70
  -4  -5   0 1166.38   41.60
  -4  -5   0 1244.18   43.10
   4   5   0 1205.48   42.70
   4   5   0 1232.68   43.10
  -5  -5   0  887.51   36.10
  -5  -5   0  822.52   31.20
  -5  -5   0  848.82   33.80
   5   5   0  858.41   35.70
   5   5   0  935.41   36.30
  -6  -5   0  268.77   20.50
  -6  -5   0  224.08   19.20
   6   5   0  221.88   24.60
   6   5   0  237.08   23.00
   7  -6   0  626.34   31.00
   7  -6   0  632.34   34.10
  -7   6   0  619.24   28.70
   6  -6   0  522.95   24.90
   6  -6   0  541.15   27.50
  -6   6   0  508.35   24.50
   5  -6   0   39.80    8.00
   5  -6   0   50.59   10.20
  -5   6   0   40.30    8.00
   4  -6   0 1213.38   39.90
   4  -6   0 1185.58   40.50
   4  -6   0 1138.79   36.40
  -4   6   0 1174.28   38.70
   3  -6   0 2785.42   83.69
   3  -6   0 2754.12   83.29
   3  -6   0 2512.95   80.19
   3  -6   0 2775.62   80.29
  -3   6   0 2796.32   81.59
   2  -6   0 1645.54   49.30
   2  -6   0 1622.94   51.99
   2  -6   0 1629.84   51.79
   2  -6   0 1655.23   49.20
  -2   6   0 1627.74   49.20
  -2   6   0 1657.83   48.90
   1  -6   0  794.62   25.30
   1  -6   0  795.62   27.30
   1  -6   0  766.02   27.40
  -1   6   0  772.52   24.70
   0  -6   0    1.00    4.50
   0  -6   0   -1.90    4.10
   0  -6   0   10.50    4.50
   0   6   0    1.20    3.90
  -1  -6   0  716.33   26.40
  -1  -6   0  732.23   26.50
  -1  -6   0  720.43   25.50
   1   6   0  745.43   26.60
  -2  -6   0 2529.05   78.39
  -2  -6   0 2592.74   79.39
   2   6   0 2527.95   79.29
  -3  -6   0 1424.66   44.00
  -3  -6   0 1507.05   48.80
  -3  -6   0 1423.46   49.20
   3   6   0 1513.25   49.50
  -4  -6   0  343.07   19.60
  -4  -6   0  321.47   19.50
   4   6   0  303.07   19.90
   4   6   0  312.17   19.00
  -5  -6   0   21.30   10.20
  -5  -6   0   15.40    9.60
   5   6   0   17.20   11.20
   5   6   0   27.60   10.20
  -6  -6   0  122.99   17.20
  -6  -6   0  119.49   15.50
   6   6   0  132.79   18.10
   6   6   0  124.89   17.10
   6  -7   0  263.97   21.40
   6  -7   0  252.77   20.00
  -6   7   0  269.37   19.60
   5  -7   0  919.61   35.30
   5  -7   0  953.10   36.70
  -5   7   0  982.60   34.50
   4  -7   0 1473.45   49.20
   4  -7   0 1524.05   50.19
  -4   7   0 1445.36   47.20
   3  -7   0  713.13   26.60
   3  -7   0  714.23   27.40
  -3   7   0  686.03   23.80
   2  -7   0   36.30    6.60
   2  -7   0   34.50    4.70
   2  -7   0   22.40    6.70
  -2   7   0   40.80    4.00
   1  -7   0 1388.96   43.10
   1  -7   0 1394.26   45.30
   1  -7   0 1341.37   45.30
   0  -7   0 2773.12   82.69
   0  -7   0 2629.14   80.69
   0  -7   0 2641.54   82.49
   0   7   0 2636.04   82.49
  -1  -7   0 1448.66   46.50
  -1  -7   0 1396.66   47.40
  -1  -7   0 1385.86   47.50
   1   7   0 1493.45   48.00
  -2  -7   0  232.78   15.60
  -2  -7   0  237.28   14.90
   2   7   0  233.78   15.40
  -3  -7   0   25.80    7.90
  -3  -7   0   12.40    8.80
   3   7   0   12.30    7.70
  -4  -7   0  179.18   19.00
  -4  -7   0  175.08   17.90
   4   7   0  184.88   16.80
  -5  -7   0  518.25   27.90
  -5  -7   0  469.75   29.50
   5   7   0  543.55   29.70
   5   7   0  541.15   30.40
   6  -8   0  401.26   25.40
   6  -8   0  429.46   27.00
   5  -8   0  177.18   16.80
   5  -8   0  157.48   17.50
   4  -8   0   25.30    8.30
   4  -8   0   17.60    8.70
   3  -8   0  844.02   32.90
   3  -8   0  858.91   32.10
   2  -8   0 1514.95   50.09
   2  -8   0 1444.66   49.20
   1  -8   0 1414.16   47.20
   1  -8   0 1353.06   46.50
   0  -8   0  392.76   19.60
   0  -8   0  390.16   19.30
   0  -8   0  370.96   17.70
   0   8   0  372.86   19.70
  -1  -8   0    9.00    7.50
  -1  -8   0   13.60    7.50
  -1  -8   0    3.20    7.40
   1   8   0   14.70    7.80
  -2  -8   0  795.62   30.90
  -2  -8   0  704.33   29.80
   2   8   0  754.92   30.60
  -3  -8   0 1089.09   41.50
  -3  -8   0 1144.59   42.70
   3   8   0 1092.89   42.10
  -4  -8   0  570.24   29.90
  -4  -8   0  576.84   29.80
   4   8   0  514.15   28.30
   4  -9   0 1103.99   40.70
   4  -9   0 1061.09   41.10
   3  -9   0  676.73   29.20
   3  -9   0  690.33   29.40
   2  -9   0  114.59   14.40
   2  -9   0   78.19   10.50
   1  -9   0   37.10    8.70
   1  -9   0   45.70    9.60
  -1   9   0   40.40    9.60
   0  -9   0  563.24   26.70
   0  -9   0  588.84   26.10
   0   9   0  610.34   26.60
  -1  -9   0 1095.99   40.10
  -1  -9   0 1026.60   39.20
   1   9   0 1012.50   39.60
  -2  -9   0  758.92   33.40
  -2  -9   0  780.52   33.50
   2   9   0  755.32   33.30
  -3  -9   0   86.09   14.80
  -3  -9   0  101.29   15.40
   3   9   0   87.79   14.20
   2 -10   0  680.23   31.50
   2 -10   0  715.03   30.90
   1 -10   0 1135.69   42.00
   1 -10   0 1102.49   42.60
  -1  10   0 1092.49   42.30
   0 -10   0  501.25   24.80
   0 -10   0  430.96   26.20
   0  10   0  488.65   26.00
   1  10  -1  230.98   20.50
  -1 -10   1  217.38   21.20
  -1 -10   1  219.48   19.90
   0  10  -1   15.50   10.80
   0 -10   1    9.70   10.40
   0 -10   1    2.30    9.30
  -1  10  -1  305.87   21.10
   1 -10   1  383.46   22.00
   1 -10   1  359.16   20.60
   2 -10   1  784.32   32.40
   2 -10   1  781.22   33.70
   3 -10   1  961.20   38.90
   3 -10   1  937.01   37.60
   3   9  -1  173.08   19.80
  -3  -9   1  177.18   20.80
  -3  -9   1  143.89   15.90
   2   9  -1   15.30    9.60
  -2  -9   1   16.10    9.80
   1   9  -1  439.66   22.80
  -1  -9   1  446.26   22.50
  -1  -9   1  446.86   23.10
   0   9  -1 1186.68   42.50
   0  -9   1 1176.58   42.20
   0  -9   1 1170.08   42.70
   1  -9   1 1276.87   44.70
   1  -9   1 1254.67   44.50
   2  -9   1  369.66   19.40
   2  -9   1  332.77   19.90
   3  -9   1    4.00    8.00
   3  -9   1    5.40    8.90
   4  -9   1  426.96   23.00
   4  -9   1  443.56   24.80
   5  -9   1  685.73   30.70
   5  -9   1  640.14   31.60
   4   8  -1   22.50   11.60
   4   8  -1   15.80   10.60
  -4  -8   1   13.40   12.40
  -4  -8   1   18.70   11.90
   3   8  -1  507.15   24.80
  -3  -8   1  513.15   26.20
  -3  -8   1  525.65   25.00
   2   8  -1 1586.14   53.89
  -2  -8   1 1560.34   52.09
  -2  -8   1 1594.54   53.89
  -2  -8   1 1638.24   54.69
   1   8  -1 1078.39   39.00
  -1  -8   1 1072.09   39.50
  -1  -8   1 1055.09   37.00
  -1  -8   1 1175.18   39.60
   0  -8   1  277.47   16.50
   0  -8   1  250.77   13.50
   0  -8   1  251.87   15.60
   1  -8   1   66.09    9.30
   1  -8   1   85.29    9.50
   2  -8   1  620.84   25.80
   2  -8   1  615.84   25.20
   3  -8   1 1392.56   47.10
   3  -8   1 1377.96   47.40
  -4   8  -1 1018.60   40.30
   4  -8   1  966.00   37.20
   4  -8   1  987.10   36.60
  -5   8  -1  290.47   19.20
   5  -8   1  282.17   21.30
   5  -8   1  300.17   19.60
  -6   8  -1  -10.10   11.70
   6  -8   1   -9.90   10.60
   6  -8   1    0.00   12.70
   5   7  -1  327.57   22.80
   5   7  -1  302.87   24.60
  -5  -7   1  340.37   24.30
  -5  -7   1  299.97   25.50
   4   7  -1 1444.36   50.59
   4   7  -1 1443.16   51.59
  -4  -7   1 1440.76   51.89
  -4  -7   1 1409.66   50.29
   3   7  -1  993.20   36.60
  -3  -7   1  974.60   35.50
  -3  -7   1  976.60   36.90
   2   7  -1   43.70    8.00
  -2  -7   1   51.99    8.40
  -2  -7   1   41.80    8.00
  -2  -7   1   51.29    7.60
   1   7  -1  135.19   11.80
  -1  -7   1  123.09   10.40
  -1  -7   1  117.39   11.20
  -1  -7   1  146.19   12.00
   0   7  -1  504.15   19.40
   0  -7   1  484.25   20.20
   0  -7   1  492.15   18.30
   0  -7   1  496.65   20.50
   1  -7   1 2304.57   72.09
   1  -7   1 2294.67   68.59
   1  -7   1 2345.47   71.99
  -2   7  -1 2766.02   82.79
   2  -7   1 2791.12   85.89
   2  -7   1 2822.02   85.79
  -3   7  -1  488.75   19.30
   3  -7   1  503.05   21.40
   3  -7   1  533.25   21.80
  -4   7  -1  299.17   15.00
   4  -7   1  272.17   16.00
   4  -7   1  281.77   16.80
  -5   7  -1  685.43   27.60
   5  -7   1  685.03   29.60
   5  -7   1  676.43   27.90
  -6   7  -1  638.24   28.80
   6  -7   1  677.73   31.20
   6  -7   1  587.24   28.50
   6   6  -1  477.25   29.10
   6   6  -1  452.35   29.10
  -6  -6   1  416.46   25.40
   5   6  -1  555.24   27.80
   5   6  -1  533.15   27.00
  -5  -6   1  533.25   28.40
  -5  -6   1  498.75   26.10
   4   6  -1   93.99   12.30
   4   6  -1  103.19   13.30
  -4  -6   1  100.19   12.30
  -4  -6   1   88.19   10.20
  -4  -6   1   99.99   11.20
   3   6  -1   55.39    5.50
   3   6  -1   48.10    8.10
  -3  -6   1   45.50    5.10
  -3  -6   1   66.39    8.90
  -3  -6   1   71.69    8.50
   2   6  -1 1216.98   36.90
   2   6  -1 1218.68   37.20
   2   6  -1 1236.18   41.30
  -2  -6   1 1230.78   41.50
  -2  -6   1 1227.88   41.30
  -2  -6   1 1264.97   40.40
   1   6  -1 2720.43   82.69
  -1  -6   1 2672.03   82.59
  -1  -6   1 2723.53   81.09
  -1  -6   1 2681.03   82.49
   0   6  -1 3173.68   94.69
   0  -6   1 3265.17   97.09
   0  -6   1 3230.78   95.19
   0  -6   1 3228.78   97.29
  -1   6  -1  426.56   13.60
  -1   6  -1  412.36   14.10
   1  -6   1  410.26   16.90
   1  -6   1  421.26   17.00
   1  -6   1  414.96   13.70
   1  -6   1  424.86   14.00
  -2   6  -1  429.76   15.50
   2  -6   1  416.26   15.10
   2  -6   1  424.36   17.20
   2  -6   1  420.86   17.30
  -3   6  -1 1789.32   55.79
   3  -6   1 1763.92   56.99
   3  -6   1 1889.61   57.59
  -4   6  -1 1436.66   46.00
   4  -6   1 1453.15   47.00
   4  -6   1 1374.06   46.80
  -5   6  -1 1005.30   34.40
   5  -6   1  884.31   35.20
   5  -6   1  960.80   34.80
  -6   6  -1  230.58   17.60
   6  -6   1  250.07   18.50
   6  -6   1  270.17   21.30
  -7   6  -1    7.50   10.20
   7  -6   1   23.50   15.40
   7  -6   1    5.30   11.70
   7   5  -1  191.18   23.70
   7   5  -1  160.48   19.70
  -7  -5   1  159.58   22.00
  -7  -5   1  180.78   22.10
   6   5  -1   25.00   12.30
   6   5  -1   25.70   13.00
  -6  -5   1   13.20    9.70
  -6  -5   1   19.30   10.20
   5   5  -1  115.69   13.70
   5   5  -1  114.39   13.00
  -5  -5   1  135.89   12.50
  -5  -5   1  102.99   12.00
  -5  -5   1  125.29   14.20
   4   5  -1 1103.29   40.20
   4   5  -1 1083.59   38.80
  -4  -5   1 1119.99   40.20
  -4  -5   1 1087.39   35.60
  -4  -5   1 1074.49   38.20
   3   5  -1 2039.10   62.39
   3   5  -1 2131.09   65.39
  -3  -5   1 2085.79   65.89
  -3  -5   1 2014.30   64.59
  -3  -5   1 2105.89   62.39
   2   5  -1 2035.50   60.29
   2   5  -1 2066.59   60.19
   2   5  -1 2067.19   63.39
  -2  -5   1 1994.20   63.29
  -2  -5   1 2002.00   60.09
  -2  -5   1 2085.79   62.59
  -2  -5   1 2002.40   63.09
   1   5  -1  225.48   11.40
   1   5  -1  243.38   10.90
   1   5  -1  243.88    8.50
   1   5  -1  245.68    8.40
  -1  -5   1  243.38   10.80
  -1  -5   1  244.08   11.60
  -1  -5   1  240.18   11.50
   0   5  -1  359.66   11.30
   0   5  -1  352.36   12.30
   0   5  -1  356.56   11.60
   0  -5   1  355.66   12.50
   0  -5   1  347.27   14.10
   0  -5   1  331.67   14.10
  -1   5  -1 3190.58   93.89
  -1   5  -1 3273.47   92.99
   1  -5   1 3161.48   95.39
   1  -5   1 3083.89   95.59
   1  -5   1 3270.47   93.49
   1  -5   1 3242.68   93.29
  -2   5  -1 3311.37   96.39
   2  -5   1 3251.17   97.69
   2  -5   1 3156.38   97.19
   2  -5   1 3330.67   96.19
  -3   5  -1 2053.59   62.19
   3  -5   1 2034.20   63.09
   3  -5   1 2021.60   62.59
  -4   5  -1  191.88   11.70
   4  -5   1  171.28   11.60
   4  -5   1  175.78   11.60
   4  -5   1  193.68    8.70
   4  -5   1  176.88    7.80
  -5   5  -1   80.79    9.20
   5  -5   1   89.59   10.40
   5  -5   1  114.59   12.00
   5  -5   1   71.89    8.40
  -6   5  -1  673.83   28.20
   6  -5   1  713.13   29.70
   6  -5   1  739.93   32.80
   6  -5   1  676.13   25.60
  -7   5  -1  571.44   27.20
   7  -5   1  592.94   34.00
   7  -5   1  643.94   30.90
   7   4  -1   39.00   13.70
   7   4  -1   26.00   16.40
  -7  -4   1   47.40   12.50
  -7  -4   1   49.00   11.90
   6   4  -1  621.24   29.00
   6   4  -1  607.94   31.20
  -6  -4   1  540.75   25.60
  -6  -4   1  573.24   26.20
   5   4  -1 1681.63   57.49
   5   4  -1 1701.53   57.59
  -5  -4   1 1707.23   53.69
  -5  -4   1 1488.95   54.79
  -5  -4   1 1809.52   58.19
   4   4  -1  873.21   31.50
   4   4  -1  851.71   32.60
  -4  -4   1  855.01   28.90
  -4  -4   1  865.11   32.90
  -4  -4   1  847.92   30.80
   3   4  -1   91.89    9.90
   3   4  -1   70.39    8.40
   3   4  -1   85.59    7.10
  -3  -4   1   76.29    8.30
  -3  -4   1   81.89    6.50
  -3  -4   1   82.99    9.50
   2   4  -1  562.34   17.50
   2   4  -1  543.05   19.50
  -2  -4   1  532.05   19.00
  -2  -4   1  524.85   19.20
  -2  -4   1  502.35   19.40
  -2  -4   1  525.15   17.10
   1   4  -1 2877.31   84.29
   1   4  -1 2804.62   83.39
   1   4  -1 2753.72   82.09
   1   4  -1 2925.51   82.09
  -1  -4   1 2768.72   84.09
  -1  -4   1 2859.71   83.49
  -1  -4   1 2736.83   84.09
   0   4  -1 6229.38  180.68
   0   4  -1 6374.86  179.08
   0   4  -1 6032.80  179.18
   0   4  -1 6231.78  179.48
   0  -4   1 5728.33  179.58
   0  -4   1 6344.97  180.88
   0  -4   1 6352.56  181.08
   0  -4   1 6297.37  179.08
  -1   4  -1 2492.55   74.89
  -1   4  -1 2541.05   74.09
   1  -4   1 2478.85   74.99
   1  -4   1 2546.95   75.29
   1  -4   1 2543.15   73.79
  -2   4  -1  179.98    8.20
   2  -4   1  167.58    8.30
   2  -4   1  183.28    8.10
  -3   4  -1  375.06   15.20
   3  -4   1  402.06   12.80
   3  -4   1  402.46   12.70
   3  -4   1  375.76   15.40
   3  -4   1  382.96   15.00
  -4   4  -1 1408.26   46.50
   4  -4   1 1479.55   47.00
   4  -4   1 1443.66   44.20
   4  -4   1 1472.55   44.10
   4  -4   1 1478.85   46.90
  -5   4  -1 2381.56   74.59
   5  -4   1 2465.95   75.79
   5  -4   1 2276.67   72.09
   5  -4   1 2449.35   75.59
  -6   4  -1  865.61   32.00
   6  -4   1  827.52   35.70
   6  -4   1  816.52   29.90
   6  -4   1  852.71   34.20
  -7   4  -1   17.80    9.10
   7  -4   1   -4.90   13.30
   7  -4   1   19.40   12.10
   7  -4   1    4.60    9.00
  -8   4  -1   66.49   12.00
   8  -4   1  102.09   17.70
   8  -4   1   55.09   18.60
   7   3  -1  561.74   31.70
   7   3  -1  534.65   28.80
  -7  -3   1  522.85   26.90
  -7  -3   1  513.15   26.00
   6   3  -1  288.87   22.50
   6   3  -1  307.87   20.60
  -6  -3   1  335.97   18.60
  -6  -3   1  355.76   18.90
   5   3  -1   21.80    8.30
   5   3  -1   13.50    8.90
  -5  -3   1   22.90    6.10
  -5  -3   1   16.80    6.90
   4   3  -1  373.36   17.40
   4   3  -1  372.46   18.40
  -4  -3   1  351.56   14.80
  -4  -3   1  363.36   18.70
  -4  -3   1  362.36   16.30
   3   3  -1 1491.15   46.80
   3   3  -1 1508.15   48.20
   3   3  -1 1528.85   49.30
  -3  -3   1 1535.05   48.00
  -3  -3   1 1543.45   49.40
  -3  -3   1 1591.54   47.00
   2   3  -1 5777.22  169.18
   2   3  -1 5759.22  168.98
   2   3  -1 5907.61  167.88
  -2  -3   1 5787.92  168.98
  -2  -3   1 5616.04  169.48
  -2  -3   1 5830.22  167.88
   1   3  -1 5138.89  146.09
   1   3  -1 4965.40  146.89
   1   3  -1 5050.99  147.19
   1   3  -1 5098.79  147.29
   1   3  -1 5102.79  147.39
   1   3  -1 5002.30  145.99
  -1  -3   1 5007.70  147.29
  -1  -3   1 5079.19  147.39
  -1  -3   1 5066.19  145.99
  -1  -3   1 4937.51  146.89
   0   3  -1  271.57    8.70
   0   3  -1  269.57   10.00
   0   3  -1  254.47    9.60
   0   3  -1  270.47    8.80
   0   3  -1  253.77    8.90
   0  -3   1  253.77    9.90
   0  -3   1  270.07    9.00
   0  -3   1  261.37    9.80
   0  -3   1  270.77    8.70
  -1   3  -1 3886.81  112.29
  -1   3  -1 3889.51  111.89
  -1   3  -1 3773.22  111.59
   1  -3   1 3906.91  111.49
   1  -3   1 3697.03  111.79
   1  -3   1 3821.92  112.29
  -2   3  -1 3449.85  102.49
  -2   3  -1 3574.84  102.19
  -2   3  -1 3460.65  102.29
   2  -3   1 3412.26  102.59
   2  -3   1 3560.24  102.29
   2  -3   1 3490.95  100.59
   2  -3   1 3396.16  102.09
   2  -3   1 3456.25  100.69
  -3   3  -1 3541.75  105.09
  -3   3  -1 3446.26  103.29
   3  -3   1 3656.73  103.49
   3  -3   1 3397.66  104.79
   3  -3   1 3605.24  103.39
   3  -3   1 3608.64  105.39
  -4   3  -1 1330.47   44.00
  -4   3  -1 1484.15   46.20
   4  -3   1 1475.45   44.20
   4  -3   1 1324.47   44.00
   4  -3   1 1538.45   47.10
   4  -3   1 1526.85   46.60
  -5   3  -1  204.68   11.10
  -5   3  -1  207.08   12.80
   5  -3   1  213.78   15.00
   5  -3   1  202.78   15.40
   5  -3   1  215.58   11.10
  -6   3  -1  279.17   14.90
  -6   3  -1  266.97   16.20
   6  -3   1  290.67   14.90
   6  -3   1  285.87   20.00
   6  -3   1  257.87   21.40
  -7   3  -1  503.15   23.80
  -7   3  -1  517.65   23.70
   7  -3   1  519.95   23.30
   7  -3   1  474.75   28.00
   7  -3   1  478.25   30.80
  -8   3  -1  461.25   25.30
  -8   3  -1  456.95   26.80
   8  -3   1  430.96   31.40
   8  -3   1  397.56   25.40
   8  -3   1  456.75   30.00
   8   2  -1  132.29   15.40
   8   2  -1  181.98   21.90
   8   2  -1  140.29   16.70
  -8  -2   1  131.09   14.70
  -8  -2   1  173.98   19.50
   7   2  -1   -3.50    9.60
   7   2  -1   17.20   11.00
  -7  -2   1   -9.20    9.20
  -7  -2   1   25.20    8.40
   6   2  -1  205.68   19.30
   6   2  -1  234.38   17.70
  -6  -2   1  201.28   15.20
  -6  -2   1  224.78   15.60
   5   2  -1 1740.23   63.39
   5   2  -1 1930.71   62.89
  -5  -2   1 1967.70   60.09
  -5  -2   1 1963.90   60.69
   4   2  -1 2524.25   79.99
   4   2  -1 2519.05   79.49
  -4  -2   1 2574.04   78.09
  -4  -2   1 2593.84   77.29
   3   2  -1 1543.65   47.70
   3   2  -1 1558.44   48.80
   3   2  -1 1528.45   49.90
  -3  -2   1 1584.74   48.60
  -3  -2   1 1566.24   50.19
  -3  -2   1 1606.44   47.80
   2   2  -1    9.80    3.00
   2   2  -1   18.60    3.90
   2   2  -1    9.50    2.80
   2   2  -1   12.70    2.90
   2   2  -1    7.40    3.40
   2   2  -1   11.20    2.40
  -2  -2   1    8.50    2.30
  -2  -2   1   22.70    4.10
  -2  -2   1   12.60    3.00
  -2  -2   1    5.70    2.60
   1   2  -1 1085.99   33.20
   1   2  -1 1084.19   33.10
   1   2  -1 1061.49   33.20
   1   2  -1 1132.49   32.60
   1   2  -1 1134.69   33.20
  -1  -2   1 1098.59   33.40
  -1  -2   1 1091.09   32.60
  -1  -2   1 1072.99   33.20
  -1  -2   1 1097.39   33.00
   0   2  -1 5447.85  154.88
   0   2  -1 5726.13  155.28
   0   2  -1 5243.48  154.58
   0  -2   1 5322.07  155.18
   0  -2   1 5604.14  154.58
   0  -2   1 5260.77  154.98
   0  -2   1 4852.61  154.38
  -1   2  -1 5417.06  151.78
  -1   2  -1 5050.49  151.48
  -1   2  -1 5241.28  151.28
   1  -2   1 5168.08  151.38
   1  -2   1 5288.67  151.88
   1  -2   1 5167.28  151.38
  -2   2  -1 3388.46   97.89
  -2   2  -1 3394.16   97.39
  -2   2  -1 3339.27   97.69
  -2   2  -1 3238.08   96.49
   2  -2   1 3379.96   96.59
   2  -2   1 3422.36   97.79
   2  -2   1 3176.18   97.29
   2  -2   1 3237.28   97.79
  -3   2  -1  155.98    8.50
  -3   2  -1  160.18    8.30
  -3   2  -1  146.99    9.00
  -3   2  -1  163.88    7.20
   3  -2   1  159.28    7.20
   3  -2   1  168.98    8.90
  -4   2  -1  432.66   17.50
  -4   2  -1  435.56   16.20
   4  -2   1  422.46   16.20
   4  -2   1  479.25   19.10
   4  -2   1  479.45   19.90
  -5   2  -1 1921.11   57.49
  -5   2  -1 1931.81   58.89
   5  -2   1 1772.62   61.59
   5  -2   1 1754.42   60.59
  -6   2  -1 1401.56   46.30
  -6   2  -1 1426.56   47.70
   6  -2   1 1430.46   51.19
   6  -2   1 1395.46   51.39
  -7   2  -1  430.46   21.60
  -7   2  -1  481.75   22.20
   7  -2   1  427.86   27.10
   7  -2   1  403.66   21.60
   7  -2   1  423.36   26.50
  -8   2  -1   19.40   10.90
  -8   2  -1   19.20   11.30
   8  -2   1    0.00   12.90
   8  -2   1    2.10   11.20
   8  -2   1    8.40   13.10
   8   1  -1   95.79   15.30
   8   1  -1  100.29   13.80
   8   1  -1  128.89   16.20
  -8  -1   1  138.19   15.10
  -8  -1   1  110.69   13.20
   7   1  -1  610.34   28.40
   7   1  -1  601.84   28.00
  -7  -1   1  549.95   26.50
  -7  -1   1  576.94   26.10
   6   1  -1 1013.00   37.80
   6   1  -1  966.80   37.00
  -6  -1   1  969.30   35.00
  -6  -1   1  954.60   35.10
   5   1  -1  930.31   35.80
   5   1  -1  959.20   34.80
  -5  -1   1  933.21   32.30
  -5  -1   1  910.81   32.30
   4   1  -1   13.10    5.90
   4   1  -1   14.70    6.60
  -4  -1   1   10.30    4.10
  -4  -1   1   14.80    4.60
   3   1  -1 1388.06   43.00
   3   1  -1 1389.26   45.20
   3   1  -1 1390.46   44.90
  -3  -1   1 1456.05   43.90
  -3  -1   1 1409.16   43.10
  -3  -1   1 1380.26   43.30
   2   1  -1 7288.27  221.18
   2   1  -1 7881.91  221.18
   2   1  -1 7775.42  220.88
   2   1  -1 7089.89  222.38
   2   1  -1 7009.00  222.28
  -2  -1   1 7298.67  222.68
  -2  -1   1 8088.59  221.08
  -2  -1   1 8322.67  221.28
  -2  -1   1 7865.71  221.28
   1   1  -1 5196.98  143.29
   1   1  -1 4402.06  143.89
   1   1  -1 5097.79  143.29
   1   1  -1 4387.86  143.79
   1   1  -1 5094.89  143.49
   1   1  -1 5039.00  143.29
  -1  -1   1 4879.31  143.39
  -1  -1   1 5113.39  143.29
  -1  -1   1 4619.74  143.99
  -1  -1   1 5266.07  143.29
  -1  -1   1 5259.27  143.39
   0   1  -1 1792.92   52.69
   0   1  -1 1794.72   52.59
   0   1  -1 1794.02   52.59
   0   1  -1 1831.92   52.89
   0   1  -1 1892.91   52.99
   0  -1   1 1780.72   52.69
   0  -1   1 1835.02   52.99
   0  -1   1 1832.72   52.89
   0  -1   1 1785.22   52.59
  -1   1  -1   51.89    2.80
  -1   1  -1   52.19    3.50
  -1   1  -1   53.09    2.70
   1  -1   1   53.79    3.30
   1  -1   1   43.20    2.60
   1  -1   1   50.19    2.90
  -2   1  -1  357.86   12.10
  -2   1  -1  353.16   13.40
  -2   1  -1  336.17   12.60
  -2   1  -1  369.46   12.90
   2  -1   1  366.66   12.00
   2  -1   1  378.36   13.90
   2  -1   1  366.46   13.00
   2  -1   1  351.56   12.70
  -3   1  -1 4069.89  113.79
  -3   1  -1 4140.29  114.59
  -3   1  -1 4022.80  115.19
  -3   1  -1 3808.72  116.69
   3  -1   1 3953.10  114.39
   3  -1   1 3356.86  116.09
   3  -1   1 3307.57  114.99
   3  -1   1 4307.67  113.89
  -4   1  -1 3513.35  102.89
  -4   1  -1 3497.05  102.09
   4  -1   1 3282.57  104.39
  -5   1  -1 1320.87   43.50
  -5   1  -1 1273.77   42.60
   5  -1   1 1346.67   47.40
   5  -1   1 1335.37   46.00
  -6   1  -1    4.00    6.60
  -6   1  -1    0.10    6.80
   6  -1   1    3.80    9.00
   6  -1   1    7.70    9.50
  -7   1  -1  220.48   16.90
  -7   1  -1  204.88   15.70
   7  -1   1  247.18   20.00
   7  -1   1  162.08   19.90
  -8   1  -1  365.56   24.20
  -8   1  -1  352.56   22.60
   8  -1   1  409.96   26.10
   8  -1   1  366.86   25.30
   8   0  -1  405.46   23.40
   8   0  -1  413.96   27.00
   8   0  -1  379.36   26.90
  -8   0   1  432.36   25.00
  -8   0   1  459.35   23.20
   7   0  -1  193.78   17.00
   7   0  -1  240.58   19.80
   7   0  -1  206.18   19.00
  -7   0   1  176.08   15.90
  -7   0   1  218.18   15.90
   6   0  -1    7.90    8.10
   6   0  -1    1.90    7.70
   6   0  -1    5.70    6.90
  -6   0   1   11.40    6.30
  -6   0   1   14.20    6.60
   5   0  -1  980.00   34.70
   5   0  -1  924.81   34.60
  -5   0   1  921.91   32.20
  -5   0   1  920.21   32.00
   4   0  -1 2287.17   72.59
   4   0  -1 2415.86   72.99
  -4   0   1 2244.88   70.19
  -4   0   1 2323.77   70.49
   3   0  -1 4219.48  125.79
   3   0  -1 4132.89  127.49
   3   0  -1 4316.27  125.69
   3   0  -1 4148.58  127.99
  -3   0   1 4223.98  127.79
  -3   0   1 4530.45  127.39
  -3   0   1 4381.36  125.89
  -3   0   1 4332.77  125.99
   2   0  -1 1828.12   63.99
   2   0  -1 2143.89   62.69
   2   0  -1 2148.69   62.59
   2   0  -1 2078.89   63.69
   2   0  -1 2187.58   62.69
  -2   0   1 2216.18   63.59
  -2   0   1 2150.38   63.99
  -2   0   1 2186.98   62.69
  -2   0   1 2114.19   62.69
   1   0  -1  278.67    9.60
   1   0  -1  287.07   10.10
   1   0  -1  294.77    9.70
  -1   0   1  301.17    9.60
  -1   0   1  286.77    9.60
  -1   0   1  281.67    9.70
  -1   0   1  292.87   10.10
  -1   0  -1 5795.52  193.18
  -1   0  -1 7088.89  191.38
  -1   0  -1 5895.81  191.48
   1   0   1 6301.87  191.48
   1   0   1 7064.39  191.38
   1   0   1 6750.42  191.38
   1   0   1 7403.16  191.48
  -2   0  -1 9696.63  273.77
  -2   0  -1 9979.50  270.57
  -2   0  -1 9911.51  270.67
  -2   0  -1 9082.69  271.17
   2   0   1 8468.55  271.27
   2   0   1 7972.90  272.77
   2   0   1 9193.08  271.17
   2   0   1 9777.02  270.57
   2   0   1 9999.00  270.57
  -3   0  -1 1167.98   38.60
  -3   0  -1 1348.57   42.90
  -3   0  -1 1290.67   40.30
  -3   0  -1 1197.08   38.50
   3   0   1 1278.77   42.50
   3   0   1 1209.58   38.70
   3   0   1 1258.87   40.40
   3   0   1 1188.68   38.50
   3   0   1 1247.68   39.90
  -4   0  -1  391.36   16.10
  -4   0  -1  409.76   16.40
   4   0   1  408.76   18.60
   4   0   1  465.15   20.90
  -5   0  -1  761.02   28.60
  -5   0  -1  787.42   28.50
   5   0   1  807.92   30.70
   5   0   1  871.21   32.70
  -6   0  -1  441.26   21.00
  -6   0  -1  423.16   20.20
   6   0   1  475.25   24.20
   6   0   1  488.55   23.80
  -7   0  -1  479.25   23.70
  -7   0  -1  501.05   25.00
   7   0   1  534.95   26.80
   7   0   1  543.55   27.00
  -8   0  -1  324.37   21.40
  -8   0  -1  340.67   23.30
   8   0   1  306.97   23.70
   8   0   1  281.77   22.70
   8  -1  -1    0.90   13.20
   8  -1  -1   13.50   13.00
   8  -1  -1   -0.10   10.70
  -8   1   1   -4.20   10.10
  -8   1   1   12.10   10.40
   7  -1  -1  404.16   21.80
   7  -1  -1  438.36   25.00
   7  -1  -1  416.76   24.90
  -7   1   1  429.56   21.20
  -7   1   1  429.66   21.30
   6  -1  -1 1338.37   47.20
   6  -1  -1 1225.48   43.00
   6  -1  -1 1340.97   46.10
  -6   1   1 1240.68   43.60
  -6   1   1 1296.67   43.10
   5  -1  -1 1783.32   59.49
   5  -1  -1 1853.81   60.29
   5  -1  -1 1845.92   57.19
  -5   1   1 1811.92   57.19
  -5   1   1 1834.82   57.69
   4  -1  -1  681.43   23.40
   4  -1  -1  690.93   25.80
   4  -1  -1  698.23   25.40
  -4   1   1  695.73   24.10
  -4   1   1  676.53   23.30
  -4   1   1  681.23   26.70
   3  -1  -1    7.90    3.20
   3  -1  -1    5.40    3.20
   3  -1  -1    4.70    3.40
   3  -1  -1    0.20    2.50
   3  -1  -1    4.20    2.70
  -3   1   1    1.50    3.40
  -3   1   1   10.60    3.20
  -3   1   1    4.70    2.60
  -3   1   1   10.00    4.50
   2  -1  -1 4159.48  119.19
   2  -1  -1 3926.31  118.69
   2  -1  -1 4204.48  118.89
   2  -1  -1 3888.71  119.39
   2  -1  -1 4239.28  118.89
  -2   1   1 4099.99  118.79
  -2   1   1 4068.69  119.49
  -2   1   1 4096.89  118.99
  -2   1   1 4042.70  119.09
   1  -1  -1 6102.79  181.78
   1  -1  -1 6186.88  181.58
   1  -1  -1 6168.18  181.58
   1  -1  -1 6100.39  181.18
  -1   1   1 6389.86  181.58
  -1   1   1 6640.84  181.98
  -1   1   1 6406.86  181.28
  -1   1   1 6256.27  181.58
   0  -1  -1 5189.38  150.18
   0  -1  -1 4873.11  150.18
   0  -1  -1 5135.99  150.08
   0   1   1 5345.17  150.28
   0   1   1 5344.57  150.18
   0   1   1 5158.68  150.08
   0   1   1 5248.48  150.18
  -1  -1  -1  710.93   22.60
  -1  -1  -1  774.42   23.10
  -1  -1  -1  700.43   22.40
  -1  -1  -1  737.93   22.20
   1   1   1  730.93   22.10
   1   1   1  754.22   22.50
   1   1   1  718.83   23.00
   1   1   1  705.63   22.50
  -2  -1  -1  427.56   15.50
  -2  -1  -1  423.16   15.10
  -2  -1  -1  449.06   16.70
  -2  -1  -1  428.86   14.70
   2   1   1  451.85   14.80
   2   1   1  442.06   15.10
   2   1   1  428.06   15.40
   2   1   1  425.46   15.40
   2   1   1  447.96   16.80
  -3  -1  -1 1094.19   35.50
  -3  -1  -1 1089.49   34.30
  -3  -1  -1 1080.99   33.90
   3   1   1  975.00   36.90
   3   1   1 1071.29   35.20
   3   1   1 1107.39   33.90
  -4  -1  -1 3004.00   90.69
  -4  -1  -1 3084.89   90.49
   4   1   1 2943.91   94.49
   4   1   1 2979.80   92.19
  -5  -1  -1 2807.42   85.29
  -5  -1  -1 2804.82   85.49
   5   1   1 2793.22   89.39
   5   1   1 2732.53   87.19
  -6  -1  -1  338.47   17.50
  -6  -1  -1  286.77   17.90
   6   1   1  283.37   19.70
   6   1   1  336.07   21.00
  -7  -1  -1    5.40    9.80
  -7  -1  -1   24.50    9.00
   7   1   1   19.50   10.50
   7   1   1   21.10   10.40
  -8  -1  -1  241.88   19.70
  -8  -1  -1  209.98   21.10
   8   1   1  165.48   20.70
   8   1   1  196.88   21.50
   8  -2  -1  532.65   32.50
   8  -2  -1  520.85   30.60
   8  -2  -1  532.25   28.30
  -8   2   1  506.05   27.40
  -8   2   1  598.64   27.40
   7  -2  -1  540.15   29.60
   7  -2  -1  521.15   27.50
   7  -2  -1  543.15   25.60
  -7   2   1  544.65   24.60
  -7   2   1  576.44   25.00
   6  -2  -1  171.28   15.20
   6  -2  -1  186.68   13.40
   6  -2  -1  204.78   17.70
  -6   2   1  169.08   12.80
  -6   2   1  172.38   13.70
   5  -2  -1   78.59    7.90
   5  -2  -1   80.79   10.20
   5  -2  -1   94.79   10.10
  -5   2   1   88.29    9.20
  -5   2   1   80.39    9.50
   4  -2  -1 1035.50   34.30
   4  -2  -1 1008.50   32.60
   4  -2  -1 1000.40   32.00
  -4   2   1  965.40   31.90
  -4   2   1  972.80   32.70
   3  -2  -1 5043.30  139.89
   3  -2  -1 4975.50  139.99
   3  -2  -1 4719.23  139.99
   3  -2  -1 4436.26  140.39
   3  -2  -1 4546.15  140.89
  -3   2   1 4942.61  140.49
  -3   2   1 4854.51  140.59
   2  -2  -1 5305.47  157.78
   2  -2  -1 5400.76  157.78
   2  -2  -1 5296.87  158.58
   2  -2  -1 5382.76  157.78
   2  -2  -1 5356.46  158.18
  -2   2   1 5648.83  157.98
  -2   2   1 5390.76  158.08
  -2   2   1 5619.54  158.68
  -2   2   1 5527.45  157.78
   1  -2  -1 1572.44   47.30
   1  -2  -1 1570.54   46.60
   1  -2  -1 1554.94   46.80
   1  -2  -1 1621.74   46.80
  -1   2   1 1572.64   47.30
  -1   2   1 1623.24   46.80
  -1   2   1 1561.04   46.80
  -1   2   1 1588.24   46.50
   0  -2  -1  767.12   24.10
   0  -2  -1  768.22   23.80
   0  -2  -1  777.42   23.90
   0   2   1  754.32   24.00
   0   2   1  768.62   23.90
   0   2   1  794.72   23.90
   0   2   1  764.42   23.70
  -1  -2  -1 2128.89   62.29
  -1  -2  -1 2139.29   63.49
  -1  -2  -1 2113.89   63.39
  -1  -2  -1 2127.59   63.29
   1   2   1 2087.59   63.29
   1   2   1 2146.49   63.29
   1   2   1 2162.08   63.59
   1   2   1 2169.18   63.49
   1   2   1 2134.59   62.19
  -2  -2  -1 3704.13  111.89
  -2  -2  -1 3709.03  111.39
  -2  -2  -1 3753.42  111.49
  -2  -2  -1 3879.21  110.49
   2   2   1 3869.71  111.49
   2   2   1 3436.46  111.39
   2   2   1 3860.21  111.49
   2   2   1 3943.81  110.39
   2   2   1 3833.32  112.09
  -3  -2  -1 3345.87   99.19
  -3  -2  -1 3340.27   97.49
  -3  -2  -1 3181.78   98.29
   3   2   1 3380.16   97.49
   3   2   1 3289.57   99.09
   3   2   1 3211.08   99.89
  -4  -2  -1  962.60   30.90
  -4  -2  -1  951.10   33.40
  -4  -2  -1  924.31   31.80
   4   2   1  894.11   33.00
   4   2   1  900.81   35.30
  -5  -2  -1   28.20    6.60
  -5  -2  -1   17.80    6.20
   5   2   1   19.70   10.10
   5   2   1   20.10    8.30
  -6  -2  -1  450.35   21.60
  -6  -2  -1  407.76   20.90
   6   2   1  415.26   23.80
   6   2   1  430.86   26.10
  -7  -2  -1  504.05   25.90
  -7  -2  -1  542.15   25.60
   7   2   1  534.25   29.60
   7   2   1  495.85   27.10
  -8  -2  -1  314.87   22.70
  -8  -2  -1  294.17   25.60
   8   2   1  276.87   23.90
   8   2   1  298.77   24.60
   8  -3  -1  102.59   16.80
   8  -3  -1   70.79   16.70
   8  -3  -1   83.79   14.00
  -8   3   1   71.89   12.00
   7  -3  -1   41.50    9.90
   7  -3  -1   39.50   11.60
   7  -3  -1   53.39   12.90
  -7   3   1   44.80    9.70
   6  -3  -1  689.93   27.30
   6  -3  -1  665.53   25.60
   6  -3  -1  689.63   30.10
  -6   3   1  645.54   26.40
   5  -3  -1 2119.69   66.89
   5  -3  -1 2218.78   69.29
   5  -3  -1 2157.68   66.09
  -5   3   1 2139.69   67.39
   4  -3  -1 1912.81   58.89
   4  -3  -1 1923.51   60.39
   4  -3  -1 1937.41   58.29
  -4   3   1 1924.71   59.39
   3  -3  -1  988.70   31.80
   3  -3  -1  991.00   33.30
   3  -3  -1 1075.99   32.00
   3  -3  -1 1012.50   32.30
  -3   3   1 1055.59   32.60
  -3   3   1 1022.70   32.60
  -3   3   1 1059.99   32.00
   2  -3  -1  190.48    8.90
   2  -3  -1  189.58    7.70
   2  -3  -1  189.78    8.20
   2  -3  -1  197.58    8.40
  -2   3   1  198.28    8.00
  -2   3   1  204.68    7.80
  -2   3   1  200.58    8.20
   1  -3  -1 2508.25   76.09
   1  -3  -1 2649.14   77.09
   1  -3  -1 2571.24   77.39
   1  -3  -1 2617.44   76.59
  -1   3   1 2609.04   75.99
  -1   3   1 2685.63   76.49
  -1   3   1 2644.34   76.99
  -1   3   1 2599.64   77.39
   0  -3  -1 8012.00  239.38
   0  -3  -1 8191.58  239.68
   0  -3  -1 7265.97  239.68
   0   3   1 8451.75  239.88
   0   3   1 8954.00  239.78
   0   3   1 8439.86  239.78
   0   3   1 8530.15  239.28
  -1  -3  -1 4218.18  124.49
  -1  -3  -1 4325.47  124.69
  -1  -3  -1 3923.41  124.19
   1   3   1 4257.87  124.39
   1   3   1 4405.16  124.29
   1   3   1 4277.47  124.49
   1   3   1 4253.47  124.69
  -2  -3  -1  429.16   13.90
  -2  -3  -1  400.36   15.60
  -2  -3  -1  407.86   15.70
   2   3   1  414.86   16.10
   2   3   1  423.46   14.00
  -3  -3  -1  557.74   20.40
  -3  -3  -1  463.95   18.30
  -3  -3  -1  563.34   20.90
   3   3   1  556.74   18.90
   3   3   1  565.84   21.50
  -4  -3  -1  627.24   24.40
  -4  -3  -1  642.44   25.80
  -4  -3  -1  649.93   22.90
   4   3   1  664.13   27.00
   4   3   1  638.04   25.80
  -5  -3  -1  961.10   34.80
  -5  -3  -1  985.40   36.90
  -5  -3  -1  961.40   33.50
   5   3   1  959.00   40.10
   5   3   1  941.11   36.80
  -6  -3  -1  667.63   26.90
  -6  -3  -1  630.74   26.50
   6   3   1  572.14   32.70
   6   3   1  593.54   29.90
  -7  -3  -1  220.88   21.00
  -7  -3  -1  213.28   18.60
   7   3   1  253.07   22.10
   7   3   1  208.38   24.40
   8  -4  -1  302.77   30.70
   8  -4  -1  244.88   22.80
   8  -4  -1  322.97   25.80
  -8   4   1  312.67   21.20
   7  -4  -1  536.35   24.50
   7  -4  -1  541.35   26.10
   7  -4  -1  477.55   29.90
  -7   4   1  533.95   24.80
   6  -4  -1  820.92   29.40
   6  -4  -1  764.72   30.30
   6  -4  -1  840.72   34.30
  -6   4   1  828.52   30.70
   5  -4  -1  341.57   15.00
   5  -4  -1  347.07   18.40
   5  -4  -1  339.47   15.80
  -5   4   1  351.16   16.40
   4  -4  -1   98.69    7.30
   4  -4  -1   92.29    9.60
   4  -4  -1   91.39    7.80
  -4   4   1   85.79    8.10
   3  -4  -1 2972.40   86.49
   3  -4  -1 2956.90   86.59
   3  -4  -1 2962.30   87.49
   3  -4  -1 2855.61   88.39
  -3   4   1 2939.41   86.49
  -3   4   1 2901.51   87.09
   2  -4  -1 4279.97  128.99
   2  -4  -1 4441.16  128.29
   2  -4  -1 4327.17  128.59
   2  -4  -1 4371.16  129.79
  -2   4   1 4389.16  128.19
  -2   4   1 4556.14  128.19
   1  -4  -1 2885.61   82.79
   1  -4  -1 2866.41   83.59
   1  -4  -1 2736.23   83.79
   1  -4  -1 2772.02   81.79
  -1   4   1 2833.82   81.59
  -1   4   1 2637.04   83.29
  -1   4   1 2929.81   82.59
   0  -4  -1  499.85   17.30
   0  -4  -1  474.65   17.50
   0  -4  -1  501.55   16.90
   0   4   1  490.75   17.40
   0   4   1  487.65   16.60
  -1  -4  -1   65.29    6.40
  -1  -4  -1   71.19    6.20
  -1  -4  -1   65.79    6.40
   1   4   1   66.59    6.50
  -2  -4  -1 1797.52   57.39
  -2  -4  -1 1892.51   54.79
  -2  -4  -1 1831.92   57.69
   2   4   1 1862.51   57.99
   2   4   1 1905.51   54.89
  -3  -4  -1 2751.12   84.19
  -3  -4  -1 2762.82   83.89
  -3  -4  -1 2737.23   81.29
   3   4   1 2708.93   84.59
   3   4   1 2748.02   81.39
  -4  -4  -1 1498.05   47.70
  -4  -4  -1 1563.94   51.19
  -4  -4  -1 1465.15   49.80
   4   4   1 1568.64   51.89
   4   4   1 1495.65   51.09
  -5  -4  -1  200.38   13.80
  -5  -4  -1  220.18   17.40
  -5  -4  -1  215.58   15.80
   5   4   1  200.88   19.90
   5   4   1  194.28   18.00
  -6  -4  -1   51.89   10.00
  -6  -4  -1   55.19   10.50
   6   4   1   57.89   14.20
   6   4   1   61.69   12.80
  -7  -4  -1  222.68   21.60
  -7  -4  -1  251.97   22.80
   7   4   1  270.07   28.80
   7   4   1  315.17   25.80
   7  -5  -1   26.60   13.80
   7  -5  -1   24.60   11.50
  -7   5   1   24.90    9.70
   6  -5  -1  114.09   11.40
   6  -5  -1  114.09   14.10
   6  -5  -1  112.39   12.40
  -6   5   1  100.09   10.90
   5  -5  -1 1154.28   41.60
   5  -5  -1 1137.59   39.50
   5  -5  -1 1235.68   38.50
  -5   5   1 1211.68   40.00
   4  -5  -1 2181.88   65.99
   4  -5  -1 2102.09   64.39
   4  -5  -1 2104.19   67.09
  -4   5   1 2152.28   65.59
   3  -5  -1 1522.15   48.50
   3  -5  -1 1556.34   49.70
   3  -5  -1 1564.34   47.20
   3  -5  -1 1566.94   47.40
  -3   5   1 1574.64   47.30
  -3   5   1 1540.75   47.60
   2  -5  -1   44.10    4.40
   2  -5  -1   54.89    5.90
   2  -5  -1   47.40    5.80
   2  -5  -1   50.89    6.10
  -2   5   1   49.20    5.70
  -2   5   1   39.80    4.40
   1  -5  -1   55.19    5.60
   1  -5  -1   44.30    5.80
   1  -5  -1   42.00    5.00
  -1   5   1   40.60    4.50
   0  -5  -1 1366.56   43.20
   0  -5  -1 1334.97   43.30
   0  -5  -1 1355.76   42.30
   0   5   1 1392.16   43.30
  -1  -5  -1 3728.93  111.99
  -1  -5  -1 3705.73  111.39
  -1  -5  -1 3796.32  112.09
   1   5   1 3736.43  111.99
  -2  -5  -1 3404.86  102.39
  -2  -5  -1 3389.26  101.99
   2   5   1 3349.17  102.39
  -3  -5  -1  108.89    6.70
  -3  -5  -1  112.99   11.10
  -3  -5  -1  128.69   11.40
   3   5   1  104.79   11.30
   3   5   1  107.99   11.60
  -4  -5  -1  260.27   13.40
  -4  -5  -1  243.78   16.70
  -4  -5  -1  263.17   17.30
   4   5   1  280.67   17.80
   4   5   1  277.37   17.90
  -5  -5  -1  578.54   26.60
  -5  -5  -1  570.74   24.10
  -5  -5  -1  577.44   28.30
   5   5   1  609.34   29.70
   5   5   1  615.74   29.40
  -6  -5  -1  337.67   22.40
  -6  -5  -1  383.26   24.90
   6   5   1  358.16   28.40
   6   5   1  319.07   25.70
   7  -6  -1  223.98   21.00
   7  -6  -1  245.88   25.70
  -7   6   1  219.68   20.10
   6  -6  -1 1006.10   40.10
   6  -6  -1 1004.70   37.40
  -6   6   1 1014.10   37.30
   5  -6  -1 1224.98   43.20
   5  -6  -1 1203.58   39.20
   5  -6  -1 1207.68   41.10
  -5   6   1 1188.48   40.50
   4  -6  -1  169.38   10.50
   4  -6  -1  147.99   11.60
   4  -6  -1  153.48   12.80
  -4   6   1  171.48   11.20
   3  -6  -1  823.12   29.80
   3  -6  -1  834.62   26.90
   3  -6  -1  810.22   28.70
  -3   6   1  828.52   26.80
   2  -6  -1 2466.65   75.29
   2  -6  -1 2486.65   73.79
   2  -6  -1 2482.15   76.09
   2  -6  -1 2490.45   72.79
  -2   6   1 2329.37   73.39
  -2   6   1 2531.15   72.49
   1  -6  -1 2306.87   70.29
   1  -6  -1 2283.57   68.99
   1  -6  -1 2275.07   70.79
   0  -6  -1 1103.29   35.80
   0  -6  -1 1097.09   34.90
   0  -6  -1 1013.20   35.70
   0   6   1 1035.70   35.60
  -1  -6  -1  164.18   11.30
  -1  -6  -1  162.78   11.30
  -1  -6  -1  176.88   11.50
   1   6   1  144.59   11.30
  -2  -6  -1   95.69   11.00
  -2  -6  -1   89.49   11.10
   2   6   1  121.09   11.40
  -3  -6  -1  848.52   31.40
  -3  -6  -1  799.62   31.10
   3   6   1  802.92   31.60
  -4  -6  -1 1206.18   43.40
  -4  -6  -1 1224.38   44.40
   4   6   1 1199.38   44.30
  -5  -6  -1  588.44   29.40
  -5  -6  -1  593.24   28.00
   5   6   1  557.74   30.50
   5   6   1  637.24   30.80
  -6  -6  -1   11.10   11.80
  -6  -6  -1   33.00   14.80
   6   6   1   18.60   15.10
   6   6   1   16.00   17.30
   6  -7  -1   27.30   11.80
   6  -7  -1    3.30   10.80
  -6   7   1   22.80   10.10
   5  -7  -1  254.27   17.70
   5  -7  -1  270.07   18.50
  -5   7   1  281.97   16.30
   4  -7  -1  788.62   30.90
   4  -7  -1  768.52   29.60
  -4   7   1  804.72   27.70
   3  -7  -1 1626.54   52.89
   3  -7  -1 1586.04   50.59
   3  -7  -1 1665.83   54.19
  -3   7   1 1679.53   49.90
   2  -7  -1 1358.06   42.40
   2  -7  -1 1205.48   44.40
   2  -7  -1 1449.35   44.50
   1  -7  -1  298.97   15.60
   1  -7  -1  279.27   14.20
   1  -7  -1  270.27   14.60
   0  -7  -1  695.13   26.50
   0  -7  -1  719.73   25.90
   0  -7  -1  689.23   26.40
   0   7   1  653.93   26.40
  -1  -7  -1 1888.81   61.89
  -1  -7  -1 1961.30   61.09
  -1  -7  -1 1958.40   62.19
   1   7   1 1901.81   62.19
  -2  -7  -1 1491.25   49.70
  -2  -7  -1 1478.35   48.90
   2   7   1 1411.16   49.80
  -3  -7  -1  329.77   18.80
  -3  -7  -1  289.77   20.10
   3   7   1  304.27   19.00
  -4  -7  -1   48.50   12.60
  -4  -7  -1   57.79   11.40
   4   7   1   32.80   11.50
  -5  -7  -1   27.10   12.90
  -5  -7  -1   37.70   13.40
   5   7   1   34.00   14.20
   5   7   1   25.90   13.90
   5  -8  -1  667.83   30.60
   5  -8  -1  617.94   28.40
   4  -8  -1  236.68   17.80
   4  -8  -1  267.57   18.80
   3  -8  -1   48.10    8.90
   3  -8  -1   29.10    8.60
   2  -8  -1  100.79   12.70
   2  -8  -1   89.39    9.80
   1  -8  -1 1227.38   41.00
   1  -8  -1 1255.27   42.20
   1  -8  -1 1184.08   42.50
  -1   8   1 1199.68   42.30
   0  -8  -1 2173.18   69.49
   0  -8  -1 2126.79   67.79
   0  -8  -1 2197.98   69.69
   0   8   1 2162.18   69.69
  -1  -8  -1  851.81   32.40
  -1  -8  -1  876.81   33.20
  -1  -8  -1  860.21   32.90
   1   8   1  832.52   33.50
  -2  -8  -1    3.90    8.30
  -2  -8  -1    7.30    9.50
   2   8   1    9.60    8.30
  -3  -8  -1  251.77   21.50
  -3  -8  -1  256.07   19.30
   3   8   1  219.88   19.60
  -4  -8  -1  479.05   28.30
  -4  -8  -1  420.76   27.40
   4   8   1  437.46   27.70
   4  -9  -1  346.17   22.00
   4  -9  -1  306.37   22.90
   3  -9  -1 1014.30   39.60
   3  -9  -1 1030.90   38.50
   2  -9  -1  907.91   35.70
   2  -9  -1  900.11   34.50
   1  -9  -1  442.96   22.00
   1  -9  -1  410.76   22.50
  -1   9   1  427.56   22.40
   0  -9  -1    0.90    8.20
   0  -9  -1   -3.50    8.30
   0   9   1    3.50    8.90
  -1  -9  -1  169.98   17.70
   1   9   1  157.88   17.50
  -2  -9  -1  532.65   28.60
  -2  -9  -1  535.45   27.80
   2   9   1  564.54   28.50
   1  10  -2  649.74   30.70
  -1 -10   2  677.13   31.60
  -1 -10   2  653.03   30.70
   0  10  -2  848.62   35.50
   0 -10   2  853.41   35.20
   0 -10   2  850.41   34.90
   1 -10   2  208.98   17.30
   1 -10   2  212.28   19.90
   2 -10   2  208.68   17.90
   2 -10   2  238.18   20.50
   3 -10   2  904.31   36.50
   3 -10   2  915.21   38.00
   3   9  -2  626.84   30.00
  -3  -9   2  653.63   32.00
   2   9  -2  516.75   25.00
  -2  -9   2  516.25   25.80
  -2  -9   2  502.15   26.20
   1   9  -2   43.20    9.70
  -1  -9   2   42.60   10.40
  -1  -9   2   25.20    9.00
   0  -9   2  122.69   13.00
   0  -9   2  125.79   15.40
   1  -9   2 1004.20   37.20
   1  -9   2 1032.80   38.00
   2  -9   2 1320.47   46.30
   2  -9   2 1317.27   46.30
   3  -9   2  787.42   32.10
   3  -9   2  828.52   32.90
   4  -9   2   34.90    9.70
   4  -9   2   53.49   11.90
   5  -9   2  106.29   15.40
   5  -9   2   92.29   12.70
   4   8  -2  400.56   25.10
   4   8  -2  411.46   23.30
  -4  -8   2  392.36   24.20
  -4  -8   2  385.46   26.30
   3   8  -2    4.70    7.70
  -3  -8   2    3.60    8.70
  -3  -8   2    3.70    9.00
   2   8  -2  400.56   20.70
  -2  -8   2  429.56   21.00
  -2  -8   2  399.56   19.10
  -2  -8   2  414.56   22.00
   1   8  -2 1258.57   43.40
  -1  -8   2 1271.37   43.40
  -1  -8   2 1236.28   43.50
  -1  -8   2 1228.18   40.50
   0  -8   2 1486.45   49.60
   0  -8   2 1478.95   49.50
   1  -8   2  708.13   27.90
   1  -8   2  731.13   28.10
  -2   8  -2   49.80    6.60
   2  -8   2   37.10    8.00
   2  -8   2   35.10    7.80
  -3   8  -2  162.08   12.00
   3  -8   2  148.09   13.60
   3  -8   2  176.18   14.30
  -4   8  -2  804.62   29.70
   4  -8   2  785.62   31.70
   4  -8   2  770.32   31.30
  -5   8  -2 1004.80   37.90
   5  -8   2 1013.70   39.80
   5  -8   2 1036.20   39.00
  -6   8  -2  474.75   26.50
   6  -8   2  431.86   26.20
   6  -8   2  467.65   28.90
   5   7  -2   -0.30   10.70
   5   7  -2    1.20   10.40
  -5  -7   2    1.90   12.90
  -5  -7   2   -8.60   11.10
   4   7  -2  135.79   15.00
   4   7  -2  139.09   17.80
  -4  -7   2  141.49   14.00
  -4  -7   2  157.98   18.60
   3   7  -2  884.21   33.40
  -3  -7   2  879.71   32.40
  -3  -7   2  886.31   34.70
   2   7  -2 2377.66   68.69
   2   7  -2 2171.98   72.79
  -2  -7   2 2191.38   72.79
  -2  -7   2 2426.76   71.59
  -2  -7   2 2405.16   73.69
   1   7  -2 1229.48   41.40
   1   7  -2 1234.28   37.10
  -1  -7   2 1183.68   41.20
  -1  -7   2 1224.28   41.40
  -1  -7   2 1241.48   39.10
   0   7  -2   -2.10    3.50
   0  -7   2    3.80    5.10
   0  -7   2    6.20    3.40
   0  -7   2   10.90    5.70
  -1   7  -2 1186.68   37.80
  -1   7  -2 1297.67   40.40
   1  -7   2 1211.08   40.40
   1  -7   2 1195.38   40.80
  -2   7  -2 1242.08   40.00
   2  -7   2 1291.77   41.90
   2  -7   2 1281.67   42.70
  -3   7  -2 1484.15   47.10
   3  -7   2 1474.55   48.10
   3  -7   2 1472.25   48.90
  -4   7  -2  883.01   30.90
   4  -7   2  851.71   31.60
   4  -7   2  832.32   32.10
  -5   7  -2   90.39   11.00
   5  -7   2   97.49   12.10
   5  -7   2   72.69   10.10
  -6   7  -2  248.08   20.40
   6  -7   2  295.67   20.70
   6  -7   2  296.97   23.70
   6   6  -2  124.99   16.70
   6   6  -2  119.59   16.80
  -6  -6   2  131.69   14.80
   5   6  -2  830.92   35.70
   5   6  -2  826.02   33.90
  -5  -6   2  826.02   36.50
  -5  -6   2  805.52   30.60
  -5  -6   2  805.92   33.50
   4   6  -2 1115.99   41.40
   4   6  -2 1138.59   39.80
  -4  -6   2 1065.39   39.30
  -4  -6   2 1126.49   42.10
  -4  -6   2 1071.19   36.40
   3   6  -2  523.35   21.40
   3   6  -2  483.25   17.80
  -3  -6   2  493.45   22.80
  -3  -6   2  489.15   20.60
  -3  -6   2  475.35   18.00
   2   6  -2   15.00    3.70
   2   6  -2   14.10    4.20
   2   6  -2    4.80    5.30
  -2  -6   2    9.60    5.10
  -2  -6   2   16.60    5.70
  -2  -6   2   12.60    5.60
   1   6  -2  498.35   17.00
   1   6  -2  522.15   17.00
  -1  -6   2  552.44   18.80
  -1  -6   2  512.45   20.20
  -1  -6   2  508.85   20.10
   0   6  -2 2776.52   81.49
   0   6  -2 2816.42   81.39
   0   6  -2 2704.13   81.59
   0  -6   2 2785.72   84.39
   0  -6   2 2869.31   81.69
   0  -6   2 2698.63   83.79
  -1   6  -2 3889.11  115.49
   1  -6   2 4036.10  115.09
   1  -6   2 3911.31  116.99
   1  -6   2 3901.51  117.69
  -2   6  -2 1315.57   40.50
   2  -6   2 1257.57   42.00
   2  -6   2 1285.37   41.20
  -3   6  -2   10.20    5.00
   3  -6   2   10.90    5.10
   3  -6   2   -3.60    5.00
  -4   6  -2  788.52   28.10
   4  -6   2  749.82   28.70
   4  -6   2  757.22   28.00
  -5   6  -2 1056.89   37.70
   5  -6   2 1051.49   38.30
   5  -6   2 1082.99   38.60
  -6   6  -2  745.53   30.80
   6  -6   2  771.82   32.80
   6  -6   2  802.02   34.10
  -7   6  -2  204.58   19.20
   7  -6   2  246.68   23.10
   7  -6   2  225.38   28.60
   7   5  -2  359.76   33.10
   7   5  -2  485.15   30.40
  -7  -5   2  419.26   26.50
  -7  -5   2  428.96   27.20
   6   5  -2  752.52   33.50
   6   5  -2  643.64   33.00
  -6  -5   2  670.53   30.20
  -6  -5   2  698.93   29.20
   5   5  -2  269.67   20.10
   5   5  -2  287.37   18.40
  -5  -5   2  263.07   20.60
  -5  -5   2  254.17   18.30
  -5  -5   2  253.47   15.10
   4   5  -2  158.58   12.70
   4   5  -2  160.18   14.90
  -4  -5   2  133.49   13.10
  -4  -5   2  167.38   16.00
  -4  -5   2  152.98   10.90
   3   5  -2  728.83   26.70
   3   5  -2  719.53   27.90
  -3  -5   2  714.93   27.90
  -3  -5   2  728.33   24.40
  -3  -5   2  760.32   26.40
   2   5  -2 1917.31   55.49
   2   5  -2 1844.12   57.69
   2   5  -2 1834.02   55.49
  -2  -5   2 1829.42   57.69
  -2  -5   2 1872.51   55.39
  -2  -5   2 1766.22   57.89
  -2  -5   2 1890.31   56.89
   1   5  -2 2556.64   70.79
   1   5  -2 2418.36   70.69
   1   5  -2 2371.86   71.69
  -1  -5   2 2225.38   71.29
  -1  -5   2 2369.56   72.79
  -1  -5   2 2448.35   72.99
   0   5  -2 2379.86   71.29
   0   5  -2 2503.95   71.19
   0   5  -2 2415.76   71.09
   0  -5   2 2301.27   73.09
   0  -5   2 2496.75   71.19
   0  -5   2 2343.27   72.69
   0  -5   2 2494.75   71.09
  -1   5  -2    1.60    2.80
   1  -5   2   -0.60    2.50
   1  -5   2    1.50    3.40
   1  -5   2    2.40    2.90
  -2   5  -2 1244.58   38.50
   2  -5   2 1245.68   39.70
   2  -5   2 1217.28   38.10
   2  -5   2 1205.08   38.50
  -3   5  -2 3018.50   91.79
   3  -5   2 3142.89   92.79
   3  -5   2 3017.80   91.59
  -4   5  -2 1751.52   56.59
   4  -5   2 1827.32   56.59
   4  -5   2 1813.52   57.59
  -5   5  -2  702.63   26.90
   5  -5   2  729.23   28.20
   5  -5   2  707.43   27.60
   5  -5   2  612.94   22.70
  -6   5  -2   10.70    7.90
   6  -5   2   -0.90   10.80
   6  -5   2   16.80   10.00
  -7   5  -2  231.08   17.90
   7  -5   2  205.48   23.40
   7  -5   2  196.78   21.40
   7   4  -2   79.79   17.80
   7   4  -2  101.39   14.60
  -7  -4   2   66.49   12.50
  -7  -4   2   95.69   14.30
   6   4  -2   15.40   12.20
   6   4  -2   24.40   10.60
  -6  -4   2   22.70    8.60
  -6  -4   2    3.50    9.30
   5   4  -2  439.66   23.60
   5   4  -2  455.95   22.40
  -5  -4   2  401.26   20.60
  -5  -4   2  473.85   19.80
   4   4  -2 2164.28   70.89
   4   4  -2 2191.78   68.99
  -4  -4   2 2196.58   71.19
  -4  -4   2 2206.68   68.79
  -4  -4   2 2235.68   67.39
   3   4  -2 3106.39   94.19
   3   4  -2 3135.19   95.79
  -3  -4   2 3176.98   92.79
  -3  -4   2 3151.18   95.79
  -3  -4   2 3052.39   93.99
   2   4  -2  734.43   23.00
   2   4  -2  710.93   24.30
   2   4  -2  726.63   23.00
  -2  -4   2  740.13   23.00
  -2  -4   2  720.43   25.00
  -2  -4   2  687.23   23.80
  -2  -4   2  696.53   24.30
   1   4  -2  524.35   17.70
   1   4  -2  531.25   16.80
   1   4  -2  531.75   16.80
   1   4  -2  485.65   17.80
  -1  -4   2  522.75   18.20
  -1  -4   2  525.25   17.20
  -1  -4   2  508.35   18.10
   0   4  -2 1897.11   55.49
   0   4  -2 1870.11   56.19
   0   4  -2 1833.12   55.49
   0   4  -2 1873.41   55.29
   0  -4   2 1889.91   55.49
   0  -4   2 1804.92   56.79
   0  -4   2 1951.50   55.09
   0  -4   2 1900.11   56.39
  -1   4  -2 2960.40   87.99
  -1   4  -2 3038.00   88.09
   1  -4   2 2996.90   88.19
   1  -4   2 2937.71   88.89
   1  -4   2 3007.90   87.79
  -2   4  -2 3152.68   93.59
  -2   4  -2 3160.48   93.99
   2  -4   2 3200.78   93.69
   2  -4   2 3238.58   93.89
   2  -4   2 3111.59   94.59
  -3   4  -2 1786.02   55.59
   3  -4   2 1791.42   55.99
   3  -4   2 1820.42   54.99
  -4   4  -2   11.00    3.10
  -4   4  -2    3.70    5.20
   4  -4   2    2.70    4.60
   4  -4   2   -2.60    4.90
   4  -4   2    1.20    2.80
   4  -4   2    9.80    3.60
  -5   4  -2  787.42   27.00
  -5   4  -2  808.42   30.00
   5  -4   2  860.21   31.00
   5  -4   2  790.12   27.20
   5  -4   2  827.12   31.80
  -6   4  -2 1235.68   42.40
  -6   4  -2 1223.08   39.90
   6  -4   2 1149.48   39.90
   6  -4   2 1218.68   45.60
   6  -4   2 1214.48   45.70
  -7   4  -2  529.35   24.40
  -7   4  -2  529.85   25.20
   7  -4   2  446.76   32.90
   7  -4   2  564.94   24.40
   7  -4   2  517.15   30.10
  -8   4  -2  113.99   14.70
   8  -4   2  142.89   21.90
   8  -4   2  126.59   19.70
   7   3  -2  320.27   20.30
   7   3  -2  341.67   27.60
   7   3  -2  330.77   22.20
  -7  -3   2  286.37   20.60
  -7  -3   2  271.07   20.70
   6   3  -2  742.23   31.60
   6   3  -2  683.93   33.60
  -6  -3   2  748.53   29.20
  -6  -3   2  679.33   28.50
   5   3  -2 1090.19   39.80
   5   3  -2 1111.09   40.50
  -5  -3   2 1044.00   37.50
  -5  -3   2 1070.69   36.80
   4   3  -2  393.26   19.60
   4   3  -2  409.76   17.70
  -4  -3   2  397.06   17.20
  -4  -3   2  396.36   16.10
   3   3  -2   36.60    4.70
   3   3  -2   34.40    6.30
  -3  -3   2   25.80    6.20
  -3  -3   2   28.50    3.90
  -3  -3   2   30.30    4.90
   2   3  -2 2353.96   70.69
   2   3  -2 2396.76   70.89
   2   3  -2 2388.26   70.79
   2   3  -2 2417.46   70.09
   2   3  -2 2296.57   71.69
   2   3  -2 2204.18   71.19
  -2  -3   2 2343.07   71.79
  -2  -3   2 2457.55   70.09
  -2  -3   2 2353.36   70.69
  -2  -3   2 2427.76   70.79
   1   3  -2 6417.96  183.18
   1   3  -2 5963.10  182.78
   1   3  -2 6221.58  182.98
   1   3  -2 6524.65  182.48
   1   3  -2 6241.88  182.48
  -1  -3   2 6455.35  183.28
  -1  -3   2 6420.76  182.58
  -1  -3   2 6179.98  183.28
  -1  -3   2 6221.28  182.68
   0   3  -2 6950.80  202.08
   0   3  -2 6840.92  201.48
   0   3  -2 7098.89  202.08
   0   3  -2 7065.99  202.78
   0   3  -2 6862.31  202.08
   0  -3   2 7030.80  201.48
   0  -3   2 6835.82  202.18
   0  -3   2 6981.40  202.78
   0  -3   2 7164.78  202.08
  -1   3  -2  735.33   22.60
  -1   3  -2  678.63   22.90
  -1   3  -2  708.43   22.10
   1  -3   2  742.93   23.20
   1  -3   2  697.13   22.10
   1  -3   2  722.93   22.40
  -2   3  -2  252.57    9.20
  -2   3  -2  218.08    9.80
   2  -3   2  235.18   10.10
   2  -3   2  231.38    8.90
   2  -3   2  231.88    9.70
  -3   3  -2 2758.42   82.49
  -3   3  -2 2734.43   80.49
  -3   3  -2 2763.32   81.89
   3  -3   2 2664.83   82.89
   3  -3   2 2702.53   81.69
   3  -3   2 2844.12   80.59
  -4   3  -2 2179.88   65.69
  -4   3  -2 2101.69   67.49
   4  -3   2 2176.78   65.59
   4  -3   2 2209.28   67.69
   4  -3   2 2282.57   69.39
  -5   3  -2 1258.47   40.80
  -5   3  -2 1241.68   42.70
   5  -3   2 1345.47   46.30
   5  -3   2 1280.57   44.50
  -6   3  -2  227.78   13.40
  -6   3  -2  210.38   15.10
   6  -3   2  186.08   20.00
   6  -3   2  210.88   19.60
  -7   3  -2    7.00    8.30
  -7   3  -2    4.60    8.80
   7  -3   2    4.40    8.40
   7  -3   2   12.80   12.80
   7  -3   2   -1.90   14.00
  -8   3  -2  112.69   15.50
  -8   3  -2  129.09   14.90
   8  -3   2  155.48   21.10
   8  -3   2  111.09   17.40
   8  -3   2  178.38   19.90
   8   2  -2  402.06   27.20
   8   2  -2  363.66   28.10
   8   2  -2  412.56   25.50
  -8  -2   2  466.65   25.30
  -8  -2   2  443.66   26.70
   7   2  -2  428.06   26.20
   7   2  -2  409.16   23.40
   7   2  -2  368.16   21.70
  -7  -2   2  418.46   22.30
  -7  -2   2  403.86   21.40
   6   2  -2   50.79   11.70
   6   2  -2   41.00    8.20
   6   2  -2   39.30    9.40
  -6  -2   2   33.90    8.10
  -6  -2   2   20.90    7.60
   5   2  -2  104.39   12.00
   5   2  -2  103.49   13.10
  -5  -2   2  112.59   10.70
  -5  -2   2  131.59   10.60
   4   2  -2  752.32   27.80
   4   2  -2  774.72   29.60
  -4  -2   2  772.12   26.50
  -4  -2   2  779.12   27.00
   3   2  -2 3286.07  100.89
   3   2  -2 3327.27   98.89
   3   2  -2 3280.17   98.39
  -3  -2   2 3382.56   98.59
  -3  -2   2 3358.46   98.59
  -3  -2   2 3333.57   99.09
   2   2  -2 6288.77  180.78
   2   2  -2 6357.86  181.08
   2   2  -2 5791.62  181.88
   2   2  -2 6488.65  180.78
   2   2  -2 5784.02  182.08
   2   2  -2 6540.05  180.78
  -2  -2   2 6551.24  181.18
  -2  -2   2 6366.06  180.68
  -2  -2   2 5776.82  182.18
   1   2  -2  958.00   28.30
   1   2  -2  902.01   28.30
   1   2  -2  951.10   28.60
   1   2  -2  934.51   28.40
   1   2  -2  916.11   29.00
   1   2  -2  906.51   28.30
   1   2  -2  946.01   28.50
  -1  -2   2  938.51   29.10
  -1  -2   2  941.11   28.40
  -1  -2   2  907.41   28.30
  -1  -2   2  933.31   28.40
   0   2  -2 1283.17   36.40
   0   2  -2 1228.28   37.00
   0   2  -2 1197.18   36.80
   0   2  -2 1265.37   36.30
   0   2  -2 1228.68   36.40
   0  -2   2 1194.18   37.00
   0  -2   2 1221.88   36.40
   0  -2   2 1253.17   36.90
   0  -2   2 1207.08   36.50
  -1   2  -2 3256.57   90.29
  -1   2  -2 3028.50   89.09
  -1   2  -2 3042.70   88.89
  -1   2  -2 3122.09   89.99
   1  -2   2 3157.98   89.89
   1  -2   2 2932.01   88.79
   1  -2   2 3020.90   90.19
   1  -2   2 3020.20   89.09
  -2   2  -2 3075.99   90.79
  -2   2  -2 3225.58   92.09
  -2   2  -2 3119.19   91.59
  -2   2  -2 3117.39   90.39
   2  -2   2 3130.29   90.29
   2  -2   2 3007.00   90.69
   2  -2   2 2997.70   91.89
   2  -2   2 3112.69   91.49
  -3   2  -2 4287.07  129.29
  -3   2  -2 4296.67  128.99
  -3   2  -2 4327.47  127.99
   3  -2   2 4306.87  130.59
   3  -2   2 4524.85  129.29
   3  -2   2 4541.25  128.09
  -4   2  -2  935.41   29.30
  -4   2  -2  966.80   31.00
   4  -2   2  917.21   31.80
   4  -2   2  782.72   29.10
   4  -2   2  929.81   33.90
  -5   2  -2   62.19    6.70
  -5   2  -2   82.29    9.80
   5  -2   2   46.00   10.90
   5  -2   2   53.19    9.90
  -6   2  -2  794.22   31.10
  -6   2  -2  889.21   30.50
   6  -2   2  825.32   36.30
   6  -2   2  844.72   34.80
  -7   2  -2  638.54   28.00
  -7   2  -2  688.83   28.90
   7  -2   2  725.13   33.80
   7  -2   2  691.03   34.10
  -8   2  -2  304.87   22.40
  -8   2  -2  295.57   22.80
   8  -2   2  297.57   27.80
   8  -2   2  326.17   25.30
   8   1  -2   95.09   14.40
   8   1  -2   52.49   15.10
   8   1  -2   72.59   12.90
  -8  -1   2   88.59   13.60
  -8  -1   2   68.39   12.10
   7   1  -2   79.89   11.60
   7   1  -2   90.39   13.10
   7   1  -2   90.49   11.10
  -7  -1   2   66.49   10.10
  -7  -1   2   95.79   11.50
   6   1  -2  819.12   30.10
   6   1  -2  706.13   29.60
   6   1  -2  644.44   27.30
  -6  -1   2  660.23   27.30
  -6  -1   2  705.53   27.60
   5   1  -2 2244.78   69.79
   5   1  -2 2169.18   67.59
   5   1  -2 2097.59   69.29
  -5  -1   2 2138.09   67.49
  -5  -1   2 2170.08   67.49
   4   1  -2 1632.24   50.29
   4   1  -2 1667.83   52.39
   4   1  -2 1444.56   51.79
  -4  -1   2 1633.94   50.09
  -4  -1   2 1619.94   50.19
   3   1  -2  554.64   20.90
   3   1  -2  573.44   20.10
   3   1  -2  521.65   18.90
  -3  -1   2  525.55   19.00
  -3  -1   2  542.95   18.80
  -3  -1   2  573.14   18.60
   2   1  -2 1148.49   35.00
   2   1  -2 1114.39   36.20
   2   1  -2 1171.18   34.30
   2   1  -2 1127.89   34.70
   2   1  -2 1008.20   36.20
   2   1  -2 1136.59   34.50
   2   1  -2 1132.29   34.90
  -2  -1   2 1207.58   34.30
  -2  -1   2 1164.58   34.90
  -2  -1   2 1152.98   35.00
  -2  -1   2 1148.69   37.20
   1   1  -2 2948.70   84.19
   1   1  -2 2776.62   85.29
   1   1  -2 2993.80   84.79
   1   1  -2 2516.25   85.29
   1   1  -2 3009.50   84.79
   1   1  -2 2981.70   84.79
  -1  -1   2 2746.33   85.59
  -1  -1   2 2963.30   84.19
  -1  -1   2 2992.40   84.79
  -1  -1   2 3066.39   84.79
   0   1  -2 6038.20  178.18
   0   1  -2 5912.81  178.18
   0  -1   2 6303.87  178.48
   0  -1   2 6299.47  178.18
   0  -1   2 6259.77  178.18
  -1   1  -2 3646.04  103.19
  -1   1  -2 3401.26  102.49
  -1   1  -2 3492.65  103.49
  -1   1  -2 3641.54  102.59
   1  -1   2 3613.04  103.09
   1  -1   2 3596.84  102.59
   1  -1   2 3517.25  103.39
   1  -1   2 3354.26  102.19
  -2   1  -2 2034.30   59.09
  -2   1  -2 1990.50   58.39
  -2   1  -2 1930.91   60.29
  -2   1  -2 2007.70   59.09
   2  -1   2 1985.10   58.99
   2  -1   2 1904.71   58.79
   2  -1   2 2022.70   58.39
   2  -1   2 1844.52   59.09
   2  -1   2 1995.60   60.59
  -3   1  -2  271.47   11.00
  -3   1  -2  264.87   11.60
  -3   1  -2  307.47   13.00
   3  -1   2  272.37   10.90
   3  -1   2  292.67   12.30
   3  -1   2  268.77   13.00
   3  -1   2  238.18   14.10
  -4   1  -2 1688.83   50.19
  -4   1  -2 1656.73   50.89
   4  -1   2 1493.55   54.19
   4  -1   2 1600.74   52.29
  -5   1  -2 2188.68   69.69
  -5   1  -2 2188.68   68.79
   5  -1   2 2279.37   73.99
   5  -1   2 2276.17   71.79
  -6   1  -2  854.41   32.70
  -6   1  -2  879.11   33.50
   6  -1   2  939.91   37.80
   6  -1   2  981.30   36.30
  -7   1  -2  140.89   15.60
  -7   1  -2  175.58   15.60
   7  -1   2  168.68   17.00
   7  -1   2  181.98   19.80
  -8   1  -2   19.00   10.80
  -8   1  -2   47.10   12.10
   8  -1   2   31.90   14.20
   8  -1   2   51.69   12.90
   8   0  -2  268.47   20.60
   8   0  -2  228.68   23.80
   8   0  -2  255.77   23.30
  -8   0   2  263.97   20.00
  -8   0   2  252.77   20.60
   7   0  -2  617.44   28.60
   7   0  -2  548.65   26.10
   7   0  -2  591.94   28.40
  -7   0   2  582.44   25.70
  -7   0   2  585.64   25.90
   6   0  -2  786.12   30.40
   6   0  -2  738.53   28.40
   6   0  -2  728.43   31.10
  -6   0   2  713.63   28.30
  -6   0   2  745.03   28.20
   5   0  -2  335.77   15.70
   5   0  -2  349.47   17.60
   5   0  -2  333.77   18.40
  -5   0   2  344.77   15.70
  -5   0   2  353.76   16.00
   4   0  -2  316.87   15.80
   4   0  -2  350.26   15.90
   4   0  -2  326.57   13.80
  -4   0   2  306.67   13.90
  -4   0   2  312.07   13.80
  -4   0   2  359.16   14.80
   3   0  -2 3742.73  113.99
   3   0  -2 3886.01  112.79
   3   0  -2 3525.55  113.49
  -3   0   2 4019.10  112.69
  -3   0   2 3825.12  112.69
  -3   0   2 3941.31  112.89
   2   0  -2 6080.29  193.88
   2   0  -2 6701.43  193.48
   2   0  -2 7073.29  193.68
   2   0  -2 6710.53  193.58
  -2   0   2 6132.29  194.28
  -2   0   2 6931.41  192.78
  -2   0   2 7030.70  193.58
  -2   0   2 6649.83  193.58
   1   0  -2 3145.89   93.69
   1   0  -2 3296.37   93.69
   1   0  -2 3098.19   93.59
  -1   0   2 3281.87   93.69
  -1   0   2 3240.08   93.69
  -1   0   2 3208.78   93.79
   0   0  -2  954.10   28.40
   0   0  -2  979.80   29.00
   0   0  -2  971.30   28.90
   0   0   2  998.50   28.90
   0   0   2  880.91   28.40
   0   0   2  966.80   29.00
   0   0   2  963.70   29.00
  -1   0  -2  820.32   30.40
  -1   0  -2  949.80   27.80
  -1   0  -2  914.41   27.30
  -1   0  -2  930.81   27.70
   1   0   2  945.11   27.70
   1   0   2  929.11   27.70
   1   0   2  832.72   29.70
   1   0   2  938.41   27.20
  -2   0  -2 3902.01  112.99
  -2   0  -2 4236.08  117.29
  -2   0  -2 3877.01  112.89
  -2   0  -2 3759.12  113.39
   2   0   2 3802.82  113.39
   2   0   2 3928.01  112.89
   2   0   2 3873.41  112.89
   2   0   2 3857.61  112.79
   2   0   2 3433.86  115.59
  -3   0  -2 4719.23  136.19
  -3   0  -2 4566.04  136.19
   3   0   2 4783.82  136.79
   3   0   2 4403.66  137.19
   3   0   2 4678.23  139.89
  -4   0  -2 1376.56   45.80
  -4   0  -2 1418.86   46.10
   4   0   2 1523.25   50.19
   4   0   2 1499.65   47.70
  -5   0  -2  195.78   11.90
  -5   0  -2  167.18   12.10
   5   0   2  184.78   14.30
   5   0   2  198.98   15.90
  -6   0  -2  103.59   10.30
  -6   0  -2   79.19   10.00
   6   0   2  102.99   12.90
   6   0   2   88.49   11.70
  -7   0  -2  293.47   18.10
  -7   0  -2  255.67   19.20
   7   0   2  287.77   22.00
   7   0   2  260.47   21.10
  -8   0  -2  379.86   24.20
  -8   0  -2  338.67   23.20
   8   0   2  360.26   24.70
   8   0   2  368.16   26.40
   8  -1  -2  170.08   19.60
   8  -1  -2  179.08   21.80
   8  -1  -2  133.19   17.50
  -8   1   2  223.28   18.80
  -8   1   2  174.78   19.10
   7  -1  -2   29.00    9.80
   7  -1  -2   16.80   10.80
   7  -1  -2   17.10   10.30
  -7   1   2   30.90    8.10
  -7   1   2   22.40    8.10
   6  -1  -2   48.60    8.90
   6  -1  -2   45.80    8.50
   6  -1  -2   51.09   10.30
  -6   1   2   39.40    7.60
  -6   1   2   47.20    7.90
   5  -1  -2 1713.23   53.49
   5  -1  -2 1695.63   55.89
   5  -1  -2 1673.73   54.09
  -5   1   2 1723.03   53.39
  -5   1   2 1631.64   53.59
   4  -1  -2 4138.89  128.39
   4  -1  -2 4252.87  126.79
   4  -1  -2 4409.26  126.99
  -4   1   2 4295.27  126.89
  -4   1   2 4452.25  128.29
  -4   1   2 4168.28  126.99
   3  -1  -2 2995.60   90.49
   3  -1  -2 3013.00   89.59
   3  -1  -2 3121.59   88.89
  -3   1   2 3078.59   89.79
  -3   1   2 2898.91   90.49
   2  -1  -2  202.68    8.00
   2  -1  -2  192.88    6.70
   2  -1  -2  188.38    7.80
   2  -1  -2  184.98    7.90
   2  -1  -2  190.78    8.30
  -2   1   2  186.28    7.90
  -2   1   2  192.88    7.90
  -2   1   2  200.78    7.40
  -2   1   2  182.88    8.30
   1  -1  -2  621.84   18.50
   1  -1  -2  608.14   19.50
   1  -1  -2  606.74   19.50
   1  -1  -2  621.14   19.30
  -1   1   2  638.94   19.30
  -1   1   2  632.64   18.50
  -1   1   2  605.34   19.50
  -1   1   2  627.24   19.50
   0  -1  -2 2764.82   81.19
   0  -1  -2 2784.92   80.99
   0  -1  -2 2729.83   80.89
   0  -1  -2 2752.12   80.99
   0  -1  -2 2704.73   81.49
   0   1   2 2790.42   81.19
   0   1   2 2797.92   81.49
   0   1   2 2847.52   81.29
   0   1   2 2784.72   80.89
   0   1   2 2863.71   81.09
  -1  -1  -2 5181.88  150.18
  -1  -1  -2 5201.28  149.79
  -1  -1  -2 4657.23  150.58
  -1  -1  -2 5278.27  149.69
   1   1   2 5392.16  149.59
   1   1   2 4651.53  150.98
   1   1   2 5309.07  150.18
   1   1   2 5565.94  149.88
  -2  -1  -2 5525.05  155.88
  -2  -1  -2 4872.51  157.48
  -2  -1  -2 5367.66  155.68
  -2  -1  -2 5644.04  155.38
   2   1   2 5478.65  155.78
   2   1   2 5449.35  155.58
   2   1   2 4760.62  157.88
   2   1   2 5521.35  155.28
  -3  -1  -2  148.99    8.60
  -3  -1  -2  173.58    9.70
  -3  -1  -2  161.88    8.20
   3   1   2  131.89   12.90
   3   1   2  162.38    9.20
   3   1   2  129.69    8.40
  -4  -1  -2  362.36   15.60
  -4  -1  -2  374.86   16.30
   4   1   2  375.26   17.30
   4   1   2  384.16   20.80
  -5  -1  -2 1195.08   40.00
  -5  -1  -2 1163.88   40.10
   5   1   2 1160.38   41.70
   5   1   2 1228.78   44.50
  -6  -1  -2 1013.00   37.10
  -6  -1  -2 1007.50   37.50
   6   1   2 1113.59   41.70
   6   1   2 1043.30   39.50
  -7  -1  -2  461.45   24.10
  -7  -1  -2  468.05   24.90
   7   1   2  498.75   26.70
   7   1   2  514.15   26.40
  -8  -1  -2   34.20   11.20
  -8  -1  -2   48.10   12.90
   8   1   2    6.70   12.50
   8   1   2    6.50   12.10
   8  -2  -2  160.68   16.60
   8  -2  -2  134.69   18.40
   8  -2  -2  144.29   27.20
  -8   2   2  123.69   13.90
   7  -2  -2  772.52   31.90
   7  -2  -2  862.01   35.90
   7  -2  -2  757.72   31.90
  -7   2   2  764.12   31.20
   6  -2  -2 1168.88   39.40
   6  -2  -2 1181.58   39.40
   6  -2  -2 1183.68   42.90
  -6   2   2 1022.60   39.00
   5  -2  -2  793.92   29.90
   5  -2  -2  765.12   26.80
   5  -2  -2  737.13   27.00
  -5   2   2  773.22   27.70
   4  -2  -2    1.60    3.60
   4  -2  -2    5.20    3.20
   4  -2  -2    6.90    4.90
  -4   2   2    5.60    4.10
  -4   2   2   -6.90    5.90
   3  -2  -2  617.94   20.00
   3  -2  -2  604.04   21.70
   3  -2  -2  653.53   21.00
  -3   2   2  643.34   20.60
  -3   2   2  608.54   21.00
   2  -2  -2 2188.88   67.39
   2  -2  -2 2299.27   66.99
   2  -2  -2 2163.58   65.99
   2  -2  -2 2262.27   66.79
  -2   2   2 2252.37   67.49
  -2   2   2 2322.37   66.19
  -2   2   2 2273.97   66.79
  -2   2   2 2247.98   66.69
   1  -2  -2 4291.77  125.69
   1  -2  -2 4335.17  126.49
   1  -2  -2 4191.58  125.59
   1  -2  -2 4145.08  126.19
  -1   2   2 4431.06  126.49
  -1   2   2 4289.77  125.69
  -1   2   2 4437.16  125.69
  -1   2   2 4493.45  126.29
   0  -2  -2 6975.80  200.88
   0  -2  -2 7063.89  201.98
   0  -2  -2 6888.81  200.88
   0  -2  -2 6706.53  201.88
   0   2   2 7106.09  201.98
   0   2   2 7207.38  201.88
   0   2   2 6684.03  201.68
   0   2   2 7051.99  201.58
  -1  -2  -2  615.14   20.30
  -1  -2  -2  529.65   19.90
  -1  -2  -2  603.94   19.90
  -1  -2  -2  651.03   19.10
   1   2   2  643.24   20.60
   1   2   2  594.64   20.00
   1   2   2  621.54   18.80
   1   2   2  610.24   20.20
   1   2   2  609.94   19.90
  -2  -2  -2 1668.73   51.19
  -2  -2  -2 1724.63   50.39
  -2  -2  -2 1655.93   51.39
   2   2   2 1689.53   50.19
   2   2   2 1631.54   51.09
   2   2   2 1684.03   52.49
  -3  -2  -2 3714.33  110.79
  -3  -2  -2 3645.24  110.99
  -3  -2  -2 3767.32  109.79
   3   2   2 3743.33  109.69
   3   2   2 3709.23  113.39
   3   2   2 3689.63  110.99
  -4  -2  -2 1518.55   47.70
  -4  -2  -2 1533.45   48.90
  -4  -2  -2 1458.45   46.50
   4   2   2 1301.97   51.29
   4   2   2 1534.15   48.70
  -5  -2  -2  720.83   27.40
  -5  -2  -2  716.43   26.60
   5   2   2  648.84   32.30
   5   2   2  735.83   29.70
  -6  -2  -2   61.49   10.40
  -6  -2  -2   55.29    9.60
   6   2   2   68.39   13.20
   6   2   2   82.29   12.80
  -7  -2  -2   28.20   11.70
  -7  -2  -2   21.80    9.90
   7   2   2   65.69   13.40
   7   2   2   32.00   12.10
   8  -3  -2  336.27   29.30
   8  -3  -2  383.36   25.30
  -8   3   2  359.76   22.20
   7  -3  -2  247.68   18.90
   7  -3  -2  262.57   18.80
   7  -3  -2  254.67   22.70
  -7   3   2  254.77   17.80
   6  -3  -2   51.89   10.20
   6  -3  -2   60.69    8.40
   6  -3  -2   59.99    8.30
  -6   3   2   45.30    7.80
   5  -3  -2  534.15   20.60
   5  -3  -2  552.94   23.10
   5  -3  -2  519.25   20.00
  -5   3   2  521.95   21.10
   4  -3  -2 2338.57   69.79
   4  -3  -2 2274.87   71.29
   4  -3  -2 2298.07   69.19
  -4   3   2 2306.27   70.29
   3  -3  -2 4346.67  127.79
   3  -3  -2 4361.86  127.29
   3  -3  -2 4241.68  128.79
  -3   3   2 4331.77  127.79
  -3   3   2 4455.95  127.49
   2  -3  -2 1673.23   49.99
   2  -3  -2 1647.04   50.99
   2  -3  -2 1695.43   50.19
   2  -3  -2 1635.24   49.70
  -2   3   2 1692.43   49.80
  -2   3   2 1609.94   49.99
  -2   3   2 1675.33   49.80
   1  -3  -2   52.69    3.70
   1  -3  -2   54.19    4.30
   1  -3  -2   51.89    4.80
   1  -3  -2   57.99    5.20
  -1   3   2   53.09    4.20
  -1   3   2   56.99    3.60
  -1   3   2   52.79    4.80
   0  -3  -2 1925.41   57.39
   0  -3  -2 1961.60   57.39
   0  -3  -2 1975.80   55.69
   0  -3  -2 1934.51   57.69
   0  -3  -2 1962.20   55.69
   0   3   2 1915.91   57.39
   0   3   2 1902.21   57.19
   0   3   2 1937.91   57.19
   0   3   2 1667.63   57.19
  -1  -3  -2 3071.39   89.19
  -1  -3  -2 3007.40   90.99
  -1  -3  -2 3054.29   90.99
   1   3   2 3075.49   91.29
   1   3   2 3109.59   88.99
  -2  -3  -2 3271.87   99.19
  -2  -3  -2 3198.68   99.29
  -2  -3  -2 3395.36   97.59
   2   3   2 3449.75   97.39
   2   3   2 3311.47  100.09
  -3  -3  -2 1238.28   39.90
  -3  -3  -2 1210.98   38.00
  -3  -3  -2 1162.38   39.50
   3   3   2 1202.48   37.90
   3   3   2 1242.08   41.50
  -4  -3  -2  104.89   11.60
  -4  -3  -2  100.89   10.60
  -4  -3  -2   89.49    9.20
   4   3   2   95.69   11.60
   4   3   2   91.99   11.70
  -5  -3  -2  311.07   16.90
  -5  -3  -2  291.77   15.60
  -5  -3  -2  278.17   18.40
   5   3   2  262.87   19.20
   5   3   2  264.07   22.40
  -6  -3  -2  573.74   25.70
  -6  -3  -2  604.24   26.00
   6   3   2  554.64   32.00
   6   3   2  602.04   30.70
  -7  -3  -2  413.86   23.80
  -7  -3  -2  381.46   24.70
   7   3   2  400.86   26.60
   7   3   2  412.06   29.50
   7  -4  -2  163.88   17.50
   7  -4  -2  167.48   17.60
   7  -4  -2  200.48   21.70
  -7   4   2  185.18   16.70
   6  -4  -2 1044.30   40.30
   6  -4  -2 1091.39   36.90
   6  -4  -2 1082.39   37.00
  -6   4   2 1057.09   37.70
   5  -4  -2 1633.94   52.49
   5  -4  -2 1694.13   52.79
   5  -4  -2 1707.63   55.59
  -5   4   2 1670.23   53.59
   4  -4  -2  661.63   25.00
   4  -4  -2  660.73   23.00
   4  -4  -2  675.33   23.10
  -4   4   2  659.23   23.70
   3  -4  -2   19.80    3.80
   3  -4  -2   14.70    3.80
   3  -4  -2   15.30    4.90
  -3   4   2   18.80    3.90
   2  -4  -2  926.01   30.50
   2  -4  -2  929.21   28.90
   2  -4  -2  900.91   29.10
   2  -4  -2  922.61   29.10
  -2   4   2  927.61   28.40
  -2   4   2  894.51   29.10
   1  -4  -2 3412.86  101.99
   1  -4  -2 3427.26  101.09
   1  -4  -2 3265.77   99.79
   1  -4  -2 3471.15  101.29
   1  -4  -2 3633.44   99.49
  -1   4   2 3570.74   99.49
  -1   4   2 3183.18  100.89
   0  -4  -2 4959.20  143.49
   0  -4  -2 4813.42  142.89
   0  -4  -2 4690.73  142.99
   0   4   2 5002.10  143.19
  -1  -4  -2 1124.29   36.50
  -1  -4  -2 1129.59   36.40
   1   4   2 1151.68   36.70
  -2  -4  -2    0.20    4.10
  -2  -4  -2    2.70    5.20
  -2  -4  -2    5.10    2.70
   2   4   2   -2.10    4.30
   2   4   2    3.30    2.60
  -3  -4  -2  577.94   19.30
  -3  -4  -2  531.95   21.70
  -3  -4  -2  541.65   22.00
   3   4   2  546.85   23.10
   3   4   2  547.25   19.10
  -4  -4  -2 1023.20   34.70
  -4  -4  -2 1016.60   36.90
  -4  -4  -2 1048.10   37.60
   4   4   2 1053.09   38.10
   4   4   2 1082.69   40.00
  -5  -4  -2 1149.78   41.60
  -5  -4  -2 1170.38   43.60
  -5  -4  -2 1197.68   39.90
   5   4   2 1160.18   47.10
   5   4   2 1182.58   44.50
  -6  -4  -2  263.17   19.70
  -6  -4  -2  274.87   19.40
   6   4   2  315.97   23.50
   6   4   2  236.18   26.70
  -7  -4  -2   -1.60   11.40
   7   4   2   11.50   17.30
   7   4   2   -5.70   14.20
   7  -5  -2  587.14   32.80
   7  -5  -2  564.14   26.90
  -7   5   2  560.74   26.60
   6  -5  -2  213.88   18.70
   6  -5  -2  208.28   15.40
   6  -5  -2  241.18   15.60
  -6   5   2  224.28   16.20
   5  -5  -2   64.49    9.60
   5  -5  -2   74.99    7.70
   5  -5  -2   73.09    7.90
  -5   5   2   67.69    8.50
   4  -5  -2  431.56   17.20
   4  -5  -2  441.26   17.40
   4  -5  -2  441.46   19.60
  -4   5   2  415.16   17.30
   3  -5  -2 1460.45   46.20
   3  -5  -2 1497.95   48.00
   3  -5  -2 1475.25   45.90
  -3   5   2 1482.45   45.40
   2  -5  -2 2806.32   84.69
   2  -5  -2 2849.42   85.89
   2  -5  -2 2801.42   83.69
   2  -5  -2 2782.12   84.09
  -2   5   2 2878.91   82.89
   1  -5  -2 2427.66   74.19
   1  -5  -2 2419.36   73.49
   1  -5  -2 2441.96   73.09
   0  -5  -2   10.40    4.50
   0  -5  -2    7.80    4.10
   0  -5  -2   13.00    4.20
   0   5   2    1.40    4.00
  -1  -5  -2 1499.95   47.50
  -1  -5  -2 1486.05   47.30
   1   5   2 1454.45   47.40
  -2  -5  -2 2231.08   69.19
  -2  -5  -2 2254.87   69.39
   2   5   2 2172.18   69.59
  -3  -5  -2 1289.07   43.00
  -3  -5  -2 1198.08   38.60
  -3  -5  -2 1244.58   42.90
   3   5   2 1320.07   44.20
  -4  -5  -2  492.85   23.30
  -4  -5  -2  470.15   19.40
  -4  -5  -2  504.05   23.30
   4   5   2  489.35   25.20
  -5  -5  -2   -5.30    8.90
  -5  -5  -2    2.70    8.60
   5   5   2   -3.90    9.60
   5   5   2   16.20   11.90
  -6  -5  -2  171.98   19.40
  -6  -5  -2  182.88   21.00
   6   5   2  167.48   18.60
   7  -6  -2    2.40   14.10
  -7   6   2   19.60   11.20
   6  -6  -2  253.77   20.10
   6  -6  -2  207.58   17.30
  -6   6   2  221.78   17.80
   5  -6  -2 1228.78   43.00
   5  -6  -2 1182.78   40.40
   5  -6  -2 1189.58   39.80
  -5   6   2 1182.08   40.20
   4  -6  -2 1745.63   54.99
   4  -6  -2 1742.03   54.39
   4  -6  -2 1745.63   57.09
  -4   6   2 1725.23   54.19
   3  -6  -2  756.52   26.10
   3  -6  -2  767.72   26.80
   3  -6  -2  772.42   28.50
  -3   6   2  737.93   24.80
   2  -6  -2  139.09    9.90
   2  -6  -2  157.08   11.20
   2  -6  -2  148.19    9.80
  -2   6   2  129.79    6.60
   1  -6  -2 1428.96   47.40
   1  -6  -2 1458.25   46.80
   1  -6  -2 1483.05   46.10
  -1   6   2 1462.75   46.80
   0  -6  -2 2107.39   65.39
   0  -6  -2 2038.10   64.89
   0  -6  -2 2105.99   64.39
   0   6   2 2068.79   64.99
  -1  -6  -2 1043.60   36.10
  -1  -6  -2 1060.99   35.70
   1   6   2 1018.70   36.10
  -2  -6  -2  578.04   24.10
  -2  -6  -2  605.44   24.40
   2   6   2  581.14   24.60
  -3  -6  -2   28.50    8.00
  -3  -6  -2   34.50    9.50
   3   6   2   21.00    9.30
  -4  -6  -2  233.78   17.80
  -4  -6  -2  227.28   18.50
   4   6   2  243.58   19.40
  -5  -6  -2  810.42   34.50
  -5  -6  -2  854.81   36.00
   5   6   2  811.02   36.80
   5   6   2  771.42   38.70
   6  -7  -2  687.13   33.00
   5  -7  -2  128.29   14.90
   5  -7  -2  155.88   16.60
   4  -7  -2   45.80    8.60
   4  -7  -2   48.90    9.00
   3  -7  -2  771.02   28.40
   3  -7  -2  795.52   29.10
   3  -7  -2  814.82   30.60
   2  -7  -2 1366.06   44.20
   2  -7  -2 1354.66   46.20
   2  -7  -2 1376.96   45.10
   1  -7  -2 1609.74   51.19
   1  -7  -2 1596.94   52.89
   1  -7  -2 1638.94   52.29
  -1   7   2 1586.14   52.19
   0  -7  -2  634.54   24.90
   0  -7  -2  626.84   25.40
   0  -7  -2  623.74   25.10
   0   7   2  641.54   25.70
  -1  -7  -2   14.70    7.50
  -1  -7  -2    0.50    6.50
   1   7   2    2.60    7.70
  -2  -7  -2  881.01   33.10
  -2  -7  -2  796.72   32.70
   2   7   2  887.41   34.00
  -3  -7  -2 1173.08   43.10
  -3  -7  -2 1150.78   42.60
   3   7   2 1178.68   43.70
  -4  -7  -2  490.45   25.90
  -4  -7  -2  508.45   27.90
   4   7   2  512.25   29.00
   5  -8  -2  393.46   25.20
   5  -8  -2  424.26   24.20
   4  -8  -2  798.32   32.20
   4  -8  -2  812.52   33.50
   3  -8  -2  969.30   35.90
   3  -8  -2  986.80   37.20
   2  -8  -2  264.57   17.10
   2  -8  -2  282.37   17.20
  -2   8   2  254.07   17.50
   1  -8  -2   23.70    8.20
   1  -8  -2   28.80    8.90
   1  -8  -2   23.60    7.90
  -1   8   2   29.80    9.60
   0  -8  -2  707.73   28.70
   0  -8  -2  712.03   28.60
   0  -8  -2  710.53   28.60
   0   8   2  712.13   29.70
  -1  -8  -2 1057.79   39.60
  -1  -8  -2 1128.39   40.10
   1   8   2 1090.49   40.70
  -2  -8  -2  962.50   37.30
  -2  -8  -2  989.50   38.50
   2   8   2  916.41   37.60
  -3  -8  -2  174.48   18.50
  -3  -8  -2  200.58   22.00
   3   8   2  161.98   20.10
   3  -9  -2   78.39   12.40
   3  -9  -2   79.79   12.80
   2  -9  -2  783.12   32.70
   2  -9  -2  796.52   33.50
  -2   9   2  804.02   33.00
   1  -9  -2 1045.70   38.60
   1  -9  -2 1014.40   39.30
  -1   9   2  983.60   39.30
   0  -9  -2  412.76   23.50
   0  -9  -2  495.05   23.90
   0   9   2  435.56   25.10
  -1  -9  -2  105.39   16.80
  -1  -9  -2  104.19   13.70
   1   9   2  112.29   14.40
   1  10  -3  240.08   19.60
  -1 -10   3  267.37   22.30
  -1 -10   3  185.28   19.30
   0  10  -3  710.93   32.00
   0 -10   3  789.82   32.40
   0 -10   3  738.83   33.70
   1 -10   3  981.80   39.10
   1 -10   3 1053.99   40.40
   2 -10   3  371.36   22.20
   2 -10   3  364.66   23.70
   3 -10   3    0.90   11.80
   3 -10   3   18.20   10.20
   3   9  -3  228.28   18.50
  -3  -9   3  233.98   22.80
   2   9  -3  672.43   29.40
  -2  -9   3  751.72   32.40
  -2  -9   3  677.73   30.50
   1   9  -3  974.20   37.10
  -1  -9   3  974.60   37.20
  -1  -9   3 1012.50   38.10
   0  -9   3  517.65   23.40
   0  -9   3  479.15   24.10
   1  -9   3   33.40    8.10
   1  -9   3   31.40    9.70
   2  -9   3  667.83   28.50
   2  -9   3  668.13   28.10
   3  -9   3 1015.20   38.20
   3  -9   3 1007.60   38.10
   4  -9   3  702.23   29.80
   4  -9   3  665.03   30.30
   5  -9   3  237.68   20.20
   5  -9   3  267.77   23.30
   4   8  -3  837.22   35.90
   4   8  -3  776.92   33.40
  -4  -8   3  805.32   33.70
  -4  -8   3  802.02   36.60
   3   8  -3  814.02   31.90
  -3  -8   3  772.22   33.60
  -3  -8   3  745.43   30.10
   2   8  -3  230.58   16.20
  -2  -8   3  245.18   14.60
  -2  -8   3  232.28   18.30
  -2  -8   3  213.28   16.40
   1   8  -3  137.79   13.00
  -1  -8   3  117.09   12.80
  -1  -8   3  130.19   10.00
  -1  -8   3  117.39   11.70
   0  -8   3  803.62   31.10
   0  -8   3  863.91   31.10
  -1   8  -3 1441.06   45.80
   1  -8   3 1462.35   49.10
   1  -8   3 1479.55   48.10
  -2   8  -3  945.21   32.40
   2  -8   3  929.61   34.90
   2  -8   3  983.00   34.00
  -3   8  -3  447.06   19.00
   3  -8   3  398.36   20.30
   3  -8   3  394.66   19.90
  -4   8  -3    0.40    8.30
   4  -8   3    2.00    8.50
   4  -8   3   15.80    8.00
  -5   8  -3  373.36   22.50
   5  -8   3  344.47   22.40
   5  -8   3  319.17   21.10
  -6   8  -3  693.93   33.00
   6  -8   3  719.93   33.60
   6  -8   3  707.43   34.50
   5   7  -3  337.17   22.70
   5   7  -3  352.86   24.80
  -5  -7   3  299.47   25.90
  -5  -7   3  329.97   23.70
   4   7  -3   49.70    9.70
   4   7  -3   57.29   11.50
  -4  -7   3   49.20   10.20
  -4  -7   3   34.50   12.40
   3   7  -3   10.60    5.50
   3   7  -3   14.50    7.40
  -3  -7   3   -0.70    9.20
  -3  -7   3   11.70    7.20
   2   7  -3  625.04   24.00
   2   7  -3  574.94   20.50
  -2  -7   3  604.34   22.40
  -2  -7   3  588.04   24.90
  -2  -7   3  546.55   24.00
   1   7  -3 2042.90   61.79
  -1  -7   3 2066.69   65.19
  -1  -7   3 2065.19   62.39
  -1  -7   3 2054.09   64.89
   0   7  -3 2452.75   72.09
   0   7  -3 2468.95   73.39
   0  -7   3 2465.75   75.49
   0  -7   3 2507.85   76.39
   0  -7   3 2373.46   72.09
  -1   7  -3  387.46   15.60
   1  -7   3  390.86   16.70
   1  -7   3  392.46   17.70
  -2   7  -3  249.18   13.20
   2  -7   3  275.37   13.60
   2  -7   3  271.57   14.80
  -3   7  -3 1260.57   40.80
   3  -7   3 1288.37   40.90
   3  -7   3 1151.48   41.90
  -4   7  -3 1118.89   39.40
   4  -7   3 1164.98   41.00
   4  -7   3 1154.38   39.30
  -5   7  -3  564.44   26.20
   5  -7   3  612.74   27.20
   5  -7   3  578.84   25.60
  -6   7  -3  182.78   17.70
   6  -7   3  178.58   21.20
   6  -7   3  159.68   18.50
   6   6  -3   32.40   13.10
   6   6  -3   53.99   14.60
   6   6  -3   24.00   10.20
  -6  -6   3   54.89   12.40
  -6  -6   3   51.79   12.00
   5   6  -3   13.10    9.60
   5   6  -3   16.90   10.70
  -5  -6   3    7.80    9.50
  -5  -6   3   -0.90    8.20
  -5  -6   3   21.90   11.30
   4   6  -3  540.35   22.80
   4   6  -3  489.75   20.10
   4   6  -3  546.25   25.60
  -4  -6   3  496.75   27.00
  -4  -6   3  492.35   22.80
  -4  -6   3  512.65   20.50
   3   6  -3 1865.91   61.39
   3   6  -3 1858.31   57.49
   3   6  -3 1902.11   60.09
  -3  -6   3 1900.11   61.79
  -3  -6   3 1896.71   59.19
  -3  -6   3 1826.02   57.39
   2   6  -3 2423.86   72.59
   2   6  -3 2418.46   75.09
  -2  -6   3 2456.05   75.19
  -2  -6   3 2424.06   75.49
  -2  -6   3 2412.36   73.59
   1   6  -3  132.19    7.80
   1   6  -3  130.29    7.60
   1   6  -3  117.49    9.40
   1   6  -3  128.89    8.10
  -1  -6   3  134.99    8.20
  -1  -6   3  127.89    9.70
  -1  -6   3  121.39    9.80
   0   6  -3  513.55   16.50
   0   6  -3  516.65   16.90
   0   6  -3  509.95   17.80
   0   6  -3  504.25   17.90
   0  -6   3  506.35   19.90
   0  -6   3  506.25   19.10
   0  -6   3  525.85   16.50
   0  -6   3  535.15   17.60
  -1   6  -3 1604.34   49.99
   1  -6   3 1647.74   50.69
   1  -6   3 1644.94   51.89
  -2   6  -3 1705.53   53.79
   2  -6   3 1686.93   53.69
   2  -6   3 1824.92   55.49
  -3   6  -3 2227.98   69.29
   3  -6   3 2266.57   70.39
   3  -6   3 2232.08   68.59
  -4   6  -3  379.26   18.20
   4  -6   3  390.16   18.90
   4  -6   3  378.56   16.90
  -5   6  -3  111.39   13.20
   5  -6   3  131.59   14.50
   5  -6   3  121.99   13.50
  -6   6  -3  728.83   30.30
   6  -6   3  754.32   32.70
   6  -6   3  740.83   33.80
  -7   6  -3  396.26   24.20
   7  -6   3  409.56   28.60
   7  -6   3  433.56   31.00
   6   5  -3  403.46   26.60
   6   5  -3  417.26   22.00
   6   5  -3  394.36   25.70
  -6  -5   3  378.76   22.90
  -6  -5   3  413.66   23.00
   5   5  -3 1078.79   42.30
   5   5  -3 1047.90   39.50
  -5  -5   3 1076.19   39.40
  -5  -5   3 1101.89   37.50
   4   5  -3  929.81   33.10
   4   5  -3  914.11   35.70
  -4  -5   3  917.91   31.20
  -4  -5   3  889.21   32.80
  -4  -5   3  931.31   36.50
   3   5  -3  109.29    9.70
   3   5  -3  154.28   12.60
   3   5  -3  124.39    8.50
  -3  -5   3  117.49    8.50
  -3  -5   3  112.59   12.50
  -3  -5   3  121.89    9.60
   2   5  -3  777.12   25.10
   2   5  -3  761.82   26.70
  -2  -5   3  776.52   25.70
  -2  -5   3  755.72   25.00
  -2  -5   3  755.22   27.30
  -2  -5   3  775.92   26.80
   1   5  -3 2041.50   61.79
   1   5  -3 1997.70   61.19
   1   5  -3 2050.89   61.39
   1   5  -3 2151.88   61.39
  -1  -5   3 2090.59   62.89
  -1  -5   3 2032.30   62.59
  -1  -5   3 1982.20   61.19
   0   5  -3 2027.90   60.19
   0   5  -3 1978.50   60.29
   0   5  -3 2093.39   59.19
   0   5  -3 2018.00   59.59
   0  -5   3 1978.50   60.79
   0  -5   3 2020.60   61.69
   0  -5   3 1981.30   60.09
  -1   5  -3 1762.32   53.39
  -1   5  -3 1820.42   53.69
   1  -5   3 1628.04   53.19
   1  -5   3 1828.02   54.99
   1  -5   3 1803.92   53.59
  -2   5  -3 1143.59   36.20
   2  -5   3 1142.29   37.20
   2  -5   3 1111.29   35.50
  -3   5  -3   88.49    8.70
   3  -5   3   99.09    7.50
   3  -5   3  101.59    9.10
  -4   5  -3 1879.31   61.09
   4  -5   3 1984.30   62.39
   4  -5   3 1957.40   60.29
  -5   5  -3 1742.73   56.59
   5  -5   3 1667.03   58.29
   5  -5   3 1806.12   56.39
   5  -5   3 1740.63   52.99
  -6   5  -3  507.55   24.40
   6  -5   3  507.15   27.70
   6  -5   3  530.55   26.90
  -7   5  -3   44.40   10.40
   7  -5   3   73.69   15.30
   7  -5   3   34.60   16.40
   7   4  -3  445.46   33.60
   7   4  -3  457.35   27.30
   7   4  -3  441.16   24.50
  -7  -4   3  431.56   25.90
  -7  -4   3  473.65   26.30
   6   4  -3  277.37   24.50
   6   4  -3  302.97   22.00
   6   4  -3  295.87   17.80
  -6  -4   3  281.67   19.20
  -6  -4   3  282.87   18.60
   5   4  -3   40.00    7.10
   5   4  -3   41.20    9.60
   5   4  -3   47.30    9.80
  -5  -4   3   50.49    8.70
  -5  -4   3   47.60    8.00
   4   4  -3  297.07   14.80
   4   4  -3  283.77   17.40
  -4  -4   3  282.67   13.60
  -4  -4   3  264.87   15.00
   3   4  -3 1526.55   48.40
   3   4  -3 1549.54   50.59
   3   4  -3 1517.85   48.30
  -3  -4   3 1554.74   50.79
  -3  -4   3 1534.35   47.60
  -3  -4   3 1525.15   48.50
   2   4  -3 4107.39  122.29
   2   4  -3 4270.77  122.79
   2   4  -3 4236.28  122.09
   2   4  -3 4025.70  123.69
  -2  -4   3 4181.88  122.79
  -2  -4   3 4051.69  123.79
  -2  -4   3 4169.08  121.99
  -2  -4   3 4177.28  122.39
   1   4  -3 2353.06   69.99
   1   4  -3 2297.27   70.09
   1   4  -3 2385.66   69.79
   1   4  -3 2414.26   69.99
   1   4  -3 2301.57   70.29
  -1  -4   3 2346.67   70.69
  -1  -4   3 2383.66   70.79
  -1  -4   3 2365.96   69.79
   0   4  -3  206.08    8.90
   0   4  -3  219.78    8.80
   0   4  -3  226.28    9.10
   0   4  -3  230.38    8.40
   0   4  -3  220.98    7.90
   0  -4   3  223.48    8.90
   0  -4   3  222.18    8.90
   0  -4   3  215.28    9.60
  -1   4  -3 1416.86   44.00
  -1   4  -3 1479.85   43.30
   1  -4   3 1444.36   43.40
   1  -4   3 1450.85   43.90
   1  -4   3 1403.06   44.70
  -2   4  -3 2261.37   66.39
  -2   4  -3 2254.97   67.49
   2  -4   3 2219.88   66.29
   2  -4   3 2193.78   67.99
  -3   4  -3 2589.14   78.99
  -3   4  -3 2636.84   77.99
   3  -4   3 2585.84   79.69
   3  -4   3 2609.04   77.69
  -4   4  -3 1114.69   34.30
  -4   4  -3 1090.59   37.30
   4  -4   3 1145.09   38.60
   4  -4   3 1064.49   34.10
   4  -4   3 1137.99   36.30
  -5   4  -3  300.97   13.70
  -5   4  -3  291.27   16.20
   5  -4   3  323.57   16.90
   5  -4   3  339.47   19.80
  -6   4  -3   99.19   11.10
  -6   4  -3  102.79    9.50
   6  -4   3   97.79   15.10
   6  -4   3   89.99   12.90
  -7   4  -3  507.65   23.40
   7  -4   3  333.27   29.70
   7  -4   3  383.26   28.70
  -8   4  -3  425.36   26.20
   8  -4   3  483.75   35.60
   8  -4   3  466.95   32.30
   7   3  -3    7.50    8.60
   7   3  -3    4.30    9.30
   7   3  -3    1.10   15.00
  -7  -3   3    9.60   10.00
  -7  -3   3   -7.00    9.10
   6   3  -3   62.69   11.50
   6   3  -3   54.79   12.90
   6   3  -3   58.79    9.50
  -6  -3   3   65.29   10.50
  -6  -3   3   55.39    9.60
   5   3  -3  963.40   36.60
   5   3  -3  937.91   35.40
   5   3  -3  939.01   33.90
  -5  -3   3  953.40   34.10
  -5  -3   3  945.31   33.50
   4   3  -3 2361.26   75.79
   4   3  -3 2333.77   73.19
   4   3  -3 2404.26   73.29
  -4  -3   3 2438.46   73.49
  -4  -3   3 2361.06   72.59
   3   3  -3 2053.29   62.69
   3   3  -3 2018.30   64.79
   3   3  -3 2044.20   62.39
  -3  -3   3 2074.59   62.79
  -3  -3   3 2059.89   62.19
   2   3  -3   37.30    4.60
   2   3  -3   40.00    4.70
   2   3  -3   33.70    3.80
   2   3  -3   23.50    4.80
   2   3  -3   34.50    4.00
   2   3  -3   31.50    5.50
  -2  -3   3   31.40    3.80
  -2  -3   3   30.70    3.80
  -2  -3   3   28.90    3.80
  -2  -3   3   36.60    5.40
   1   3  -3  936.41   29.10
   1   3  -3  950.20   29.30
   1   3  -3  969.50   29.40
   1   3  -3  964.60   29.40
   1   3  -3  920.81   29.40
   1   3  -3  960.50   29.60
  -1  -3   3  969.90   29.60
  -1  -3   3  967.40   29.20
  -1  -3   3  891.11   29.40
  -1  -3   3  929.71   29.90
   0   3  -3 4172.48  121.49
   0   3  -3 4031.40  121.59
   0   3  -3 4179.28  120.69
   0   3  -3 4185.88  121.39
   0   3  -3 4097.19  120.59
   0   3  -3 4084.19  120.69
   0  -3   3 4094.99  120.89
   0  -3   3 4226.48  121.79
   0  -3   3 4333.97  121.49
  -1   3  -3 5878.71  168.28
  -1   3  -3 5455.75  169.68
  -1   3  -3 5673.63  169.98
  -1   3  -3 5877.41  168.58
   1  -3   3 6031.20  168.28
   1  -3   3 5861.31  168.68
   1  -3   3 5796.72  170.08
   1  -3   3 6030.60  169.78
  -2   3  -3 2782.82   81.59
  -2   3  -3 2739.53   83.39
  -2   3  -3 2856.91   82.19
   2  -3   3 2835.02   81.99
   2  -3   3 2868.81   81.39
   2  -3   3 2703.43   83.69
  -3   3  -3    8.50    4.30
  -3   3  -3    4.60    2.80
  -3   3  -3    3.30    3.90
   3  -3   3    6.30    4.30
   3  -3   3    7.50    3.00
   3  -3   3    5.30    2.60
  -4   3  -3  733.83   24.90
  -4   3  -3  764.12   27.20
   4  -3   3  783.22   29.40
   4  -3   3  798.22   26.90
   4  -3   3  720.63   24.80
  -5   3  -3 1002.50   34.90
  -5   3  -3  965.90   32.70
   5  -3   3 1010.10   36.30
   5  -3   3  968.30   38.80
  -6   3  -3  827.82   30.10
  -6   3  -3  825.92   28.00
   6  -3   3  656.33   34.40
   6  -3   3  628.34   32.30
  -7   3  -3  368.66   21.00
  -7   3  -3  348.97   20.50
   7  -3   3  365.36   28.60
   7  -3   3  339.97   26.50
  -8   3  -3   44.60   12.50
   8  -3   3   16.90   18.00
   8  -3   3   55.49   15.60
   8   2  -3   45.00   13.00
   8   2  -3   81.39   15.50
  -8  -2   3   87.89   14.40
  -8  -2   3   51.79   13.30
   7   2  -3  508.05   28.30
   7   2  -3  551.14   26.00
   7   2  -3  546.95   27.20
  -7  -2   3  514.15   25.60
  -7  -2   3  583.24   25.70
   6   2  -3  939.61   36.80
   6   2  -3  961.80   37.00
   6   2  -3  937.81   34.50
  -6  -2   3  897.61   34.40
  -6  -2   3  935.61   34.90
   5   2  -3  752.12   27.00
   5   2  -3  616.64   28.60
   5   2  -3  750.72   29.20
  -5  -2   3  751.92   27.00
  -5  -2   3  718.63   26.90
   4   2  -3  104.59   11.20
   4   2  -3   87.99    9.30
   4   2  -3   91.19    8.30
  -4  -2   3   68.09    7.20
  -4  -2   3   82.39    8.20
   3   2  -3 1092.89   37.50
   3   2  -3 1130.49   35.30
   3   2  -3 1172.68   34.90
   3   2  -3 1113.69   35.80
  -3  -2   3 1118.99   35.60
  -3  -2   3 1102.29   35.80
   2   2  -3 2048.20   62.69
   2   2  -3 2017.30   61.19
   2   2  -3 2103.39   60.49
   2   2  -3 2008.30   61.19
   2   2  -3 1888.91   62.39
   2   2  -3 2000.20   61.29
   2   2  -3 2111.09   60.69
  -2  -2   3 2059.19   61.19
  -2  -2   3 2142.89   60.69
  -2  -2   3 2037.10   61.19
   1   2  -3 1801.82   56.59
   1   2  -3 1844.72   56.09
   1   2  -3 1926.21   56.09
   1   2  -3 1916.61   56.09
   1   2  -3 1823.42   55.89
   1   2  -3 1908.11   55.69
   1   2  -3 1883.91   56.09
  -1  -2   3 1918.91   56.09
  -1  -2   3 1911.81   55.69
  -1  -2   3 1870.11   56.19
   0   2  -3 6477.05  186.98
   0   2  -3 6553.14  188.08
   0   2  -3 6857.21  188.38
   0   2  -3 6744.73  188.38
   0   2  -3 5512.55  187.28
   0   2  -3 6569.34  187.68
   0  -2   3 5978.40  187.38
   0  -2   3 6667.53  188.08
   0  -2   3 6837.22  188.28
   0  -2   3 6678.43  187.78
  -1   2  -3 1142.19   35.10
  -1   2  -3 1160.08   33.90
  -1   2  -3 1096.59   34.90
   1  -2   3 1127.99   34.80
   1  -2   3 1142.19   35.00
   1  -2   3 1143.59   33.90
  -2   2  -3 1837.42   54.19
  -2   2  -3 1729.33   55.89
  -2   2  -3 1882.31   54.49
  -2   2  -3 1790.52   55.39
   2  -2   3 1827.72   53.99
   2  -2   3 1881.51   54.09
   2  -2   3 1837.62   56.09
  -3   2  -3 5546.84  163.38
  -3   2  -3 5716.73  162.68
  -3   2  -3 5425.96  163.68
   3  -2   3 5562.64  165.68
   3  -2   3 5484.85  163.18
   3  -2   3 5689.93  162.38
  -4   2  -3 1849.81   54.99
  -4   2  -3 1891.41   56.69
   4  -2   3 1751.02   59.59
   4  -2   3 1664.63   56.79
  -5   2  -3  667.03   24.40
  -5   2  -3  635.04   22.70
   5  -2   3  584.24   26.50
   5  -2   3  540.95   28.20
  -6   2  -3   20.30    7.10
  -6   2  -3   30.90    8.30
   6  -2   3   19.40   12.20
   6  -2   3   14.50   10.30
  -7   2  -3   92.69   11.60
  -7   2  -3   88.09   11.80
   7  -2   3   94.79   15.90
   7  -2   3   67.49   14.50
  -8   2  -3  358.16   24.30
  -8   2  -3  366.66   24.50
   8  -2   3  339.37   27.00
   8  -2   3  401.96   30.10
   8   1  -3  302.27   24.50
   8   1  -3  305.97   23.50
  -8  -1   3  269.07   21.00
  -8  -1   3  262.77   22.30
   7   1  -3  233.88   19.30
   7   1  -3  203.08   16.90
   7   1  -3  207.88   18.70
  -7  -1   3  213.38   17.30
  -7  -1   3  227.68   16.70
   6   1  -3    6.60    7.20
   6   1  -3   28.20    9.20
   6   1  -3    7.10    8.00
  -6  -1   3   13.50    7.50
  -6  -1   3   15.60    7.30
   5   1  -3  697.23   26.00
   5   1  -3  741.23   27.90
   5   1  -3  688.33   28.10
  -5  -1   3  669.13   25.80
  -5  -1   3  689.13   25.80
   4   1  -3 2516.35   79.49
   4   1  -3 2488.25   76.69
   4   1  -3 2590.54   78.19
   4   1  -3 2521.15   79.89
  -4  -1   3 2691.83   77.09
  -4  -1   3 2542.15   78.09
  -4  -1   3 2652.23   78.29
   3   1  -3 3482.35   98.49
   3   1  -3 3205.68   99.79
   3   1  -3 3267.97  100.99
   3   1  -3 3272.67   99.79
  -3  -1   3 3330.17   99.79
  -3  -1   3 3374.76   99.79
  -3  -1   3 3583.24   98.59
   2   1  -3 1098.49   35.20
   2   1  -3 1180.98   33.90
   2   1  -3 1153.48   36.00
   2   1  -3 1117.29   35.30
   2   1  -3 1142.09   34.20
   2   1  -3 1136.19   35.30
  -2  -1   3 1118.19   35.20
  -2  -1   3 1135.49   35.30
  -2  -1   3 1193.28   37.80
   1   1  -3    1.30    1.30
   1   1  -3   -2.50    1.70
   1   1  -3   -1.20    2.00
   1   1  -3    2.10    1.90
   1   1  -3    1.10    2.00
  -1  -1   3   -0.50    2.10
  -1  -1   3   -0.60    2.00
  -1  -1   3    1.40    1.30
  -1  -1   3    6.70    3.50
   0   1  -3 1458.95   42.80
   0   1  -3 1424.36   43.10
   0   1  -3 1424.96   42.90
   0   1  -3 1451.75   43.20
   0  -1   3 1451.85   42.60
   0  -1   3 1446.06   42.90
   0  -1   3 1418.06   43.10
  -1   1  -3 4285.57  123.09
  -1   1  -3 4006.90  123.99
  -1   1  -3 4306.47  123.59
   1  -1   3 4011.30  123.69
   1  -1   3 4421.16  123.09
   1  -1   3 4311.37  123.49
  -2   1  -3 4248.48  131.49
  -2   1  -3 4372.06  129.49
  -2   1  -3 4512.35  128.89
   2  -1   3 4356.26  131.09
   2  -1   3 4545.55  128.49
   2  -1   3 4496.85  128.79
   2  -1   3 4333.57  129.39
  -3   1  -3 1723.63   52.09
  -3   1  -3 1750.72   51.49
   3  -1   3 1738.03   51.29
   3  -1   3 1513.45   54.69
   3  -1   3 1822.02   51.69
   3  -1   3 1534.65   52.29
  -4   1  -3   49.90    6.60
  -4   1  -3   47.90    5.60
   4  -1   3   38.80    8.70
   4  -1   3   47.90    7.20
  -5   1  -3  416.56   18.00
  -5   1  -3  408.96   18.80
   5  -1   3  429.56   20.80
   5  -1   3  435.76   23.80
  -6   1  -3 1009.20   39.20
  -6   1  -3 1077.99   38.30
   6  -1   3 1210.58   44.50
   6  -1   3 1138.29   41.20
  -7   1  -3  608.74   28.20
  -7   1  -3  650.33   29.10
   7  -1   3  682.73   32.30
   7  -1   3  732.73   32.90
  -8   1  -3  144.79   15.70
  -8   1  -3  120.99   14.80
   8  -1   3  170.88   18.40
   8  -1   3  156.08   17.00
   8   0  -3   -6.10   12.10
   8   0  -3   31.00   11.40
  -8   0   3    1.70   10.60
   7   0  -3  318.97   19.60
   7   0  -3  282.47   20.60
   7   0  -3  326.97   21.30
  -7   0   3  295.37   18.70
  -7   0   3  305.77   18.80
   6   0  -3  649.83   26.90
   6   0  -3  700.63   29.90
   6   0  -3  728.83   27.90
  -6   0   3  614.24   26.20
  -6   0   3  688.83   26.90
   5   0  -3 1632.14   51.39
   5   0  -3 1580.34   50.89
   5   0  -3 1569.84   53.09
  -5   0   3 1568.24   50.89
  -5   0   3 1564.54   50.99
   4   0  -3 1270.47   39.60
   4   0  -3 1204.68   39.50
   4   0  -3 1207.38   41.10
  -4   0   3 1210.28   39.60
  -4   0   3 1239.68   38.30
   3   0  -3  182.18    9.20
   3   0  -3  201.38   10.20
   3   0  -3  200.08    9.10
  -3   0   3  199.38    7.70
  -3   0   3  182.18    9.10
   2   0  -3 3510.55  102.09
   2   0  -3 3444.46  101.99
   2   0  -3 3483.05  102.19
   2   0  -3 3462.95  102.19
  -2   0   3 3468.15  101.99
  -2   0   3 3475.85  102.69
  -2   0   3 3439.86  102.09
   1   0  -3 7761.52  227.08
   1   0  -3 7570.54  226.58
   1   0  -3 8117.89  226.98
  -1   0   3 8002.80  227.08
  -1   0   3 7425.36  226.78
  -1   0   3 8124.19  227.18
   0   0  -3 6069.49  175.08
   0   0  -3 6092.69  174.28
   0   0  -3 6130.29  175.08
   0   0  -3 6012.90  175.18
   0   0   3 6433.66  175.28
   0   0   3 5266.97  174.78
   0   0   3 6243.28  175.08
   0   0   3 6024.20  174.28
  -1   0  -3  184.88    6.80
  -1   0  -3  196.88   11.90
  -1   0  -3  194.58    7.80
   1   0   3  181.88    7.60
   1   0   3  184.98    7.70
   1   0   3  193.88    6.70
   1   0   3  184.08    9.70
  -2   0  -3   15.10    3.40
  -2   0  -3    8.40    3.00
  -2   0  -3    8.70    3.00
  -2   0  -3   12.00    7.20
   2   0   3   21.00    6.00
   2   0   3   10.70    2.50
   2   0   3   12.70    3.30
   2   0   3    6.90    3.20
   2   0   3   14.80    3.30
  -3   0  -3  783.02   26.40
  -3   0  -3  777.52   26.50
   3   0   3  804.02   30.30
   3   0   3  802.72   26.30
   3   0   3  810.12   27.40
  -4   0  -3 1364.46   45.70
  -4   0  -3 1375.26   45.90
   4   0   3 1505.05   47.20
   4   0   3 1502.85   49.99
  -5   0  -3 1889.41   60.99
  -5   0  -3 1833.02   61.19
   5   0   3 2069.59   65.49
   5   0   3 1935.01   62.49
  -6   0  -3  425.96   20.20
  -6   0  -3  428.16   21.50
   6   0   3  452.35   24.90
   6   0   3  413.56   22.10
  -7   0  -3    0.60    8.50
  -7   0  -3    7.80    9.30
   7   0   3  -10.00   10.80
   7   0   3    0.90   10.40
  -8   0  -3  108.59   14.50
  -8   0  -3  107.89   15.40
   8   0   3  141.59   17.20
   8   0   3   79.79   15.30
   8  -1  -3  284.37   25.90
   8  -1  -3  361.46   23.30
  -8   1   3  320.17   22.50
   7  -1  -3  466.55   24.20
   7  -1  -3  471.75   26.10
   7  -1  -3  500.35   23.70
  -7   1   3  466.05   22.70
   6  -1  -3  335.37   17.00
   6  -1  -3  330.17   17.60
   6  -1  -3  302.17   20.20
  -6   1   3  314.17   17.30
   5  -1  -3   41.90    6.10
   5  -1  -3   37.80    6.50
   5  -1  -3   30.00    7.60
  -5   1   3   23.90    7.40
  -5   1   3   33.40    6.30
   4  -1  -3  987.90   34.50
   4  -1  -3  999.50   33.30
   4  -1  -3  986.30   31.40
  -4   1   3  986.90   33.30
  -4   1   3 1069.99   32.80
   3  -1  -3 2955.60   87.59
   3  -1  -3 2822.22   87.89
   3  -1  -3 2887.31   85.59
  -3   1   3 2896.71   87.49
  -3   1   3 3112.49   86.79
   2  -1  -3 4511.85  129.39
   2  -1  -3 4537.95  129.39
   2  -1  -3 4558.04  129.19
  -2   1   3 4578.14  129.59
  -2   1   3 4549.04  129.19
  -2   1   3 3736.73  128.89
   1  -1  -3 2908.81   84.19
   1  -1  -3 2912.41   84.29
   1  -1  -3 2472.75   84.29
   1  -1  -3 2926.51   84.19
  -1   1   3 2924.51   84.49
  -1   1   3 2973.60   84.19
  -1   1   3 2946.61   84.39
   0  -1  -3  108.29    5.10
   0  -1  -3  106.49    5.10
   0  -1  -3  110.89    5.20
   0  -1  -3  101.39    5.20
   0   1   3  109.19    5.20
   0   1   3  100.09    5.70
   0   1   3  115.09    6.90
   0   1   3  111.79    5.20
  -1  -1  -3 3375.26   98.09
  -1  -1  -3 3448.95   98.19
  -1  -1  -3 3438.26   99.59
   1   1   3 3524.65   98.19
   1   1   3 3413.86   98.09
   1   1   3 3410.36   98.79
   1   1   3 2855.01  100.29
  -2  -1  -3 3291.07   95.49
  -2  -1  -3 3406.76   96.19
  -2  -1  -3 2990.80   95.29
   2   1   3 2874.71   98.79
   2   1   3 3423.96   95.49
   2   1   3 3398.66   95.39
  -3  -1  -3 2581.64   76.89
  -3  -1  -3 2552.34   76.89
  -3  -1  -3 2583.74   76.29
   3   1   3 2512.95   76.69
   3   1   3 2412.56   80.59
  -4  -1  -3  813.42   29.00
  -4  -1  -3  800.92   28.60
   4   1   3  829.12   29.80
   4   1   3  864.21   33.90
  -5  -1  -3    1.70    6.30
  -5  -1  -3   -9.80    5.50
   5   1   3   -0.70    7.20
   5   1   3    9.40    8.70
  -6  -1  -3  488.65   23.00
  -6  -1  -3  434.36   22.10
   6   1   3  527.35   26.60
   6   1   3  513.65   25.40
  -7  -1  -3  489.95   26.30
  -7  -1  -3  516.45   24.50
   7   1   3  533.85   28.40
   7   1   3  484.45   27.10
   8  -2  -3  120.79   16.10
   8  -2  -3  128.59   18.10
  -8   2   3  138.39   15.10
   7  -2  -3   34.20   11.10
   7  -2  -3   22.70   10.10
  -7   2   3   40.90    9.30
   6  -2  -3  805.52   28.20
   6  -2  -3  781.02   32.80
   6  -2  -3  773.72   30.00
  -6   2   3  794.32   29.90
   5  -2  -3 2075.19   62.89
   5  -2  -3 2088.09   66.49
   5  -2  -3 2058.69   64.59
  -5   2   3 2066.39   64.99
   4  -2  -3  947.41   31.10
   4  -2  -3  945.91   32.20
   4  -2  -3  955.30   29.10
  -4   2   3  850.81   31.70
  -4   2   3  938.21   31.20
   3  -2  -3  431.56   16.00
   3  -2  -3  419.56   16.60
   3  -2  -3  431.36   14.10
  -3   2   3  439.56   16.00
  -3   2   3  448.46   15.10
   2  -2  -3   -2.00    2.80
   2  -2  -3    4.90    1.90
   2  -2  -3    5.50    2.80
   2  -2  -3   -2.50    2.70
  -2   2   3    8.10    2.60
  -2   2   3    6.40    1.90
   1  -2  -3  718.83   23.30
   1  -2  -3  738.43   22.60
   1  -2  -3  725.23   22.30
   1  -2  -3  726.83   22.70
   1  -2  -3  716.23   23.40
  -1   2   3  753.42   22.30
  -1   2   3  706.53   22.50
  -1   2   3  694.53   23.30
  -1   2   3  708.33   23.30
  -1   2   3  742.23   22.10
   0  -2  -3 6115.99  175.68
   0  -2  -3 6263.97  176.58
   0  -2  -3 6117.79  175.68
   0  -2  -3 5950.90  176.78
   0   2   3 5604.54  176.58
   0   2   3 6266.37  176.18
   0   2   3 6171.38  176.48
   0   2   3 6000.80  176.48
  -1  -2  -3 4584.14  137.49
  -1  -2  -3 4830.12  136.99
  -1  -2  -3 4577.04  138.09
  -1  -2  -3 4591.14  137.99
   1   2   3 4924.21  136.89
   1   2   3 4500.85  138.59
   1   2   3 4828.32  137.59
   1   2   3 4785.72  138.09
  -2  -2  -3 1398.16   43.50
  -2  -2  -3 1392.16   42.80
  -2  -2  -3 1409.16   44.10
   2   2   3 1393.06   42.60
   2   2   3 1416.06   46.10
  -3  -2  -3  178.78    9.30
  -3  -2  -3  172.88   10.50
  -3  -2  -3  176.18   10.90
   3   2   3  165.38   15.80
  -4  -2  -3  970.20   32.60
  -4  -2  -3  993.50   34.60
  -4  -2  -3  994.10   33.80
   4   2   3  899.81   38.60
   4   2   3  960.40   34.30
  -5  -2  -3 1321.07   43.20
  -5  -2  -3 1316.37   44.00
   5   2   3 1154.78   48.30
   5   2   3 1341.77   45.80
  -6  -2  -3  511.75   24.10
  -6  -2  -3  495.55   24.20
   6   2   3  499.85   27.70
   6   2   3  541.25   28.70
  -7  -2  -3  173.68   19.60
  -7  -2  -3  139.59   16.10
   7   2   3  135.99   17.20
   7   2   3  117.89   16.90
   8  -3  -3  236.18   24.10
   7  -3  -3  539.65   26.50
   7  -3  -3  482.15   28.00
  -7   3   3  528.95   24.60
   6  -3  -3  909.71   35.60
   6  -3  -3  933.91   33.40
   6  -3  -3  887.51   31.10
  -6   3   3  891.51   33.20
   5  -3  -3  390.96   17.40
   5  -3  -3  393.26   15.50
   5  -3  -3  378.06   19.10
  -5   3   3  384.96   17.50
   4  -3  -3  152.68   10.00
   4  -3  -3  155.78    8.30
   4  -3  -3  156.78   11.20
  -4   3   3  168.68   10.60
  -4   3   3  171.48   10.10
   3  -3  -3 2447.85   74.49
   3  -3  -3 2445.96   75.49
   3  -3  -3 2443.56   73.09
  -3   3   3 2554.24   73.49
  -3   3   3 2489.75   74.29
   2  -3  -3 3984.00  116.49
   2  -3  -3 3844.02  116.89
   2  -3  -3 3896.61  115.89
   2  -3  -3 3920.81  115.29
  -2   3   3 4052.29  115.69
  -2   3   3 3978.40  115.29
   1  -3  -3 2400.86   70.69
   1  -3  -3 2391.26   70.29
   1  -3  -3 2321.97   71.39
   1  -3  -3 2416.86   70.19
   1  -3  -3 2390.96   71.69
  -1   3   3 2392.86   70.19
  -1   3   3 2374.06   70.69
  -1   3   3 2390.16   70.49
   0  -3  -3  415.66   13.40
   0  -3  -3  406.36   15.30
   0  -3  -3  418.36   15.20
   0  -3  -3  426.76   13.50
   0   3   3  402.06   14.60
   0   3   3  411.56   15.00
  -1  -3  -3  162.28    7.00
  -1  -3  -3  156.58    8.50
  -1  -3  -3  171.08    9.20
   1   3   3  153.58    9.10
   1   3   3  168.88    6.70
  -2  -3  -3 1062.69   34.70
  -2  -3  -3 1086.79   33.30
  -2  -3  -3 1040.30   35.30
   2   3   3 1077.19   36.40
   2   3   3 1084.59   33.10
  -3  -3  -3 2029.40   61.59
  -3  -3  -3 1893.11   60.89
  -3  -3  -3 1949.01   59.39
   3   3   3 1928.61   63.99
  -4  -3  -3 1422.46   45.30
  -4  -3  -3 1422.46   47.70
  -4  -3  -3 1416.66   47.00
   4   3   3 1349.86   51.69
   4   3   3 1433.86   47.90
  -5  -3  -3  385.46   17.60
  -5  -3  -3  349.37   18.80
  -5  -3  -3  328.97   19.80
   5   3   3  326.07   21.70
   5   3   3  287.97   25.20
  -6  -3  -3   19.30    9.30
  -6  -3  -3   23.20    8.90
   6   3   3   26.70   12.90
   6   3   3   22.50   14.20
  -7  -3  -3  220.78   22.10
  -7  -3  -3  232.68   20.30
   7   3   3  222.88   23.10
   7   3   3  248.18   26.30
   7  -4  -3   65.69   12.80
   7  -4  -3   94.09   14.30
  -7   4   3  106.19   11.90
   6  -4  -3   34.70    9.70
   6  -4  -3   21.10    6.80
   6  -4  -3   24.20    8.70
  -6   4   3   45.00    8.60
   5  -4  -3 1038.70   36.00
   5  -4  -3 1046.70   38.10
   5  -4  -3 1070.19   34.70
  -5   4   3 1084.49   36.40
   4  -4  -3 2114.29   64.49
   4  -4  -3 2043.20   63.19
   4  -4  -3 2100.79   66.09
  -4   4   3 2115.59   64.39
   3  -4  -3 2136.89   66.99
   3  -4  -3 2148.39   64.79
   3  -4  -3 2196.38   65.89
  -3   4   3 2130.19   65.09
  -3   4   3 2185.88   64.99
   2  -4  -3  231.78   10.00
   2  -4  -3  235.88   10.70
   2  -4  -3  246.48   10.40
   2  -4  -3  246.08   11.90
  -2   4   3  203.08    9.30
  -2   4   3  221.88   10.00
   1  -4  -3  220.48    8.60
   1  -4  -3  214.58   10.90
   1  -4  -3  205.78    9.60
   1  -4  -3  205.28   10.00
   1  -4  -3  211.98    7.90
  -1   4   3  205.18    9.50
   0  -4  -3 2323.47   71.09
   0  -4  -3 2355.16   70.89
   0  -4  -3 2348.17   68.29
   0   4   3 2322.87   70.69
  -1  -4  -3 2493.25   76.59
  -1  -4  -3 2513.85   73.49
  -1  -4  -3 2506.75   76.69
  -1  -4  -3 2572.74   73.79
   1   4   3 2507.05   76.79
  -2  -4  -3 2212.38   66.49
  -2  -4  -3 2093.09   65.79
  -2  -4  -3 2087.39   63.19
   2   4   3 2119.49   66.89
   2   4   3 2115.39   62.79
  -3  -4  -3  246.48   12.40
  -3  -4  -3  255.67   14.90
  -3  -4  -3  254.17   14.00
   3   4   3  258.27   16.90
   3   4   3  247.18   14.60
  -4  -4  -3   68.79    8.20
  -4  -4  -3   80.89    9.80
  -4  -4  -3   81.59    9.90
   4   4   3   92.99   14.10
   4   4   3   89.99   11.30
  -5  -4  -3  589.34   24.80
  -5  -4  -3  608.44   27.80
  -5  -4  -3  606.64   26.30
   5   4   3  618.94   29.60
   5   4   3  546.15   32.70
  -6  -4  -3  413.36   24.10
   6   4   3  452.45   29.00
   6   4   3  360.76   32.30
   7  -5  -3  519.45   30.30
   7  -5  -3  487.75   26.40
  -7   5   3  506.35   25.50
   6  -5  -3  645.14   29.70
   6  -5  -3  687.33   27.30
  -6   5   3  677.93   27.80
   5  -5  -3  376.26   19.90
   5  -5  -3  399.06   17.30
   5  -5  -3  393.96   18.10
  -5   5   3  395.56   18.10
   4  -5  -3  147.49    9.80
   4  -5  -3  145.49   12.30
   4  -5  -3  134.89   10.50
  -4   5   3  125.39    9.80
   3  -5  -3   33.30    5.10
   3  -5  -3   31.00    6.70
   3  -5  -3   34.80    5.70
  -3   5   3   32.60    4.70
   2  -5  -3 1330.97   41.80
   2  -5  -3 1342.57   40.20
   2  -5  -3 1299.97   43.30
   2  -5  -3 1335.57   42.20
   2  -5  -3 1299.57   41.20
  -2   5   3 1336.67   40.20
   1  -5  -3 3255.27   98.29
   1  -5  -3 3347.47   98.19
   1  -5  -3 3216.68   98.99
  -1   5   3 3299.07   98.09
   0  -5  -3 2433.96   74.39
   0  -5  -3 2403.56   74.79
   0   5   3 2472.85   74.59
  -1  -5  -3  255.17   13.50
  -1  -5  -3  229.78   12.70
   1   5   3  228.68   13.40
  -2  -5  -3  247.78   14.30
  -2  -5  -3  264.37   15.20
   2   5   3  265.67   16.00
  -3  -5  -3 1069.59   39.80
  -3  -5  -3 1239.78   40.10
   3   5   3 1097.99   41.40
  -4  -5  -3  957.30   36.20
  -4  -5  -3  911.21   35.90
   4   5   3  961.20   39.80
  -5  -5  -3  358.26   21.80
  -5  -5  -3  323.77   22.30
   5   5   3  297.57   28.60
   5   5   3  336.37   24.60
  -6  -5  -3    6.10   13.10
  -6  -5  -3   13.30   12.30
   6   5   3   29.50   14.90
   6   5   3    5.70   18.90
   6  -6  -3   41.80   11.70
  -6   6   3   22.20   10.20
   5  -6  -3  174.38   14.80
   5  -6  -3  194.58   14.20
   5  -6  -3  164.58   15.40
  -5   6   3  151.78   13.60
   4  -6  -3  715.13   26.60
   4  -6  -3  759.72   29.30
   4  -6  -3  762.92   27.10
  -4   6   3  724.83   25.70
   3  -6  -3 1965.30   63.79
   3  -6  -3 2009.60   61.69
   3  -6  -3 2000.40   61.69
  -3   6   3 1970.80   59.89
   2  -6  -3 1257.07   43.90
   2  -6  -3 1282.37   39.50
   2  -6  -3 1335.17   42.50
   2  -6  -3 1339.17   42.60
  -2   6   3 1346.37   39.60
  -2   6   3 1313.57   42.50
   1  -6  -3   83.99   10.20
   1  -6  -3   86.89    9.20
   1  -6  -3   76.89    8.00
  -1   6   3   84.39    9.20
   0  -6  -3  582.34   22.90
   0  -6  -3  594.34   23.30
   0   6   3  578.54   23.20
  -1  -6  -3  930.21   33.50
  -1  -6  -3  967.30   33.90
   1   6   3  926.71   33.90
  -2  -6  -3 1023.00   38.90
  -2  -6  -3 1116.59   38.90
   2   6   3 1138.79   39.80
  -3  -6  -3  682.13   29.20
  -3  -6  -3  692.43   28.70
   3   6   3  675.13   30.70
  -4  -6  -3  178.08   17.30
  -4  -6  -3  170.38   17.30
   4   6   3  193.58   21.10
  -5  -6  -3   72.99   13.10
  -5  -6  -3   47.30   12.90
   5   6   3   62.09   15.30
   5   6   3   54.49   18.70
   5  -7  -3  758.92   32.50
   4  -7  -3  613.24   27.10
   4  -7  -3  652.23   25.70
   4  -7  -3  612.94   25.00
   3  -7  -3   40.10    8.10
   3  -7  -3   35.90    8.00
   3  -7  -3   52.69    8.20
   2  -7  -3  415.66   18.90
   2  -7  -3  414.56   19.20
   2  -7  -3  421.96   20.60
  -2   7   3  431.66   19.20
   1  -7  -3 1190.98   41.00
   1  -7  -3 1207.48   41.80
   1  -7  -3 1199.58   40.50
  -1   7   3 1196.78   41.20
   0  -7  -3 1217.68   41.60
   0  -7  -3 1199.68   42.00
   0   7   3 1203.78   42.10
  -1  -7  -3  705.03   28.90
  -1  -7  -3  695.73   28.50
   1   7   3  727.33   29.80
  -2  -7  -3  126.79   14.20
  -2  -7  -3  125.99   14.00
   2   7   3  136.09   16.90
  -3  -7  -3  156.98   19.10
  -3  -7  -3  161.38   16.40
   3   7   3  169.38   19.00
  -4  -7  -3  519.95   27.50
  -4  -7  -3  551.74   28.50
   4   7   3  567.34   32.20
   4  -8  -3  188.38   18.10
   3  -8  -3 1001.10   38.20
   3  -8  -3 1028.50   37.20
  -3   8   3  961.30   36.60
   2  -8  -3 1038.40   37.90
   2  -8  -3 1084.19   39.50
   2  -8  -3 1054.39   38.50
  -2   8   3 1041.60   38.30
   1  -8  -3  593.24   26.10
   1  -8  -3  619.44   26.60
   1  -8  -3  573.94   26.30
  -1   8   3  603.74   27.00
   0  -8  -3   22.30    8.40
   0  -8  -3   17.90   10.00
   0   8   3   22.70   10.40
  -1  -8  -3  200.98   16.40
  -1  -8  -3  213.48   20.50
   1   8   3  246.58   20.20
  -2  -8  -3  816.22   35.90
  -2  -8  -3  820.72   34.10
   2   8   3  842.82   35.80
   2  -9  -3    9.00   11.50
   2  -9  -3   -3.50   10.10
  -2   9   3    9.10   11.60
   1  -9  -3  237.18   19.40
  -1   9   3  245.48   22.00
   0  -9  -3  706.43   31.80
   0   9   3  715.83   33.30
   1  10  -4   73.79   12.40
  -1 -10   4   65.59   14.30
  -1 -10   4   61.19   12.80
   0 -10   4   97.59   13.40
   0 -10   4  103.79   14.30
   1 -10   4  660.13   30.20
   1 -10   4  635.94   29.70
   2 -10   4  778.92   33.90
   2 -10   4  808.82   33.50
   3 -10   4  517.85   27.20
   3 -10   4  521.75   27.50
   3   9  -4   86.89   12.30
   3   9  -4   72.59   14.20
  -3  -9   4   82.79   16.60
   2   9  -4  160.28   16.10
  -2  -9   4  169.68   20.80
  -2  -9   4  198.88   17.20
   1   9  -4 1135.19   40.70
  -1  -9   4 1035.70   40.30
  -1  -9   4 1111.99   41.20
   0  -9   4  962.50   36.50
   0  -9   4  957.00   36.30
   1  -9   4  458.45   23.30
   1  -9   4  510.15   23.30
   2  -9   4   76.29   11.20
   2  -9   4   86.19   10.70
   3  -9   4   73.89   10.70
   3  -9   4   91.69   11.50
   4  -9   4  697.53   30.10
   4  -9   4  694.53   30.90
   4   8  -4  131.29   14.00
   4   8  -4  160.48   18.00
   4   8  -4  183.48   21.70
  -4  -8   4  127.79   14.40
  -4  -8   4  152.38   19.30
   3   8  -4  670.93   30.50
   3   8  -4  645.74   26.40
   3   8  -4  638.14   27.60
  -3  -8   4  635.14   28.40
  -3  -8   4  642.04   32.10
  -3  -8   4  657.53   26.70
   2   8  -4 1196.18   37.30
   2   8  -4 1058.59   39.90
  -2  -8   4 1117.59   37.50
  -2  -8   4 1140.19   40.90
  -2  -8   4 1108.79   41.70
   1   8  -4  489.15   18.80
  -1  -8   4  454.75   22.30
  -1  -8   4  496.45   22.50
   0   8  -4   41.00    6.70
   0  -8   4   45.70    8.30
   0  -8   4   45.30    8.40
  -1   8  -4  244.08   14.10
   1  -8   4  275.17   14.80
   1  -8   4  257.27   16.10
  -2   8  -4  951.30   32.80
   2  -8   4  944.31   33.10
   2  -8   4  926.11   34.80
  -3   8  -4 1452.05   48.40
   3  -8   4 1446.16   49.80
   3  -8   4 1470.55   48.10
  -4   8  -4  521.65   25.10
   4  -8   4  580.04   26.00
   4  -8   4  587.44   24.70
  -5   8  -4   53.89   12.10
   5  -8   4   54.79   11.70
   5  -8   4   15.50   10.20
   5   7  -4  595.84   27.40
   5   7  -4  617.64   31.70
   5   7  -4  626.24   29.90
  -5  -7   4  596.64   29.60
   4   7  -4  619.44   27.60
   4   7  -4  637.14   30.10
   4   7  -4  675.13   27.40
   4   7  -4  657.53   25.30
  -4  -7   4  662.63   28.30
  -4  -7   4  608.44   25.50
  -4  -7   4  661.53   32.60
   3   7  -4  248.48   14.80
   3   7  -4  248.38   18.40
   3   7  -4  244.78   13.40
   3   7  -4  264.37   16.00
  -3  -7   4  258.97   15.40
  -3  -7   4  245.68   17.10
  -3  -7   4  253.87   19.80
   2   7  -4   13.00    5.30
   2   7  -4   22.50    6.70
  -2  -7   4   13.60    7.90
  -2  -7   4    5.80    6.80
   1   7  -4  253.47   11.00
   1   7  -4  234.48   11.70
  -1  -7   4  230.18   11.20
  -1  -7   4  234.28   14.50
  -1  -7   4  255.67   14.40
   0   7  -4 1343.37   42.50
   0   7  -4 1366.06   40.40
   0  -7   4 1380.06   43.90
   0  -7   4 1313.57   44.80
  -1   7  -4 2567.74   78.79
   1  -7   4 2638.94   80.89
   1  -7   4 2599.34   79.09
  -2   7  -4 1080.79   36.10
   2  -7   4 1067.99   35.70
   2  -7   4 1089.59   37.80
  -3   7  -4    2.20    6.20
   3  -7   4    5.10    5.50
   3  -7   4    1.80    6.30
  -4   7  -4  529.85   23.50
   4  -7   4  540.75   21.90
   4  -7   4  531.85   24.20
  -5   7  -4  539.45   25.60
   5  -7   4  644.54   27.70
   5  -7   4  555.54   25.10
  -6   7  -4  519.15   26.10
   6  -7   4  477.95   27.00
   6  -7   4  517.15   28.80
   6   6  -4  243.98   25.30
   6   6  -4  243.08   23.80
   6   6  -4  228.88   18.60
   6   6  -4  217.08   19.50
  -6  -6   4  233.18   20.50
  -6  -6   4  226.48   20.80
   5   6  -4  385.16   25.40
   5   6  -4  396.16   20.60
   5   6  -4  355.96   19.50
   5   6  -4  408.76   22.80
  -5  -6   4  368.76   22.30
  -5  -6   4  378.26   20.30
   4   6  -4   32.50   10.30
   4   6  -4   30.20    7.20
   4   6  -4   23.00    7.60
   4   6  -4   27.30    7.80
  -4  -6   4   24.90   12.00
  -4  -6   4   39.00    9.40
  -4  -6   4   30.20    7.10
   3   6  -4  431.56   19.30
   3   6  -4  460.45   22.30
   3   6  -4  424.86   18.10
   3   6  -4  421.66   17.50
  -3  -6   4  452.65   22.80
  -3  -6   4  446.56   18.60
  -3  -6   4  435.26   17.90
  -3  -6   4  426.56   19.50
   2   6  -4 2366.16   73.19
   2   6  -4 2430.56   73.19
   2   6  -4 2421.86   74.89
  -2  -6   4 2440.06   74.99
  -2  -6   4 2441.66   73.39
  -2  -6   4 2431.86   75.69
   1   6  -4 2223.28   63.89
   1   6  -4 2146.89   64.49
   1   6  -4 1979.70   64.79
  -1  -6   4 2143.39   66.19
  -1  -6   4 2154.88   65.89
   0   6  -4  967.40   29.20
   0   6  -4  974.00   30.00
   0   6  -4  944.71   31.10
   0  -6   4  970.00   31.70
   0  -6   4  943.91   32.60
  -1   6  -4   22.50    4.90
   1  -6   4   28.30    5.90
   1  -6   4   31.50    4.70
  -2   6  -4  785.22   27.50
   2  -6   4  779.82   26.30
   2  -6   4  784.22   28.50
  -3   6  -4 1463.45   47.50
   3  -6   4 1480.75   46.10
   3  -6   4 1447.86   48.50
  -4   6  -4 1037.40   36.80
   4  -6   4 1062.59   37.90
   4  -6   4 1040.10   34.90
  -5   6  -4  651.03   27.10
   5  -6   4  655.13   29.30
   5  -6   4  660.93   25.80
  -6   6  -4   15.90    9.30
   6  -6   4   20.80   10.50
   6  -6   4   35.30   12.00
  -7   6  -4  188.08   18.50
   7  -6   4  139.19   18.40
   7  -6   4  152.08   20.30
   6   5  -4    0.60   11.30
   6   5  -4   12.00    8.90
   6   5  -4    8.00   13.30
  -6  -5   4   -4.20    9.30
  -6  -5   4    6.10   10.40
   5   5  -4  336.97   20.40
   5   5  -4  308.97   21.60
   5   5  -4  316.87   17.80
  -5  -5   4  321.27   18.40
  -5  -5   4  333.67   19.30
   4   5  -4 1247.78   42.70
   4   5  -4 1270.17   41.80
   4   5  -4 1279.37   45.90
   4   5  -4 1265.07   42.40
  -4  -5   4 1285.07   42.80
  -4  -5   4 1269.47   41.90
   3   5  -4 1363.56   46.20
   3   5  -4 1313.87   43.30
   3   5  -4 1367.16   43.10
   3   5  -4 1333.17   43.80
  -3  -5   4 1359.56   43.00
  -3  -5   4 1331.57   43.50
  -3  -5   4 1367.46   46.50
   2   5  -4  593.14   22.90
   2   5  -4  561.34   21.50
   2   5  -4  569.54   20.50
   2   5  -4  594.74   20.60
  -2  -5   4  572.44   21.60
  -2  -5   4  620.84   23.20
  -2  -5   4  593.64   20.60
   1   5  -4    3.80    4.50
   1   5  -4    1.80    3.50
   1   5  -4    8.10    3.30
  -1  -5   4    7.10    4.10
  -1  -5   4    7.70    4.00
   0   5  -4  615.44   20.80
   0   5  -4  655.83   19.70
   0   5  -4  624.84   21.20
   0   5  -4  629.54   20.40
   0  -5   4  614.64   22.20
   0  -5   4  625.04   21.30
  -1   5  -4 2999.40   88.99
  -1   5  -4 2933.51   90.09
   1  -5   4 3038.30   91.09
   1  -5   4 3107.09   89.29
  -2   5  -4 2862.81   84.49
  -2   5  -4 2852.11   86.09
   2  -5   4 2857.11   84.59
   2  -5   4 2843.92   86.79
  -3   5  -4 1001.40   33.70
   3  -5   4  985.90   34.30
   3  -5   4  982.30   31.70
  -4   5  -4   27.40    6.70
   4  -5   4    6.10    6.60
   4  -5   4   17.40    5.40
  -5   5  -4  416.26   20.40
   5  -5   4  433.56   19.70
   5  -5   4  471.45   24.10
  -6   5  -4  717.93   31.00
   6  -5   4  796.22   35.80
   6  -5   4  789.52   32.20
  -7   5  -4  361.76   22.10
   7  -5   4  383.36   28.40
   7  -5   4  289.47   28.10
   7   4  -4  146.69   14.90
   7   4  -4  186.48   20.80
   7   4  -4  140.49   22.40
  -7  -4   4  188.48   21.00
  -7  -4   4  205.68   21.20
   6   4  -4  548.75   24.60
   6   4  -4  520.95   30.40
   6   4  -4  554.34   28.00
  -6  -4   4  524.05   25.40
  -6  -4   4  524.55   25.10
   5   4  -4  999.50   37.80
   5   4  -4  944.91   34.70
   5   4  -4  972.30   35.60
  -5  -4   4  936.11   34.60
  -5  -4   4  978.40   35.50
   4   4  -4  305.27   15.00
   4   4  -4  314.67   15.50
   4   4  -4  320.37   18.70
  -4  -4   4  303.47   15.90
  -4  -4   4  319.87   15.20
   3   4  -4   17.70    4.70
   3   4  -4   15.30    4.70
   3   4  -4   18.90    7.20
   3   4  -4   18.10    4.80
  -3  -4   4   18.80    5.20
  -3  -4   4   20.70    4.80
   2   4  -4 1527.25   47.40
   2   4  -4 1492.65   47.40
   2   4  -4 1511.05   49.00
   2   4  -4 1547.65   47.30
  -2  -4   4 1554.04   47.50
  -2  -4   4 1557.74   47.30
  -2  -4   4 1543.55   49.20
  -2  -4   4 1534.95   47.40
   1   4  -4 2645.74   77.59
   1   4  -4 2566.44   77.89
   1   4  -4 2658.53   78.49
   1   4  -4 2688.03   77.39
   1   4  -4 2599.34   77.69
  -1  -4   4 2623.24   78.19
  -1  -4   4 2507.65   78.29
   0   4  -4 3291.17   99.19
   0   4  -4 3372.56  100.29
   0   4  -4 3488.75   99.19
   0   4  -4 3386.86   98.99
   0  -4   4 3374.46  100.59
   0  -4   4 3427.66   99.59
  -1   4  -4 1099.09   33.00
  -1   4  -4 1105.39   32.60
  -1   4  -4 1058.39   34.60
  -1   4  -4 1083.19   32.60
   1  -4   4 1102.19   35.10
   1  -4   4 1124.79   32.70
   1  -4   4 1084.29   33.10
  -2   4  -4    7.00    2.90
  -2   4  -4    3.70    3.90
   2  -4   4    3.50    4.20
   2  -4   4    7.10    2.40
  -3   4  -4 1373.06   43.60
  -3   4  -4 1425.76   42.50
  -3   4  -4 1417.76   45.40
   3  -4   4 1463.15   43.30
   3  -4   4 1386.96   46.00
   3  -4   4 1417.46   42.20
  -4   4  -4 1630.84   50.29
  -4   4  -4 1632.94   53.19
   4  -4   4 1612.44   49.99
   4  -4   4 1655.73   51.49
   4  -4   4 1755.92   55.39
  -5   4  -4 1095.09   34.70
  -5   4  -4 1035.10   37.20
   5  -4   4 1000.90   40.40
   5  -4   4 1074.29   36.80
  -6   4  -4  315.97   16.80
  -6   4  -4  304.17   18.20
   6  -4   4  254.67   20.40
   6  -4   4  259.77   23.90
  -7   4  -4   -1.80    9.40
   7  -4   4  -11.90   14.10
   7  -4   4    0.10   12.90
   7   3  -4  266.97   19.80
   7   3  -4  244.58   21.00
   7   3  -4  241.78   25.80
  -7  -3   4  255.77   19.80
  -7  -3   4  246.58   20.80
   6   3  -4  143.79   14.40
   6   3  -4  172.78   20.40
   6   3  -4  137.99   14.00
  -6  -3   4  128.39   15.10
  -6  -3   4  128.69   14.40
   5   3  -4   -7.50    7.60
   5   3  -4   13.80    6.70
   5   3  -4   18.50    8.10
  -5  -3   4    0.50    6.50
  -5  -3   4    4.10    6.80
   4   3  -4  865.51   32.10
   4   3  -4  867.11   29.80
   4   3  -4  822.22   29.10
  -4  -3   4  847.52   29.50
  -4  -3   4  837.02   29.70
   3   3  -4 2791.32   83.89
   3   3  -4 2785.92   83.09
   3   3  -4 2727.23   85.69
  -3  -3   4 2826.72   83.79
  -3  -3   4 2773.62   83.89
   2   3  -4 3792.62  105.79
   2   3  -4 3238.08  105.49
   2   3  -4 3700.63  106.29
   2   3  -4 3529.45  107.59
   2   3  -4 3661.33  106.39
   2   3  -4 3677.63  106.79
  -2  -3   4 3412.56  105.59
  -2  -3   4 3729.13  106.49
   1   3  -4  665.23   21.80
   1   3  -4  661.93   21.00
   1   3  -4  588.84   21.10
   1   3  -4  669.23   21.60
   1   3  -4  665.73   22.20
   1   3  -4  669.73   21.40
  -1  -3   4  681.03   22.20
  -1  -3   4  662.53   21.40
   0   3  -4  313.67   10.20
   0   3  -4  302.37   11.80
   0   3  -4  305.97   10.80
   0   3  -4  332.87   11.20
   0   3  -4  317.57   11.00
   0   3  -4  306.97   11.80
   0  -3   4  322.97   11.00
   0  -3   4  271.97   11.50
   0  -3   4  328.67   11.00
  -1   3  -4 2810.22   83.99
  -1   3  -4 2883.11   85.59
   1  -3   4 2810.02   85.49
   1  -3   4 2994.80   84.09
  -2   3  -4 2494.75   71.99
  -2   3  -4 2479.65   71.89
  -2   3  -4 2388.56   73.79
   2  -3   4 2511.05   71.49
   2  -3   4 2325.07   73.89
   2  -3   4 2464.85   71.89
  -3   3  -4 2184.58   68.39
  -3   3  -4 2323.87   67.19
  -3   3  -4 2240.48   66.39
   3  -3   4 2182.08   66.19
   3  -3   4 2231.58   66.09
   3  -3   4 2195.78   69.49
  -4   3  -4  547.15   21.90
  -4   3  -4  564.34   20.00
   4  -3   4  557.04   20.90
   4  -3   4  583.64   25.00
  -5   3  -4    3.40    6.40
  -5   3  -4    0.70    5.40
   5  -3   4    4.20    9.60
   5  -3   4   -0.60    7.60
  -6   3  -4  550.44   21.90
  -6   3  -4  547.45   23.50
   6  -3   4  475.35   25.80
   6  -3   4  396.06   28.00
  -7   3  -4  519.65   25.00
  -7   3  -4  528.85   26.00
   7  -3   4  502.45   31.10
   7  -3   4  463.05   30.00
   7   2  -4   25.50   10.90
   7   2  -4   33.60   10.10
  -7  -2   4   21.90    9.70
  -7  -2   4   30.20    9.90
   6   2  -4  586.44   26.50
   6   2  -4  563.44   24.60
   6   2  -4  575.94   27.10
  -6  -2   4  577.14   24.70
  -6  -2   4  550.14   24.90
   5   2  -4 1707.03   53.49
   5   2  -4 1443.76   53.89
   5   2  -4 1683.93   55.09
  -5  -2   4 1661.63   53.09
  -5  -2   4 1686.73   53.39
   4   2  -4  963.80   33.00
   4   2  -4  979.30   33.10
   4   2  -4  942.41   34.40
   4   2  -4  969.20   31.20
  -4  -2   4  996.80   33.20
  -4  -2   4  993.20   32.90
   3   2  -4  253.27   13.10
   3   2  -4  268.97   12.10
   3   2  -4  266.67   10.70
   3   2  -4  268.17   10.40
  -3  -2   4  267.97   12.00
   2   2  -4  159.48    6.70
   2   2  -4  163.48    6.80
   2   2  -4  157.78    7.90
   2   2  -4  160.28    9.10
   2   2  -4  133.49   10.20
   2   2  -4  152.38    8.10
  -2  -2   4  164.38   10.90
  -2  -2   4  154.08    6.60
   1   2  -4 1433.66   41.60
   1   2  -4 1390.56   41.10
   1   2  -4 1358.26   40.60
   1   2  -4 1297.17   41.00
   1   2  -4 1336.57   41.20
   1   2  -4 1319.37   41.60
  -1  -2   4 1358.26   41.40
  -1  -2   4 1361.36   40.60
   0   2  -4 4729.03  143.99
   0   2  -4 5083.79  143.49
   0   2  -4 4896.61  143.49
   0  -2   4 4847.02  143.39
   0  -2   4 5061.69  143.49
  -1   2  -4 3653.13  104.39
  -1   2  -4 3552.84  105.39
  -1   2  -4 3520.35  105.39
   1  -2   4 3661.03  104.29
   1  -2   4 3454.45  105.09
  -2   2  -4 1243.68   38.80
  -2   2  -4 1229.48   39.90
   2  -2   4 1263.57   37.60
   2  -2   4 1302.07   38.70
   2  -2   4 1295.17   40.70
   2  -2   4 1296.77   38.00
  -3   2  -4   79.99    8.10
  -3   2  -4   85.99    7.60
  -3   2  -4   79.99    6.70
   3  -2   4   97.79    6.90
   3  -2   4   87.89    6.80
   3  -2   4   86.49    6.60
   3  -2   4  108.49   10.80
  -4   2  -4 1409.96   44.10
  -4   2  -4 1412.56   42.70
   4  -2   4 1233.08   43.80
   4  -2   4 1308.37   47.50
  -5   2  -4 1775.52   55.09
  -5   2  -4 1806.02   53.49
   5  -2   4 1529.75   58.99
   5  -2   4 1605.84   55.79
  -6   2  -4  597.54   26.50
  -6   2  -4  636.34   25.20
   6  -2   4  620.54   31.60
   6  -2   4  653.53   28.70
  -7   2  -4   64.79   12.00
  -7   2  -4   74.99   11.60
   7  -2   4   69.89   14.80
   7  -2   4   73.99   14.10
   7   1  -4  487.85   26.40
   7   1  -4  480.85   24.30
  -7  -1   4  468.95   23.80
   6   1  -4  711.73   27.60
   6   1  -4  671.13   27.40
   6   1  -4  687.63   29.70
  -6  -1   4  646.14   27.20
   5   1  -4  231.58   14.30
   5   1  -4  220.88   15.40
   5   1  -4  213.08   13.60
  -5  -1   4  213.68   13.50
   4   1  -4  387.86   16.40
   4   1  -4  377.26   17.70
   4   1  -4  416.96   17.30
   4   1  -4  378.66   14.00
  -4  -1   4  374.16   16.30
   3   1  -4 1731.53   53.99
   3   1  -4 1812.92   51.19
   3   1  -4 1646.64   52.99
   3   1  -4 1740.83   53.59
  -3  -1   4 1725.93   53.39
   2   1  -4 3472.55  102.79
   2   1  -4 3464.25  102.59
   2   1  -4 3429.36  102.79
  -2  -1   4 3487.25  102.79
  -2  -1   4 3525.25  105.09
   1   1  -4 2940.51   84.89
   1   1  -4 2991.50   85.39
   1   1  -4 2872.71   86.29
   1   1  -4 2996.40   86.29
  -1  -1   4 2976.30   86.29
  -1  -1   4 3000.50   84.69
  -1  -1   4 2629.84   86.79
  -1  -1   4 2934.11   86.39
   0   1  -4 1235.38   38.40
   0   1  -4 1277.07   38.20
   0   1  -4 1159.78   38.10
   0   1  -4 1315.87   38.20
   0  -1   4 1260.97   37.50
   0  -1   4 1282.57   38.10
   0  -1   4 1214.88   38.30
  -1   1  -4  749.53   23.70
  -1   1  -4  742.83   25.80
  -1   1  -4  714.83   24.00
   1  -1   4  761.22   24.30
   1  -1   4  742.93   23.60
  -2   1  -4 2171.38   63.59
  -2   1  -4 2167.68   64.19
   2  -1   4 2130.29   65.79
   2  -1   4 2159.68   62.19
   2  -1   4 2121.99   63.39
   2  -1   4 1955.20   63.29
  -3   1  -4 2832.52   82.79
  -3   1  -4 2769.92   81.99
   3  -1   4 2558.34   85.39
   3  -1   4 2840.12   81.29
   3  -1   4 2664.93   82.59
  -4   1  -4 1385.46   43.90
  -4   1  -4 1333.07   44.50
   4  -1   4 1296.77   48.40
   4  -1   4 1463.15   45.50
  -5   1  -4  397.36   18.80
  -5   1  -4  435.56   20.00
   5  -1   4  461.65   25.00
   5  -1   4  456.55   22.00
  -6   1  -4   67.69    9.50
  -6   1  -4   42.90   10.00
   6  -1   4   58.79   10.90
   6  -1   4   66.59   13.30
  -7   1  -4  306.67   21.00
  -7   1  -4  305.47   20.20
   7  -1   4  353.26   24.70
   7  -1   4  353.46   24.40
   8   0  -4  243.88   24.00
   8   0  -4  285.27   22.30
  -8   0   4  257.17   21.90
   7   0  -4   56.89   11.80
   7   0  -4   35.60    9.80
  -7   0   4   32.20    9.00
   6   0  -4  170.28   13.60
   6   0  -4  158.78   14.30
   6   0  -4  180.88   16.70
  -6   0   4  174.18   13.80
   5   0  -4 1253.07   41.20
   5   0  -4 1310.47   43.10
   5   0  -4 1315.97   44.80
  -5   0   4 1298.07   43.00
   4   0  -4 1440.66   47.10
   4   0  -4 1485.65   44.40
   4   0  -4 1457.45   48.00
   4   0  -4 1526.75   45.00
  -4   0   4 1462.75   47.00
  -4   0   4 1501.25   44.50
   3   0  -4 1913.01   57.39
   3   0  -4 1819.12   57.29
  -3   0   4 1858.71   57.09
   2   0  -4  800.82   25.70
   2   0  -4  702.83   25.10
  -2   0   4  867.11   26.40
  -2   0   4  778.12   25.50
   1   0  -4  167.28    7.80
   1   0  -4  159.38    7.60
   1   0  -4  169.58    7.00
  -1   0   4  167.68    7.70
  -1   0   4  187.98    7.50
   0   0  -4 4881.01  167.28
   0   0  -4 5813.92  165.88
   0   0  -4 5672.33  167.18
   0   0  -4 6026.80  167.18
   0   0  -4 5933.71  166.98
   0   0   4 5979.70  167.08
   0   0   4 5944.91  167.18
   0   0   4 5506.45  166.48
   0   0   4 5851.91  165.98
  -1   0  -4 5401.06  152.28
  -1   0  -4 5705.43  153.78
  -1   0  -4 5360.16  153.68
   1   0   4 5595.64  153.58
   1   0   4 5584.34  152.18
   1   0   4 4347.37  153.28
   1   0   4 4783.52  154.48
  -2   0  -4 1488.05   45.30
  -2   0  -4 1475.15   44.60
  -2   0  -4 1466.55   45.20
   2   0   4 1505.15   43.90
   2   0   4 1483.75   44.50
   2   0   4 1347.37   47.50
  -3   0  -4   33.40    5.40
  -3   0  -4   25.30    4.90
   3   0   4   30.00    7.60
   3   0   4   31.70    4.30
   3   0   4   34.60    5.50
  -4   0  -4   86.99    9.50
  -4   0  -4   88.89    9.20
   4   0   4   83.09   11.10
   4   0   4  101.89   10.60
  -5   0  -4  547.05   23.00
  -5   0  -4  520.15   23.60
   5   0   4  623.04   24.50
   5   0   4  588.54   27.60
  -6   0  -4  782.12   31.90
  -6   0  -4  762.92   30.60
   6   0   4  860.51   35.30
   6   0   4  804.62   32.50
  -7   0  -4  418.46   23.00
  -7   0  -4  452.45   24.50
   7   0   4  501.25   27.90
   7   0   4  417.56   26.30
   8  -1  -4   73.89   13.80
   8  -1  -4   72.99   14.90
  -8   1   4   60.19   12.80
   7  -1  -4  432.76   25.20
   7  -1  -4  441.96   23.40
  -7   1   4  437.46   22.30
   6  -1  -4  766.92   30.30
   6  -1  -4  784.32   32.30
   6  -1  -4  779.02   29.50
  -6   1   4  774.62   30.00
   5  -1  -4  829.42   30.80
   5  -1  -4  876.01   32.50
   5  -1  -4  887.71   28.00
  -5   1   4  870.71   30.90
   4  -1  -4  163.08   11.10
   4  -1  -4  139.69   10.00
   4  -1  -4  152.88    6.60
  -4   1   4  154.48    9.90
   3  -1  -4  305.07   13.10
   3  -1  -4  293.47   13.00
  -3   1   4  309.87   12.80
   2  -1  -4 3807.42  112.29
   2  -1  -4 3781.42  111.99
  -2   1   4 3812.62  111.99
   1  -1  -4 3869.11  113.79
   1  -1  -4 3767.82  114.19
   1  -1  -4 3825.52  113.59
   1  -1  -4 3880.41  113.79
  -1   1   4 4009.00  113.79
  -1   1   4 3910.11  113.79
   0  -1  -4 2092.89   66.29
   0  -1  -4 2313.27   66.09
   0  -1  -4 2210.48   66.99
   0  -1  -4 2209.78   66.29
   0  -1  -4 2294.17   65.99
   0   1   4 2271.47   66.09
   0   1   4 2239.88   66.29
  -1  -1  -4  234.98   11.20
  -1  -1  -4  215.48    9.90
  -1  -1  -4  211.18    8.50
  -1  -1  -4  218.18    9.20
   1   1   4  215.58   13.20
   1   1   4  209.78    8.40
   1   1   4  215.68    9.10
  -2  -1  -4  100.09    7.70
  -2  -1  -4  101.19    6.90
  -2  -1  -4   96.29    6.70
   2   1   4   95.89    6.40
   2   1   4  121.09   11.60
  -3  -1  -4 2408.86   73.59
  -3  -1  -4 2412.56   73.99
  -3  -1  -4 2466.45   74.39
   3   1   4 2492.55   78.69
   3   1   4 2361.16   73.89
  -4  -1  -4 2171.38   68.29
  -4  -1  -4 2170.08   68.69
  -4  -1  -4 2140.09   67.69
   4   1   4 2126.29   68.49
   4   1   4 2328.57   72.99
  -5  -1  -4  816.92   30.50
  -5  -1  -4  824.42   30.30
   5   1   4  834.42   34.70
   5   1   4  790.82   31.80
  -6  -1  -4    7.10    7.70
  -6  -1  -4   12.40    9.20
   6   1   4   18.90   10.00
   6   1   4    3.20    9.70
  -7  -1  -4   64.79   13.40
  -7  -1  -4   55.49   10.50
   7   1   4   34.50   13.00
   7   1   4   45.30   12.50
   7  -2  -4  260.87   20.10
   7  -2  -4  233.18   19.90
  -7   2   4  237.78   17.40
   6  -2  -4   10.00    8.10
   6  -2  -4   29.30    9.10
  -6   2   4   14.30    7.20
   5  -2  -4  337.27   16.90
   5  -2  -4  340.37   17.80
   5  -2  -4  342.07   13.20
  -5   2   4  350.66   16.40
   4  -2  -4 1329.67   43.10
   4  -2  -4 1334.57   39.90
   4  -2  -4 1334.07   43.70
  -4   2   4 1341.27   42.90
   3  -2  -4 2849.31   85.99
   3  -2  -4 2817.02   85.69
  -3   2   4 2878.11   85.39
   2  -2  -4 1668.93   51.39
   2  -2  -4 1685.43   51.29
   2  -2  -4 1634.74   50.69
  -2   2   4 1674.63   50.69
   1  -2  -4  115.89    6.70
   1  -2  -4  105.59    7.20
   1  -2  -4  115.69    6.60
   1  -2  -4  116.89    6.40
  -1   2   4  116.39    5.20
  -1   2   4  114.79    6.40
  -1   2   4  128.99    6.20
   0  -2  -4  659.43   22.70
   0  -2  -4  655.13   21.30
   0  -2  -4  651.33   21.90
   0  -2  -4  685.33   21.50
   0   2   4  708.23   22.80
   0   2   4  647.74   22.00
   0   2   4  673.43   21.40
  -1  -2  -4 1990.20   56.69
  -1  -2  -4 1830.62   56.09
  -1  -2  -4 1964.50   57.69
   1   2   4 1952.10   59.19
   1   2   4 1648.04   56.79
   1   2   4 1994.10   56.19
   1   2   4 1736.13   56.39
  -2  -2  -4 3387.46   98.39
  -2  -2  -4 3310.57   97.39
  -2  -2  -4 3418.26   96.99
   2   2   4 2953.00  100.79
  -3  -2  -4 1707.23   53.29
  -3  -2  -4 1734.43   53.79
  -3  -2  -4 1765.82   52.49
   3   2   4 1530.05   57.79
  -4  -2  -4   33.20    6.40
  -4  -2  -4   38.80    7.60
  -4  -2  -4   35.20    7.80
   4   2   4   28.60    7.50
   4   2   4   38.20   11.40
  -5  -2  -4  344.37   17.90
  -5  -2  -4  324.57   18.30
   5   2   4  349.87   25.00
   5   2   4  338.87   20.90
  -6  -2  -4  454.05   24.10
  -6  -2  -4  466.95   23.30
   6   2   4  503.05   28.90
   6   2   4  487.25   28.00
  -7  -2  -4  302.57   20.60
  -7  -2  -4  239.78   23.50
   7   2   4  295.47   26.80
   7   2   4  273.77   26.40
   7  -3  -4  269.17   20.90
   7  -3  -4  285.47   21.60
  -7   3   4  253.47   17.70
   6  -3  -4  747.43   30.50
   6  -3  -4  712.63   29.40
  -6   3   4  685.03   28.00
   5  -3  -4  961.30   34.60
   5  -3  -4  967.40   33.60
   5  -3  -4  887.01   29.90
  -5   3   4  956.80   33.00
   4  -3  -4  890.91   31.60
   4  -3  -4  902.71   30.80
   4  -3  -4  897.61   27.70
  -4   3   4  869.61   30.10
   3  -3  -4  287.77   10.40
   3  -3  -4  280.17   13.70
   3  -3  -4  299.97   13.40
  -3   3   4  282.27   11.10
  -3   3   4  279.27   12.30
   2  -3  -4 1509.75   47.40
   2  -3  -4 1499.25   47.30
   2  -3  -4 1476.95   46.00
   2  -3  -4 1549.54   45.30
  -2   3   4 1473.35   46.00
  -2   3   4 1514.65   45.10
  -2   3   4 1524.55   45.20
   1  -3  -4 4115.99  119.69
   1  -3  -4 4115.79  120.89
   1  -3  -4 3796.02  119.39
   1  -3  -4 4103.89  120.99
  -1   3   4 4125.39  119.39
  -1   3   4 4256.27  119.89
   0  -3  -4 2715.93   77.69
   0  -3  -4 2623.54   79.49
   0  -3  -4 2625.24   79.19
   0  -3  -4 2563.74   77.59
   0   3   4 2705.63   79.19
   0   3   4 2574.64   78.29
  -1  -3  -4  318.47   11.80
  -1  -3  -4  355.06   12.20
  -1  -3  -4  331.07   14.50
  -1  -3  -4  330.07   13.50
   1   3   4  339.27   15.00
   1   3   4  313.87   12.00
  -2  -3  -4  108.19    8.60
  -2  -3  -4  117.79    8.30
  -2  -3  -4  130.49   10.10
   2   3   4  110.29    7.90
   2   3   4  129.69   13.00
  -3  -3  -4  147.99   10.30
  -3  -3  -4  171.28   12.20
  -3  -3  -4  167.68   11.50
   3   3   4  148.09   17.40
  -4  -3  -4  834.82   30.70
  -4  -3  -4  808.22   28.30
  -4  -3  -4  799.42   30.10
   4   3   4  675.53   35.80
   4   3   4  782.02   30.80
  -5  -3  -4 1148.79   39.50
  -5  -3  -4 1109.09   40.70
  -5  -3  -4 1184.38   42.70
   5   3   4 1054.29   47.40
   5   3   4 1171.48   43.80
  -6  -3  -4  326.77   20.40
  -6  -3  -4  326.07   22.20
   6   3   4  409.66   28.20
   6   3   4  328.77   28.70
   7  -4  -4  289.17   23.60
   7  -4  -4  293.77   22.90
  -7   4   4  299.77   19.50
   6  -4  -4  394.76   22.10
   6  -4  -4  405.36   21.60
  -6   4   4  376.26   19.60
   5  -4  -4   39.20    8.10
   5  -4  -4   39.80    8.10
  -5   4   4   31.90    7.30
   4  -4  -4  499.75   17.90
   4  -4  -4  505.85   20.70
   4  -4  -4  505.75   21.40
  -4   4   4  502.15   19.50
   3  -4  -4 2727.23   79.39
   3  -4  -4 2371.36   76.99
   3  -4  -4 2685.83   80.29
  -3   4   4 2623.74   78.09
   2  -4  -4 2248.08   66.89
   2  -4  -4 2213.68   66.69
   2  -4  -4 2230.48   68.29
   2  -4  -4 2191.48   68.69
  -2   4   4 2216.38   66.59
  -2   4   4 2230.08   66.89
  -2   4   4 2271.57   66.69
   1  -4  -4  690.43   24.50
   1  -4  -4  691.93   22.50
   1  -4  -4  698.33   22.10
   1  -4  -4  682.73   24.40
  -1   4   4  691.93   23.50
   0  -4  -4    9.30    2.80
   0  -4  -4    8.20    4.50
   0  -4  -4    5.30    4.60
   0  -4  -4    4.60    3.10
   0   4   4    9.80    4.70
  -1  -4  -4  397.36   14.00
  -1  -4  -4  420.96   14.40
  -1  -4  -4  411.26   17.80
  -1  -4  -4  414.86   17.00
   1   4   4  420.86   18.20
  -2  -4  -4 1791.12   57.99
  -2  -4  -4 1792.92   57.29
  -2  -4  -4 1835.32   54.89
   2   4   4 1837.72   59.49
  -3  -4  -4 1669.13   52.69
  -3  -4  -4 1616.34   50.29
  -3  -4  -4 1473.65   52.79
   3   4   4 1694.53   57.09
  -4  -4  -4  389.16   19.10
  -4  -4  -4  423.86   21.00
  -4  -4  -4  431.56   21.10
   4   4   4  415.26   29.10
  -5  -4  -4   15.90   10.20
  -5  -4  -4    6.30    9.00
   5   4   4   -7.30   15.20
   5   4   4  -12.70   11.90
  -6  -4  -4  116.39   16.30
  -6  -4  -4  121.59   15.20
   6   4   4  133.19   18.80
   6   4   4  156.58   22.40
   6  -5  -4  313.17   20.50
   6  -5  -4  312.77   21.10
  -6   5   4  297.47   19.30
   5  -5  -4 1033.70   36.30
   5  -5  -4 1024.10   37.60
  -5   5   4  979.70   35.30
   4  -5  -4  817.82   29.50
   4  -5  -4  794.82   27.10
   4  -5  -4  795.52   30.70
  -4   5   4  806.02   28.00
   3  -5  -4  422.66   18.90
   3  -5  -4  417.76   16.50
   3  -5  -4  433.36   18.50
  -3   5   4  418.16   16.30
   2  -5  -4   21.00    5.00
   2  -5  -4   12.60    5.90
   2  -5  -4   22.60    5.70
   2  -5  -4   15.90    4.20
  -2   5   4   24.70    5.60
  -2   5   4   25.10    4.20
   1  -5  -4  242.08   13.20
   1  -5  -4  241.28   13.30
   1  -5  -4  230.58    9.10
  -1   5   4  237.38   12.40
   0  -5  -4 2499.65   76.09
   0  -5  -4 2450.65   75.89
   0   5   4 2425.86   75.49
  -1  -5  -4 2721.33   82.89
  -1  -5  -4 2685.93   82.59
   1   5   4 2635.54   82.99
  -2  -5  -4  674.43   25.70
  -2  -5  -4  606.64   26.40
   2   5   4  665.83   27.70
  -3  -5  -4  126.79   12.90
  -3  -5  -4  125.09   12.80
   3   5   4  144.49   18.40
  -4  -5  -4  338.07   20.60
  -4  -5  -4  338.87   20.80
   4   5   4  370.56   27.00
  -5  -5  -4  351.06   24.40
  -5  -5  -4  325.57   22.70
   5   5   4  372.76   27.40
   5   5   4  361.16   32.60
   6  -6  -4  577.44   29.20
   6  -6  -4  580.24   30.90
  -6   6   4  554.14   26.30
   5  -6  -4  322.77   19.60
   5  -6  -4  317.87   19.60
  -5   6   4  282.07   17.60
   4  -6  -4   25.20    8.10
   4  -6  -4   34.20    7.90
  -4   6   4   24.80    6.30
   3  -6  -4  989.90   36.10
   3  -6  -4 1022.80   33.70
   3  -6  -4 1006.90   34.80
  -3   6   4  957.60   33.60
   2  -6  -4 1341.37   44.40
   2  -6  -4 1401.16   43.70
   2  -6  -4 1313.17   45.30
  -2   6   4 1299.37   43.40
   1  -6  -4  891.21   32.10
   1  -6  -4  912.11   32.90
  -1   6   4  907.21   31.70
   0  -6  -4  437.36   20.20
   0  -6  -4  388.06   19.20
   0   6   4  451.35   19.70
  -1  -6  -4   10.70    7.90
  -1  -6  -4   10.00    7.00
   1   6   4    4.10    8.10
  -2  -6  -4  391.76   21.00
  -2  -6  -4  402.16   19.80
   2   6   4  330.97   22.30
  -3  -6  -4  893.51   35.70
  -3  -6  -4  950.40   35.20
   3   6   4  894.21   38.80
  -4  -6  -4  557.54   28.90
  -4  -6  -4  637.64   29.00
   4   6   4  623.34   34.80
   5  -7  -4  435.36   24.70
   4  -7  -4  960.70   36.30
   4  -7  -4  888.81   34.70
   3  -7  -4  885.21   33.30
   3  -7  -4  808.22   31.70
   2  -7  -4  162.98   14.30
   2  -7  -4  181.28   14.50
   2  -7  -4  173.68   14.70
  -2   7   4  164.78   14.40
   1  -7  -4    2.60    8.40
   1  -7  -4    4.90    7.20
  -1   7   4   22.20    8.30
   0  -7  -4  623.44   26.10
   0  -7  -4  617.64   27.60
   0   7   4  629.04   27.20
  -1  -7  -4 1090.19   39.10
  -1  -7  -4 1060.39   40.30
   1   7   4 1025.30   40.20
  -2  -7  -4  735.43   31.10
  -2  -7  -4  748.83   32.90
   2   7   4  760.72   34.40
  -3  -7  -4  119.29   13.30
  -3  -7  -4   89.59   14.20
   3   7   4  121.59   16.70
   3  -8  -4   -1.30    9.30
   2  -8  -4  578.74   26.70
   2  -8  -4  580.94   26.90
   2  -8  -4  549.15   26.70
  -2   8   4  565.14   26.80
   1  -8  -4 1443.36   49.99
   1  -8  -4 1429.66   49.99
  -1   8   4 1381.26   49.70
   0  -8  -4  752.72   31.40
   0  -8  -4  770.02   33.40
   0   8   4  759.92   33.00
  -1  -8  -4   86.29   11.50
  -1  -8  -4   60.29   14.20
   1   8   4   55.39   14.20
   1  10  -5  568.74   27.30
  -1 -10   5  566.54   28.40
  -1 -10   5  464.25   29.40
   0 -10   5  329.27   23.90
   0 -10   5  345.77   22.40
   1 -10   5    5.50   11.80
   1 -10   5    7.20   10.20
   2 -10   5  406.66   24.60
   3   9  -5  514.85   31.10
   3   9  -5  458.85   26.10
  -3  -9   5  503.95   26.90
  -3  -9   5  550.24   33.10
   2   9  -5  321.87   20.00
  -2  -9   5  282.17   24.20
  -2  -9   5  311.87   20.60
   1   9  -5    4.60    8.60
  -1  -9   5   21.50    8.80
  -1  -9   5    8.90   10.60
   0  -9   5  544.05   24.50
   0  -9   5  463.15   23.80
   1  -9   5 1215.08   43.70
   1  -9   5 1172.88   41.80
   2  -9   5  661.23   27.50
   2  -9   5  660.03   29.20
  -3   9  -5  149.19   14.40
   3  -9   5  168.88   17.60
  -4   9  -5    3.70   12.10
   4  -9   5   -0.10   10.00
   4   8  -5  146.99   17.60
   4   8  -5  101.89   13.80
   4   8  -5  102.89   12.70
  -4  -8   5  144.09   19.80
  -4  -8   5   91.69   13.30
   3   8  -5   54.29   10.40
   3   8  -5   72.19   14.20
   3   8  -5   63.59   10.40
  -3  -8   5   66.59   15.40
  -3  -8   5   61.49   11.80
  -3  -8   5   64.09   10.20
   2   8  -5  608.24   23.30
   2   8  -5  620.04   28.00
   2   8  -5  585.84   25.40
  -2  -8   5  606.34   27.90
  -2  -8   5  561.44   26.00
   1   8  -5  780.12   27.90
  -1  -8   5  797.22   30.60
  -1  -8   5  781.12   30.70
   0   8  -5  730.63   26.10
   0  -8   5  725.23   28.80
   0  -8   5  692.23   27.20
  -1   8  -5  436.06   19.10
   1  -8   5  444.86   21.00
   1  -8   5  411.06   18.80
  -2   8  -5   -2.10    7.50
   2  -8   5   -6.80    7.20
   2  -8   5    3.90    6.50
  -3   8  -5  547.35   25.00
   3  -8   5  562.04   23.40
   3  -8   5  602.84   26.10
  -4   8  -5 1089.59   40.90
   4  -8   5 1107.49   41.80
  -5   8  -5  574.54   28.10
   5  -8   5  577.04   30.00
   5   7  -5   27.40   12.40
   5   7  -5    6.60   10.20
   5   7  -5   34.80   11.00
   5   7  -5    9.30   13.20
  -5  -7   5   -7.40   10.60
  -5  -7   5   10.80   11.80
   4   7  -5  641.24   31.90
   4   7  -5  652.33   29.00
   4   7  -5  659.93   27.70
   4   7  -5  643.04   26.60
  -4  -7   5  703.63   28.60
   3   7  -5  930.61   40.30
   3   7  -5 1100.19   37.20
   3   7  -5 1117.69   38.70
   3   7  -5 1124.19   36.90
  -3  -7   5 1063.79   41.80
  -3  -7   5 1112.79   39.20
  -3  -7   5 1087.99   37.20
   2   7  -5  648.14   23.30
   2   7  -5  632.94   23.80
   2   7  -5  669.13   25.90
   2   7  -5  652.93   27.30
  -2  -7   5  667.73   27.50
  -2  -7   5  606.44   25.80
   1   7  -5   63.39    6.80
   1   7  -5   58.19    5.80
  -1  -7   5   55.29    8.40
  -1  -7   5   78.19    8.60
   0   7  -5    9.30    3.90
   0   7  -5    9.10    5.10
   0  -7   5   13.30    6.20
   0  -7   5   12.50    6.70
  -1   7  -5  680.13   24.80
   1  -7   5  701.03   26.80
   1  -7   5  662.23   24.40
  -2   7  -5 1651.93   52.39
   2  -7   5 1637.14   53.69
   2  -7   5 1585.44   50.89
  -3   7  -5 1418.56   47.00
   3  -7   5 1401.86   48.20
   3  -7   5 1395.96   45.10
  -4   7  -5  133.99   14.50
   4  -7   5  125.39   14.50
   4  -7   5  135.29   12.50
  -5   7  -5   66.69   10.30
   5  -7   5   57.69   12.30
  -6   7  -5  318.97   22.00
   6  -7   5  289.77   26.60
   6   6  -5  130.59   14.50
   6   6  -5  161.68   19.40
   6   6  -5  136.09   17.80
   6   6  -5  130.59   14.30
  -6  -6   5  110.89   14.70
  -6  -6   5  144.19   16.10
   5   6  -5  475.45   22.40
   5   6  -5  430.86   22.10
   5   6  -5  408.36   26.80
   5   6  -5  469.25   25.10
  -5  -6   5  409.16   23.40
  -5  -6   5  435.26   23.20
   4   6  -5  656.53   25.70
   4   6  -5  627.74   26.00
   4   6  -5  671.43   27.00
   4   6  -5  616.14   30.40
  -4  -6   5  658.03   27.00
  -4  -6   5  661.53   26.10
   3   6  -5  392.86   21.60
   3   6  -5  390.46   17.20
   3   6  -5  393.86   18.30
   3   6  -5  372.46   17.50
  -3  -6   5  389.66   17.80
  -3  -6   5  393.96   18.40
  -3  -6   5  378.46   22.00
   2   6  -5   73.69    7.20
   2   6  -5   73.99    9.10
   2   6  -5   77.29    9.60
   2   6  -5   67.69    7.10
  -2  -6   5   67.59    8.10
  -2  -6   5   86.69    9.80
   1   6  -5 1840.52   58.39
   1   6  -5 1921.91   57.29
  -1  -6   5 1886.81   59.49
  -1  -6   5 1931.41   59.59
   0   6  -5 3044.80   91.09
   0   6  -5 3084.49   92.39
   0   6  -5 3120.09   90.19
   0  -6   5 3064.39   92.09
   0  -6   5 3069.19   93.39
  -1   6  -5 1092.29   35.40
   1  -6   5 1066.99   36.40
   1  -6   5 1053.99   34.10
  -2   6  -5    8.00    5.50
   2  -6   5   14.00    4.50
   2  -6   5   15.70    6.50
  -3   6  -5  108.59   11.60
   3  -6   5  106.69    9.20
   3  -6   5  113.19   12.10
  -4   6  -5  348.17   18.00
   4  -6   5  356.06   19.70
   4  -6   5  376.56   16.40
  -5   6  -5  718.93   29.90
   5  -6   5  732.73   28.00
   5  -6   5  783.62   33.00
  -6   6  -5  631.24   28.70
   6  -6   5  687.13   34.90
   6   5  -5  268.67   18.50
   6   5  -5  234.28   18.40
   6   5  -5  242.58   22.60
   6   5  -5  284.67   26.60
  -6  -5   5  262.37   19.60
  -6  -5   5  238.38   21.40
   5   5  -5   24.70   10.50
   5   5  -5   12.80    7.50
   5   5  -5   19.10    7.80
   5   5  -5   21.50   10.00
  -5  -5   5    3.90    8.40
  -5  -5   5   15.20    9.20
   4   5  -5  321.57   20.90
   4   5  -5  322.77   16.60
   4   5  -5  329.97   17.20
   4   5  -5  337.67   17.00
  -4  -5   5  351.96   18.20
  -4  -5   5  345.97   17.20
   3   5  -5  575.94   21.60
   3   5  -5  554.54   21.60
   3   5  -5  609.44   25.10
   3   5  -5  555.44   21.60
  -3  -5   5  569.14   21.80
  -3  -5   5  532.55   21.30
   2   5  -5 1247.78   42.40
   2   5  -5 1276.27   41.00
   2   5  -5 1257.87   40.20
   2   5  -5 1266.67   40.80
  -2  -5   5 1297.37   42.80
  -2  -5   5 1269.97   40.90
   1   5  -5 1590.74   48.10
   1   5  -5 1513.65   49.00
   1   5  -5 1573.94   49.60
  -1  -5   5 1555.54   49.30
  -1  -5   5 1636.84   49.90
   0   5  -5  836.42   26.90
   0   5  -5  843.72   28.60
   0   5  -5  873.01   26.80
   0   5  -5  857.31   27.40
   0  -5   5  872.51   27.70
   0  -5   5  872.01   29.10
  -1   5  -5  321.37   11.50
  -1   5  -5  314.87   10.90
  -1   5  -5  325.17   14.20
  -1   5  -5  308.47   11.70
   1  -5   5  335.47   14.60
   1  -5   5  325.27   11.80
  -2   5  -5 1881.51   54.99
  -2   5  -5 1851.91   57.69
   2  -5   5 1770.62   57.99
   2  -5   5 1862.31   54.99
  -3   5  -5 2384.46   72.39
  -3   5  -5 2440.76   70.89
   3  -5   5 2093.99   69.09
   3  -5   5 2386.46   73.09
  -4   5  -5  852.91   30.80
   4  -5   5  798.02   32.00
   4  -5   5  826.32   27.90
  -5   5  -5   83.79   10.40
   5  -5   5   99.59   13.40
   5  -5   5   89.09    9.70
  -6   5  -5  145.69   15.90
   6  -5   5  123.39   17.10
   7  -5   5  121.89   21.10
   7   4  -5   32.10   11.40
   7   4  -5   49.60   13.00
  -7  -4   5   19.10   12.50
   6   4  -5   66.29   15.90
   6   4  -5   65.29   10.40
   6   4  -5   75.19   12.30
  -6  -4   5   86.99   11.90
  -6  -4   5   84.19   11.80
   5   4  -5  918.31   33.90
   5   4  -5  869.11   33.30
   5   4  -5  910.81   36.00
  -5  -4   5  916.91   34.40
  -5  -4   5  902.71   33.90
   4   4  -5 1247.58   41.30
   4   4  -5 1220.18   43.90
   4   4  -5 1239.88   41.40
   4   4  -5 1245.48   40.80
  -4  -4   5 1246.78   41.50
   3   4  -5  587.94   22.30
   3   4  -5  629.14   25.20
   3   4  -5  608.04   21.70
   3   4  -5  606.14   22.30
  -3  -4   5  589.94   22.40
   2   4  -5  117.49   10.50
   2   4  -5  115.79    8.60
   2   4  -5  127.19    7.80
   2   4  -5  123.19    8.10
  -2  -4   5  115.99    7.60
   1   4  -5  168.58    8.30
   1   4  -5  168.68    8.20
   1   4  -5  180.48    9.50
   1   4  -5  172.98    9.90
  -1  -4   5  176.98    9.80
  -1  -4   5  164.68    8.60
   0   4  -5 2310.57   71.39
   0   4  -5 2331.07   70.19
   0   4  -5 2401.16   70.29
   0   4  -5 2415.46   69.29
   0   4  -5 2365.66   69.99
   0  -4   5 2340.37   70.09
   0  -4   5 2351.96   71.19
   0  -4   5 2396.96   70.29
  -1   4  -5 3603.94  105.89
  -1   4  -5 3531.65  107.89
   1  -4   5 3765.02  106.09
   1  -4   5 3607.84  107.99
  -2   4  -5 1247.88   37.80
  -2   4  -5 1229.98   40.30
  -2   4  -5 1243.68   37.50
   2  -4   5 1229.68   40.60
   2  -4   5 1271.37   37.70
   2  -4   5 1264.37   37.20
  -3   4  -5  117.69    7.30
  -3   4  -5  118.09   10.30
  -3   4  -5  117.79    8.90
   3  -4   5  112.09    7.10
   3  -4   5  109.39   10.50
   3  -4   5  103.09    6.10
  -4   4  -5  156.38   12.60
  -4   4  -5  162.08   10.00
   4  -4   5  164.58   14.80
   4  -4   5  142.19    9.70
  -5   4  -5  744.23   29.20
  -5   4  -5  708.53   25.70
   5  -4   5  701.03   27.10
   5  -4   5  735.93   33.30
  -6   4  -5  852.41   33.00
   6  -4   5  800.52   38.60
   6  -4   5  825.52   33.20
  -7   4  -5  318.87   21.80
   7  -4   5  202.68   22.30
   7   3  -5  275.17   20.90
   7   3  -5  368.16   23.50
  -7  -3   5  307.77   21.80
   6   3  -5  512.05   23.40
   6   3  -5  494.45   25.60
   6   3  -5  489.95   33.30
  -6  -3   5  485.25   23.60
   5   3  -5  517.95   22.70
   5   3  -5  531.65   24.70
   5   3  -5  538.65   24.40
  -5  -3   5  544.45   23.40
   4   3  -5   62.39    7.40
   4   3  -5   72.09    9.10
   4   3  -5   62.69    7.30
  -4  -3   5   50.19    7.40
   3   3  -5  222.08   11.50
   3   3  -5  225.58   10.30
   3   3  -5  217.48   13.00
   3   3  -5  224.78   11.70
   3   3  -5  217.38   10.40
  -3  -3   5  216.38   11.60
   2   3  -5 3336.07   98.89
   2   3  -5 3259.37   98.99
   2   3  -5 3399.16   97.89
   2   3  -5 3496.35   98.09
   2   3  -5 3237.68   99.39
   2   3  -5 3328.77   99.29
  -2  -3   5 3224.68   97.89
  -2  -3   5 3315.37   99.29
   1   3  -5 3632.04  109.89
   1   3  -5 3729.13  110.79
   1   3  -5 3755.52  110.09
   1   3  -5 3819.62  109.29
   1   3  -5 3756.42  109.79
  -1  -3   5 3739.93  109.79
   0   3  -5 1374.56   43.90
   0   3  -5 1433.36   43.00
   0   3  -5 1383.26   43.50
   0  -3   5 1431.16   43.40
   0  -3   5 1442.56   43.10
  -1   3  -5   75.79    5.40
  -1   3  -5   88.89    7.00
   1  -3   5   82.39    6.50
   1  -3   5   90.69    5.60
  -2   3  -5  395.36   16.30
  -2   3  -5  418.66   14.30
   2  -3   5  389.96   16.10
   2  -3   5  388.46   14.00
  -3   3  -5 1298.77   38.60
  -3   3  -5 1229.68   41.10
  -3   3  -5 1243.98   38.90
   3  -3   5 1252.17   38.40
   3  -3   5 1315.27   42.50
   3  -3   5 1199.18   37.60
   3  -3   5 1212.98   38.80
  -4   3  -5 1348.97   42.80
  -4   3  -5 1343.87   42.20
  -4   3  -5 1295.57   44.10
   4  -3   5 1349.47   47.30
   4  -3   5 1299.47   42.00
  -5   3  -5  867.41   29.90
  -5   3  -5  911.81   32.50
   5  -3   5  795.02   36.70
   5  -3   5  813.62   31.50
  -6   3  -5   39.40    9.20
  -6   3  -5   57.09    9.40
   6  -3   5   39.70   13.40
   6  -3   5   68.19   12.00
  -7   3  -5   84.39   12.80
  -7   3  -5   80.09   14.50
   7  -3   5   66.99   17.30
   7   2  -5  150.18   18.10
   7   2  -5  121.19   13.80
  -7  -2   5  120.49   14.10
   6   2  -5    3.10    8.80
   6   2  -5    6.50    7.40
  -6  -2   5    9.10    8.00
   5   2  -5  236.18   16.60
   5   2  -5  242.08   15.00
   5   2  -5  267.57   17.20
  -5  -2   5  259.97   15.00
   4   2  -5 1367.76   44.00
   4   2  -5 1336.77   44.90
   4   2  -5 1311.27   43.60
   4   2  -5 1355.86   41.30
  -4  -2   5 1346.77   43.90
   3   2  -5 2375.86   70.49
   3   2  -5 2377.46   72.39
   3   2  -5 2357.36   72.49
   3   2  -5 2307.87   72.69
   3   2  -5 2414.56   70.09
  -3  -2   5 2420.86   72.59
   2   2  -5 1288.27   37.20
   2   2  -5 1258.07   39.00
   2   2  -5 1271.27   37.10
   2   2  -5 1201.18   39.10
   2   2  -5 1102.09   38.30
  -2  -2   5 1222.48   41.10
  -2  -2   5 1294.87   37.20
  -2  -2   5 1230.78   39.20
   1   2  -5    3.20    2.10
   1   2  -5   -0.90    2.60
   1   2  -5   -3.00    2.90
   1   2  -5   12.30    2.80
   1   2  -5    3.00    3.30
  -1  -2   5    2.90    2.10
   0   2  -5  646.34   20.50
   0   2  -5  624.54   21.10
   0   2  -5  649.34   20.70
   0  -2   5  652.23   20.10
   0  -2   5  518.05   20.40
  -1   2  -5 2253.17   65.39
  -1   2  -5 2108.09   66.49
  -1   2  -5 2224.08   66.29
   1  -2   5 2157.68   65.19
   1  -2   5 2187.18   65.79
  -2   2  -5 3255.67   98.39
  -2   2  -5 3296.67   97.19
   2  -2   5 3302.17   98.89
  -3   2  -5 1959.40   60.89
  -3   2  -5 1940.21   59.39
   3  -2   5 1981.40   58.39
   3  -2   5 1902.61   57.89
   3  -2   5 1949.10   62.79
  -4   2  -5   -2.40    4.60
  -4   2  -5    0.10    6.00
   4  -2   5    4.90    8.10
   4  -2   5   -0.40    6.80
   4  -2   5    7.70    5.30
  -5   2  -5  460.25   19.90
  -5   2  -5  479.95   21.70
   5  -2   5  451.35   22.70
   5  -2   5  485.55   26.80
  -6   2  -5  654.33   27.30
  -6   2  -5  660.33   28.80
   6  -2   5  713.63   33.70
   6  -2   5  692.13   30.10
  -7   2  -5  300.67   21.30
  -7   2  -5  287.57   21.10
   7  -2   5  292.67   24.10
   7  -2   5  241.78   25.90
   7   1  -5  225.48   19.60
   7   1  -5  235.58   20.20
  -7  -1   5  239.68   19.30
   6   1  -5  445.56   23.30
   6   1  -5  460.15   21.80
  -6  -1   5  445.66   21.40
   5   1  -5  785.22   30.20
   5   1  -5  825.32   27.50
   5   1  -5  743.13   28.80
  -5  -1   5  737.83   28.70
   4   1  -5  668.03   20.90
   4   1  -5  676.63   25.10
   4   1  -5  642.34   24.40
  -4  -1   5  658.03   24.40
   3   1  -5  254.07   12.10
   3   1  -5  237.48   11.80
   3   1  -5  238.88   11.80
  -3  -1   5  251.57   11.90
   2   1  -5 1302.37   42.70
   2   1  -5 1378.46   43.60
   2   1  -5 1397.26   43.70
  -2  -1   5 1498.45   46.30
  -2  -1   5 1409.16   43.70
   1   1  -5 4048.29  116.09
   1   1  -5 4068.59  114.69
   1   1  -5 3861.41  114.79
   1   1  -5 4022.80  116.29
  -1  -1   5 3670.93  116.39
   0   1  -5 3410.96   98.99
   0   1  -5 3331.77   98.69
   0   1  -5 3131.19   99.49
   0  -1   5 3477.85   97.79
  -1   1  -5  624.24   21.40
  -1   1  -5  635.84   25.50
  -1   1  -5  632.54   21.90
   1  -1   5  675.73   22.00
  -2   1  -5   96.49    7.20
  -2   1  -5  108.69    8.20
   2  -1   5  100.79    9.30
   2  -1   5  106.09    4.80
   2  -1   5  103.89    7.40
  -3   1  -5  593.24   22.40
  -3   1  -5  582.54   21.40
   3  -1   5  579.24   19.70
   3  -1   5  645.34   21.70
   3  -1   5  559.24   25.10
  -4   1  -5 1491.55   49.30
  -4   1  -5 1499.25   50.09
   4  -1   5 1510.75   53.99
   4  -1   5 1677.03   50.39
  -5   1  -5 1110.99   42.40
  -5   1  -5 1212.48   41.80
   5  -1   5 1364.66   43.60
   5  -1   5 1279.27   47.50
  -6   1  -5  266.97   19.00
  -6   1  -5  250.57   17.10
   6  -1   5  239.18   22.20
   6  -1   5  278.77   19.80
  -7   1  -5    0.30   10.60
  -7   1  -5   21.70   11.10
   7  -1   5   10.20   12.90
   7  -1   5   -6.80   12.70
   7   0  -5  530.85   27.80
   7   0  -5  535.35   26.50
  -7   0   5  534.75   25.60
   6   0  -5  234.58   18.20
   6   0  -5  266.47   17.20
  -6   0   5  268.47   16.50
   5   0  -5   22.50    7.70
   5   0  -5   17.30    6.40
  -5   0   5   15.10    6.10
   4   0  -5 1022.70   34.50
   4   0  -5 1029.00   34.90
  -4   0   5  991.80   34.20
   3   0  -5 2449.66   74.89
   3   0  -5 2465.55   75.19
  -3   0   5 2501.15   75.19
   2   0  -5 2042.90   60.49
   2   0  -5 2023.80   61.19
   2   0  -5 1992.40   61.29
  -2   0   5 2015.90   61.19
  -2   0   5 1966.50   61.39
   1   0  -5  446.76   16.70
   1   0  -5  480.25   15.70
   1   0  -5  456.75   17.00
  -1   0   5  500.65   16.40
   0   0  -5   36.00    4.30
   0   0  -5   41.10    3.60
   0   0  -5   29.50    4.00
   0   0  -5   45.60    5.30
   0   0   5   44.40    4.40
   0   0   5   41.80    3.90
  -1   0  -5  675.03   21.00
  -1   0  -5  675.53   22.70
  -1   0  -5  693.33   26.40
  -1   0  -5  649.93   22.80
   1   0   5  666.53   23.70
   1   0   5  677.33   20.90
  -2   0  -5 2680.73   79.59
  -2   0  -5 2676.73   78.39
  -2   0  -5 2604.94   79.59
   2   0   5 2603.64   77.59
   2   0   5 2729.03   78.39
   2   0   5 2536.35   81.59
  -3   0  -5 2923.41   88.29
  -3   0  -5 2940.31   88.39
   3   0   5 2883.01   86.49
   3   0   5 2934.91   87.89
   3   0   5 2889.01   91.39
  -4   0  -5  406.66   18.70
  -4   0  -5  432.96   19.10
   4   0   5  442.46   23.40
   4   0   5  446.16   19.70
  -5   0  -5   -0.60    7.90
  -5   0  -5    8.30    6.70
   5   0   5   14.30    8.40
   5   0   5   17.00   10.90
  -6   0  -5  170.38   15.90
  -6   0  -5  242.88   18.20
   6   0   5  238.38   21.50
   6   0   5  208.78   18.60
  -7   0  -5  220.88   19.50
  -7   0  -5  244.78   20.90
   7   0   5  252.87   22.90
   7   0   5  310.07   25.60
   7  -1  -5   -8.10   10.20
   7  -1  -5   17.60    9.70
  -7   1   5    8.80    8.60
   6  -1  -5  278.27   18.10
   6  -1  -5  295.57   18.80
  -6   1   5  268.87   17.10
   5  -1  -5 1345.07   44.60
   5  -1  -5 1288.37   43.70
  -5   1   5 1258.97   43.20
   4  -1  -5 1337.17   43.70
   4  -1  -5 1311.77   43.30
  -4   1   5 1326.57   43.10
   3  -1  -5  647.74   23.20
   3  -1  -5  684.93   23.80
  -3   1   5  642.74   23.20
   2  -1  -5   47.20    5.20
   2  -1  -5   48.90    5.90
   2  -1  -5   51.19    5.50
  -2   1   5   51.89    6.20
   1  -1  -5 1019.80   33.20
   1  -1  -5 1021.00   32.00
   1  -1  -5 1035.30   32.60
  -1   1   5 1025.50   32.40
   0  -1  -5 3857.01  109.49
   0  -1  -5 3673.73  109.29
   0  -1  -5 3869.21  110.19
   0  -1  -5 3734.83  110.79
   0   1   5 3810.52  109.49
   0   1   5 3445.66  110.29
  -1  -1  -5 2712.73   81.79
  -1  -1  -5 2675.63   79.79
  -1  -1  -5 2701.03   81.49
  -1  -1  -5 2788.22   80.79
   1   1   5 2639.34   82.99
   1   1   5 2687.53   79.79
  -2  -1  -5  677.03   23.50
  -2  -1  -5  697.03   22.90
  -2  -1  -5  672.13   24.20
   2   1   5  652.53   22.40
   2   1   5  713.13   27.70
  -3  -1  -5   57.59    6.80
  -3  -1  -5   50.59    7.00
  -3  -1  -5   61.49    6.80
   3   1   5   60.39    6.90
   3   1   5   52.59    9.90
  -4  -1  -5  412.36   19.30
  -4  -1  -5  412.26   20.20
  -4  -1  -5  431.56   19.40
   4   1   5  446.76   20.50
   4   1   5  463.95   24.80
  -5  -1  -5  866.11   33.10
  -5  -1  -5  896.61   33.30
   5   1   5  876.21   34.20
   5   1   5  878.01   37.90
  -6  -1  -5  553.94   25.70
  -6  -1  -5  540.45   27.00
   6   1   5  551.44   30.20
   6   1   5  580.24   28.30
  -7  -1  -5  111.29   15.40
  -7  -1  -5  107.49   13.60
   7   1   5  122.39   16.20
   7   1   5  135.49   17.90
   7  -2  -5  342.37   21.70
   7  -2  -5  341.87   23.30
  -7   2   5  372.66   21.00
   6  -2  -5  378.16   20.70
   6  -2  -5  380.16   21.20
  -6   2   5  369.96   19.50
   5  -2  -5  272.37   16.30
   5  -2  -5  284.37   15.90
  -5   2   5  257.17   14.70
   4  -2  -5    8.10    5.70
   4  -2  -5    3.10    5.80
  -4   2   5    7.70    5.30
   3  -2  -5  948.41   32.10
   3  -2  -5  942.11   32.00
  -3   2   5  950.40   31.40
   2  -2  -5 2902.01   87.79
   2  -2  -5 2924.21   87.49
   2  -2  -5 2974.40   88.49
  -2   2   5 2917.71   87.49
   1  -2  -5 2310.57   71.09
   1  -2  -5 2384.96   70.39
   1  -2  -5 2400.76   70.19
  -1   2   5 2137.59   70.19
  -1   2   5 2455.95   68.59
   0  -2  -5  898.91   28.40
   0  -2  -5  883.71   28.60
   0  -2  -5  893.61   29.70
   0   2   5  895.51   28.00
   0   2   5  844.02   30.80
  -1  -2  -5   83.19    6.70
  -1  -2  -5   92.39    8.30
  -1  -2  -5   87.29    6.90
   1   2   5   84.29    9.60
  -2  -2  -5 1216.28   39.60
  -2  -2  -5 1209.28   38.10
  -2  -2  -5 1232.08   38.20
   2   2   5 1104.79   43.20
  -3  -2  -5 1907.41   58.79
  -3  -2  -5 1910.81   60.19
  -3  -2  -5 1879.41   59.29
   3   2   5 1851.61   64.69
  -4  -2  -5  807.62   31.00
  -4  -2  -5  810.32   29.50
  -4  -2  -5  830.52   31.20
   4   2   5  792.22   36.60
   4   2   5  822.12   31.00
  -5  -2  -5  222.78   16.70
  -5  -2  -5  218.28   16.50
   5   2   5  227.48   23.30
   5   2   5  221.68   19.50
  -6  -2  -5   33.80    9.80
  -6  -2  -5    5.00   10.80
   6   2   5   11.30   13.00
   6   2   5   22.30   13.30
   7  -3  -5   92.89   13.50
   7  -3  -5   98.09   14.70
  -7   3   5   91.39   11.90
   6  -3  -5   34.70   10.10
   6  -3  -5   20.90    9.30
  -6   3   5   20.60    7.70
   5  -3  -5  996.50   36.10
   5  -3  -5  984.30   35.60
  -5   3   5  958.90   34.40
   4  -3  -5 1608.54   52.39
   4  -3  -5 1585.04   51.89
  -4   3   5 1623.14   51.19
   3  -3  -5  982.50   33.50
   3  -3  -5  977.10   33.50
   3  -3  -5  963.60   32.30
  -3   3   5  986.50   32.30
   2  -3  -5  106.29    7.70
   2  -3  -5  110.19    9.50
   2  -3  -5  111.89    8.90
  -2   3   5  104.79    6.10
  -2   3   5  110.69    7.60
  -2   3   5   98.89    6.40
   1  -3  -5    3.80    3.70
   1  -3  -5    1.80    4.50
   1  -3  -5    6.10    4.30
  -1   3   5    7.60    3.90
  -1   3   5    1.70    3.30
   0  -3  -5  943.21   32.60
   0  -3  -5  959.70   31.90
   0  -3  -5  955.20   30.70
   0   3   5 1027.60   33.30
  -1  -3  -5 2593.54   78.09
  -1  -3  -5 2581.74   79.09
  -1  -3  -5 2622.14   77.09
   1   3   5 2511.65   80.69
  -2  -3  -5 1966.70   60.89
  -2  -3  -5 1939.21   58.59
  -2  -3  -5 1934.41   59.59
   2   3   5 1799.62   63.99
  -3  -3  -5  122.09   11.00
  -3  -3  -5  125.49   11.00
  -3  -3  -5  100.99   11.80
   3   3   5   97.49   14.80
  -4  -3  -5   50.59    8.20
  -4  -3  -5   59.19   10.10
  -4  -3  -5   58.89    9.50
   4   3   5   59.69   10.70
   4   3   5   66.59   15.80
  -5  -3  -5  262.47   18.40
  -5  -3  -5  263.87   18.40
  -5  -3  -5  269.87   21.80
   5   3   5  235.78   25.10
   5   3   5  280.77   24.00
  -6  -3  -5  293.57   25.10
  -6  -3  -5  329.67   22.00
   6   3   5  349.47   29.40
   6   3   5  355.66   29.40
   6  -4  -5  394.06   23.60
   6  -4  -5  457.95   23.40
  -6   4   5  441.46   21.90
   5  -4  -5  604.44   26.10
   5  -4  -5  615.24   26.20
  -5   4   5  566.94   24.30
   4  -4  -5  251.27   16.00
   4  -4  -5  281.07   16.20
  -4   4   5  304.37   14.70
   3  -4  -5   59.79    6.60
   3  -4  -5   56.59    8.10
   3  -4  -5   55.19    8.00
  -3   4   5   56.79    6.30
  -3   4   5   46.80    5.10
   2  -4  -5 1676.53   52.39
   2  -4  -5 1701.03   52.39
   2  -4  -5 1676.93   50.29
  -2   4   5 1488.15   49.80
   1  -4  -5 2321.97   72.79
   1  -4  -5 2339.27   70.39
   1  -4  -5 2355.36   72.49
  -1   4   5 2404.16   71.69
   0  -4  -5 1256.17   40.50
   0  -4  -5 1212.38   41.00
   0  -4  -5 1221.08   38.30
   0   4   5 1248.98   40.90
  -1  -4  -5   67.69    7.50
  -1  -4  -5   64.79    8.20
  -1  -4  -5   71.49    8.10
   1   4   5   65.09    9.20
  -2  -4  -5   50.69    8.10
  -2  -4  -5   49.20    7.50
  -2  -4  -5   40.20    6.30
   2   4   5   38.50   10.80
  -3  -4  -5  510.25   22.50
  -3  -4  -5  514.85   23.10
  -3  -4  -5  521.65   20.50
   3   4   5  476.85   29.60
  -4  -4  -5  750.42   30.40
  -4  -4  -5  735.53   30.60
   4   4   5  751.52   32.70
   4   4   5  653.33   38.40
  -5  -4  -5  562.34   28.20
  -5  -4  -5  565.74   29.80
   5   4   5  569.74   35.60
   5   4   5  576.54   31.60
   6  -5  -5   75.09   13.40
   6  -5  -5   55.19   11.70
  -6   5   5   67.59   11.60
   5  -5  -5   62.59   10.20
   5  -5  -5   83.29   11.70
  -5   5   5  100.59   10.90
   4  -5  -5  682.33   26.00
   4  -5  -5  688.63   28.40
   4  -5  -5  715.03   28.80
  -4   5   5  723.43   26.10
   3  -5  -5 1505.45   48.30
   3  -5  -5 1366.06   47.40
   3  -5  -5 1366.66   45.00
  -3   5   5 1476.55   45.10
   2  -5  -5  752.92   25.40
   2  -5  -5  793.22   28.90
   2  -5  -5  736.73   28.30
  -2   5   5  766.82   26.80
   1  -5  -5  180.58    9.80
   1  -5  -5  169.78   12.20
   1  -5  -5  173.48   13.40
  -1   5   5  164.38   12.30
   0  -5  -5  105.39   12.00
   0  -5  -5   97.29   11.00
   0   5   5  127.79   11.90
  -1  -5  -5  868.51   32.10
  -1  -5  -5  849.81   32.90
   1   5   5  951.60   34.00
  -2  -5  -5 1575.24   51.49
  -2  -5  -5 1568.54   52.49
   2   5   5 1496.05   54.59
  -3  -5  -5  615.74   26.80
  -3  -5  -5  642.24   28.40
   3   5   5  667.83   35.00
  -4  -5  -5   25.20   10.50
  -4  -5  -5   28.80   10.90
   4   5   5   61.59   18.00
   5  -6  -5  764.52   32.80
   5  -6  -5  799.22   32.90
   4  -6  -5  388.36   21.60
   4  -6  -5  379.26   21.20
   3  -6  -5   41.50    8.50
   3  -6  -5   21.90    9.20
   2  -6  -5  175.78   15.40
   2  -6  -5  177.08   14.00
  -2   6   5  130.39   15.30
   1  -6  -5  808.22   31.60
   1  -6  -5  845.92   31.50
  -1   6   5  840.82   30.70
   0  -6  -5 1310.27   46.10
   0  -6  -5 1309.17   45.20
   0   6   5 1361.96   45.70
  -1  -6  -5  467.55   23.70
  -1  -6  -5  467.75   21.70
   1   6   5  477.95   24.30
  -2  -6  -5   74.69   10.20
  -2  -6  -5   51.19   10.70
   2   6   5   64.49   14.30
  -3  -6  -5   71.49   12.10
  -3  -6  -5   50.79   11.40
   3   6   5   85.29   18.10
   4  -7  -5  136.49   14.30
   4  -7  -5  130.39   13.20
   3  -7  -5  568.84   27.80
   3  -7  -5  621.84   27.20
   2  -7  -5  839.72   32.80
   2  -7  -5  800.82   32.90
   1  -7  -5  599.54   28.00
   1  -7  -5  619.04   26.70
  -1   7   5  615.54   27.10
   0  -7  -5   26.50    8.40
   0  -7  -5   26.00   11.40
   0   7   5   38.70   11.90
  -1  -7  -5  180.28   16.10
  -1  -7  -5  165.58   20.20
   1   7   5  160.78   20.90
  -2  -7  -5  578.64   28.10
  -2  -7  -5  602.94   29.60
   2   7   5  562.14   32.90
   2   9  -6  679.03   30.20
   2   9  -6  637.24   34.00
  -2  -9   6  681.43   34.20
  -2  -9   6  686.73   31.50
  -1  -9   6  529.55   26.00
   0  -9   6   33.10    9.80
  -1   9  -6  272.87   19.30
   1  -9   6  290.57   19.20
  -2   9  -6  627.24   28.90
   2  -9   6  677.23   29.40
  -3   9  -6  534.95   27.40
   3  -9   6  519.15   27.10
   4   8  -6  375.06   25.10
   4   8  -6  358.76   30.60
   4   8  -6  390.16   25.50
   3   8  -6  203.28   18.00
   3   8  -6  171.08   17.00
   3   8  -6  207.78   23.40
  -3  -8   6  165.58   19.10
  -3  -8   6  173.58   18.80
   2   8  -6   21.00    8.60
   2   8  -6   35.60   12.30
   2   8  -6   35.00    8.80
  -2  -8   6   33.90   10.50
  -2  -8   6   27.50   12.30
   1   8  -6  149.49   13.50
  -1  -8   6  155.38   16.80
  -1  -8   6  155.88   15.40
   0   8  -6  810.62   29.60
   0  -8   6  791.92   31.40
   0  -8   6  792.22   30.30
  -1   8  -6 1116.59   38.50
   1  -8   6 1085.79   39.90
  -2   8  -6  371.26   20.50
   2  -8   6  462.65   21.90
  -3   8  -6   47.80   11.00
   3  -8   6   47.30   10.60
  -4   8  -6  141.19   17.30
   4  -8   6  106.29   14.10
  -5   8  -6  474.85   26.20
   5  -8   6  485.25   29.30
   4   7  -6   -7.30    9.00
   4   7  -6    7.40   13.60
   4   7  -6    5.60    9.50
   4   7  -6   -6.40   10.30
   3   7  -6  168.88   15.40
   3   7  -6  171.18   20.00
   3   7  -6  151.68   13.90
   3   7  -6  148.29   14.10
  -3  -7   6  147.09   15.80
   2   7  -6  883.51   34.00
   2   7  -6  972.50   32.10
   2   7  -6  951.50   33.30
   2   7  -6 1016.80   36.40
  -2  -7   6  896.91   34.30
  -2  -7   6  971.80   36.50
   1   7  -6 1318.37   44.30
   1   7  -6 1269.77   42.90
   1   7  -6 1306.37   40.90
  -1  -7   6 1318.07   44.30
  -1  -7   6 1333.57   44.60
   0   7  -6  565.54   21.80
   0  -7   6  521.95   21.80
   0  -7   6  528.25   22.60
  -1   7  -6    4.00    6.40
   1  -7   6   20.40    6.30
   1  -7   6    8.30    6.90
  -2   7  -6  276.87   16.10
   2  -7   6  265.77   17.10
  -3   7  -6  651.53   27.30
   3  -7   6  685.23   28.40
  -4   7  -6  820.12   32.60
   4  -7   6  838.02   34.30
  -5   7  -6  431.16   23.30
   5  -7   6  391.76   26.30
   5   6  -6   84.19   11.60
   5   6  -6   89.49   11.60
   5   6  -6   73.49   13.50
   5   6  -6   78.09   15.10
  -5  -6   6  101.39   13.10
   4   6  -6  646.54   25.90
   4   6  -6  603.74   30.90
   4   6  -6  599.04   25.80
   4   6  -6  623.54   26.50
  -4  -6   6  644.94   27.10
   3   6  -6 1043.20   39.30
   3   6  -6 1023.60   35.50
   3   6  -6 1082.09   36.20
   3   6  -6 1019.40   36.00
  -3  -6   6 1014.00   35.90
   2   6  -6  754.72   27.00
   2   6  -6  736.53   26.90
   2   6  -6  721.13   25.50
   2   6  -6  713.93   28.80
  -2  -6   6  741.23   26.90
  -2  -6   6  713.23   29.00
   1   6  -6    6.20    4.20
   1   6  -6    7.60    6.60
   1   6  -6   11.30    5.70
  -1  -6   6    7.10    5.60
  -1  -6   6    4.10    7.40
   0   6  -6  661.73   21.90
   0   6  -6  665.73   24.40
   0  -6   6  673.53   25.00
   0  -6   6  668.73   24.00
  -1   6  -6 1797.12   55.69
   1  -6   6 1701.03   53.19
   1  -6   6 1780.72   56.39
  -2   6  -6 1167.28   38.90
   2  -6   6 1151.58   35.50
   2  -6   6 1123.99   39.70
  -3   6  -6  390.36   19.10
   3  -6   6  399.26   20.50
  -4   6  -6    1.60    7.40
   4  -6   6   12.90    9.10
  -5   6  -6  130.79   15.60
   5  -6   6  154.48   19.30
  -6   6  -6  342.07   21.60
   6  -6   6  303.87   28.40
   6   5  -6  490.65   27.90
   6   5  -6  492.55   24.50
   6   5  -6  463.55   24.30
  -6  -5   6  456.55   26.90
   5   5  -6  570.74   26.30
   5   5  -6  563.24   25.00
   5   5  -6  571.44   24.90
   5   5  -6  579.34   28.80
  -5  -5   6  571.74   25.90
   4   5  -6  106.19   11.50
   4   5  -6   96.49   11.90
   4   5  -6   95.09   12.70
   4   5  -6  106.89   12.00
  -4  -5   6   94.69   10.40
   3   5  -6   34.10    7.00
   3   5  -6   33.20    6.70
   3   5  -6   29.20    6.30
   3   5  -6   17.30    8.20
  -3  -5   6   34.30    6.50
   2   5  -6  511.05   21.30
   2   5  -6  471.95   19.10
   2   5  -6  481.05   18.70
   2   5  -6  478.35   19.60
  -2  -5   6  503.65   19.20
   1   5  -6  991.70   32.40
   1   5  -6  924.41   30.70
   1   5  -6  958.00   32.30
   1   5  -6  928.31   30.30
  -1  -5   6  971.20   32.00
   0   5  -6 1560.64   50.39
   0   5  -6 1630.04   48.50
   0   5  -6 1605.64   48.90
   0   5  -6 1606.34   47.70
   0  -5   6 1570.64   48.70
   0  -5   6 1611.24   50.29
  -1   5  -6 1183.58   36.30
  -1   5  -6 1174.08   36.70
  -1   5  -6 1166.58   39.00
   1  -5   6 1220.08   39.40
   1  -5   6 1194.68   36.80
  -2   5  -6   76.59    6.10
  -2   5  -6   77.89    8.30
   2  -5   6   98.09   10.40
  -3   5  -6  868.71   31.70
  -3   5  -6  863.91   27.60
   3  -5   6  873.21   32.60
  -4   5  -6 1714.23   57.09
   4  -5   6 1761.02   59.29
  -5   5  -6  718.83   29.90
   5  -5   6  749.42   34.00
  -6   5  -6   69.29   10.80
   6  -5   6   62.39   16.60
   6   4  -6   38.10    9.60
   6   4  -6   38.30   12.20
   6   4  -6   19.30    8.90
  -6  -4   6   50.49   11.00
   5   4  -6   -1.60    7.20
   5   4  -6   12.40    7.00
   5   4  -6   20.80   10.30
  -5  -4   6    8.80    8.20
   4   4  -6  284.57   14.60
   4   4  -6  287.17   17.50
   4   4  -6  287.47   15.20
   4   4  -6  246.98   14.70
  -4  -4   6  285.27   16.30
   3   4  -6 1663.23   52.89
   3   4  -6 1676.93   51.29
   3   4  -6 1655.43   53.59
   3   4  -6 1619.14   52.29
  -3  -4   6 1649.93   52.89
   2   4  -6 2418.16   72.89
   2   4  -6 2416.56   73.49
   2   4  -6 2449.35   74.29
   2   4  -6 2394.86   73.99
  -2  -4   6 2431.26   72.89
   1   4  -6  175.98   10.40
   1   4  -6  173.88    9.20
   1   4  -6  169.38    8.30
   1   4  -6  180.88    9.30
  -1  -4   6  167.38    9.30
   0   4  -6  153.88    9.80
   0   4  -6  166.08    8.30
   0  -4   6  155.88    9.00
  -1   4  -6  728.93   25.60
  -1   4  -6  728.53   23.50
   1  -4   6  718.63   23.60
   1  -4   6  708.23   25.10
  -2   4  -6 1028.10   34.60
  -2   4  -6 1022.70   32.00
   2  -4   6 1024.60   34.60
   2  -4   6  997.00   32.00
  -3   4  -6 1754.92   54.09
  -3   4  -6 1790.92   57.09
   3  -4   6 1786.52   57.79
  -4   4  -6  537.65   23.10
  -4   4  -6  534.95   19.80
   4  -4   6  473.15   24.70
  -5   4  -6   -7.20    7.30
  -5   4  -6    7.30    7.00
   5  -4   6   20.20   11.70
  -6   4  -6  331.77   20.40
   6  -4   6  303.47   27.50
  -7   4  -6  320.37   23.20
   7  -4   6  295.57   33.00
   6   3  -6  259.17   17.20
   6   3  -6  260.97   19.50
  -6  -3   6  217.08   17.80
   5   3  -6 1004.80   35.00
   5   3  -6  969.40   34.80
   5   3  -6  898.71   35.70
  -5  -3   6  923.81   35.10
   4   3  -6  856.01   30.60
   4   3  -6  736.73   29.10
   4   3  -6  862.41   28.20
   4   3  -6  864.51   29.70
  -4  -3   6  733.43   29.20
   3   3  -6  306.07   14.40
   3   3  -6  324.67   14.90
   3   3  -6  309.37   14.90
   3   3  -6  268.17   12.30
   3   3  -6  309.87   14.60
  -3  -3   6  307.57   14.60
   2   3  -6   90.79    9.30
   2   3  -6   77.79    7.80
   2   3  -6   86.09    6.40
   2   3  -6   83.89    8.30
   2   3  -6   84.19    6.90
   2   3  -6   85.59    7.90
  -2  -3   6   92.29    6.20
   1   3  -6 1246.58   37.00
   1   3  -6 1220.68   38.10
   1   3  -6 1227.28   37.00
   1   3  -6 1169.48   39.20
   1   3  -6 1209.18   38.50
  -1  -3   6 1260.17   37.80
   0   3  -6 2864.61   85.29
   0   3  -6 2852.21   86.49
   0  -3   6 2892.81   85.39
  -1   3  -6 1793.02   55.09
  -1   3  -6 1844.22   56.69
   1  -3   6 1823.32   55.99
  -2   3  -6  318.47   12.80
  -2   3  -6  307.97   14.60
   2  -3   6  324.27   15.10
  -3   3  -6   77.79    8.40
  -3   3  -6   63.79    7.80
   3  -3   6   79.39    9.40
  -4   3  -6  551.94   20.80
  -4   3  -6  496.65   22.60
   4  -3   6  564.74   26.50
   4  -3   6  527.35   18.50
  -5   3  -6  682.73   28.10
  -5   3  -6  672.73   25.70
   5  -3   6  676.03   33.60
  -6   3  -6  462.65   22.50
  -6   3  -6  474.45   24.10
   6  -3   6  406.16   29.70
  -7   3  -6  123.79   15.00
   7  -3   6   97.89   19.30
   7   2  -6  440.26   26.20
   7   2  -6  400.86   24.40
  -7  -2   6  359.36   24.50
   6   2  -6  264.27   17.50
   6   2  -6  239.68   19.00
  -6  -2   6  284.87   18.20
   5   2  -6   74.39    9.20
   5   2  -6   65.59   10.30
  -5  -2   6   73.59    9.20
   4   2  -6   66.09    8.10
   4   2  -6   65.69    8.00
   4   2  -6   76.79    8.70
   4   2  -6   63.29    8.10
  -4  -2   6   60.59    8.00
   3   2  -6  494.25   18.90
   3   2  -6  486.75   19.40
   3   2  -6  482.35   19.20
  -3  -2   6  488.85   19.40
   2   2  -6 2350.66   68.19
   2   2  -6 2309.97   69.39
   2   2  -6 2217.08   70.59
   2   2  -6 2305.87   70.59
  -2  -2   6 2365.16   70.99
  -2  -2   6 2313.87   72.39
  -2  -2   6 2349.17   67.99
   1   2  -6 2333.07   71.49
   1   2  -6 2352.46   69.59
   1   2  -6 2408.46   70.39
   1   2  -6 2330.97   72.09
   1   2  -6 2375.16   70.39
  -1  -2   6 2419.16   69.89
   0   2  -6  872.11   28.90
   0   2  -6  851.51   28.40
   0   2  -6  862.81   29.10
   0  -2   6  893.81   27.60
  -1   2  -6  322.97   12.90
  -1   2  -6  306.57   13.80
   1  -2   6  326.57   13.10
  -2   2  -6 1473.55   45.50
  -2   2  -6 1430.76   46.60
   2  -2   6 1466.15   47.00
  -3   2  -6 1922.91   60.79
  -3   2  -6 1918.51   59.39
   3  -2   6 1922.41   62.49
  -4   2  -6  800.62   27.10
  -4   2  -6  765.72   28.80
   4  -2   6  658.13   25.80
   4  -2   6  752.62   32.50
  -5   2  -6  199.78   16.20
  -5   2  -6  199.88   14.50
   5  -2   6  197.98   21.70
   5  -2   6  169.58   15.30
  -6   2  -6   23.40   10.70
  -6   2  -6   23.30    9.90
   6  -2   6   47.40   14.90
  -7   2  -6  168.58   20.00
  -7   2  -6  174.48   21.00
   7  -2   6  193.98   21.50
   7   1  -6    6.20   10.90
   7   1  -6    6.50   10.90
  -7  -1   6   23.70   10.70
   6   1  -6   20.00    8.80
   6   1  -6   25.90   10.20
  -6  -1   6    6.20    8.00
   5   1  -6  468.15   21.20
   5   1  -6  480.85   22.10
  -5  -1   6  439.36   20.70
   4   1  -6 1330.77   43.80
   4   1  -6 1295.17   43.60
   4   1  -6 1335.47   43.70
  -4  -1   6 1307.77   43.60
   3   1  -6 1324.47   42.80
   3   1  -6 1297.47   42.80
   3   1  -6 1334.87   42.10
  -3  -1   6 1324.07   42.80
   2   1  -6  189.08   10.10
   2   1  -6  155.58    9.90
   2   1  -6  175.48    8.60
  -2  -1   6  166.18   14.60
  -2  -1   6  157.78    9.80
   1   1  -6   99.19    7.90
   1   1  -6   80.29    7.70
   1   1  -6   93.19    5.30
  -1  -1   6   98.79    9.90
   0   1  -6 1324.07   45.30
   0   1  -6 1371.76   42.90
   0   1  -6 1358.76   43.30
   0  -1   6 1417.96   41.60
  -1   1  -6 3119.49   91.89
  -1   1  -6 3084.49   91.49
   1  -1   6 2966.70   91.19
  -2   1  -6 1860.71   57.09
  -2   1  -6 1804.62   56.49
   2  -1   6 1803.22   57.89
  -3   1  -6  127.59   10.00
  -3   1  -6  134.69   11.20
   3  -1   6  117.59   14.00
   3  -1   6  140.59    9.10
   3  -1   6  112.49    7.40
  -4   1  -6  141.89   12.20
  -4   1  -6  132.19   13.20
   4  -1   6  129.79   14.30
   4  -1   6  127.79   12.90
  -5   1  -6  433.86   20.40
  -5   1  -6  400.86   22.10
   5  -1   6  420.46   22.00
   5  -1   6  406.26   26.30
  -6   1  -6  530.05   26.60
  -6   1  -6  526.35   25.40
   6  -1   6  566.14   31.30
  -7   1  -6  306.77   23.30
  -7   1  -6  323.37   22.30
   7  -1   6  271.17   26.90
   7   0  -6  227.78   21.80
   7   0  -6  278.27   21.60
  -7   0   6  263.77   20.60
   6   0  -6  760.82   31.00
   6   0  -6  788.02   31.90
  -6   0   6  736.73   30.30
   5   0  -6  887.61   33.70
   5   0  -6  912.61   33.30
  -5   0   6  929.51   33.40
   4   0  -6   23.80    6.40
   4   0  -6   23.20    6.20
   4   0  -6   28.70    6.30
  -4   0   6   19.20    5.90
   3   0  -6  579.94   21.40
   3   0  -6  562.94   20.50
   3   0  -6  546.25   21.20
  -3   0   6  548.05   21.10
   2   0  -6 1953.90   59.29
   2   0  -6 1930.91   60.39
   2   0  -6 1967.50   60.59
  -2   0   6 1983.70   60.49
   1   0  -6 1208.28   38.90
   1   0  -6 1225.98   37.10
   1   0  -6 1185.78   38.70
  -1   0   6 1226.48   38.00
   0   0  -6 1229.88   39.50
   0   0  -6 1196.88   39.30
   0   0  -6 1268.77   38.70
   0   0  -6 1252.47   37.30
   0   0   6 1225.08   37.50
   0   0   6 1234.98   37.80
  -1   0  -6  347.17   14.90
  -1   0  -6  366.06   15.00
  -1   0  -6  356.66   12.30
   1   0   6  356.06   12.30
   1   0   6  342.37   15.10
  -2   0  -6   30.80    4.50
  -2   0  -6   25.80    5.60
  -2   0  -6   24.40    5.60
   2   0   6   22.60    6.80
   2   0   6   23.70    3.70
   2   0   6   30.10    4.30
  -3   0  -6 1359.16   44.50
  -3   0  -6 1363.96   44.60
   3   0   6 1350.06   43.80
   3   0   6 1362.66   47.70
  -4   0  -6 1361.96   45.50
  -4   0  -6 1335.17   45.70
   4   0   6 1392.46   50.19
   4   0   6 1359.46   45.60
  -5   0  -6  583.24   27.20
  -5   0  -6  645.64   26.40
   5   0   6  614.54   31.40
   5   0   6  627.44   26.60
  -6   0  -6   50.89   11.90
  -6   0  -6   13.40    9.50
   6   0   6    7.80   12.80
   7  -1  -6   72.29   13.00
   7  -1  -6   77.59   13.60
  -7   1   6   66.09   11.20
   6  -1  -6   49.10    9.90
   6  -1  -6   78.49   11.10
  -6   1   6   77.09   10.10
   5  -1  -6   32.90    8.00
   5  -1  -6   30.30    7.70
  -5   1   6   44.80    7.90
   4  -1  -6  968.70   32.80
   4  -1  -6  824.62   32.20
  -4   1   6  989.70   32.60
   3  -1  -6 2613.04   81.59
   3  -1  -6 2628.84   81.19
   3  -1  -6 2684.33   80.89
  -3   1   6 2735.33   81.29
   2  -1  -6 1312.97   41.10
   2  -1  -6 1312.67   42.20
   2  -1  -6 1276.27   41.60
  -2   1   6 1312.27   41.70
   1  -1  -6   10.50    3.50
   1  -1  -6    8.20    4.40
   1  -1  -6   16.40    4.90
   0  -1  -6  506.05   17.80
   0  -1  -6  515.85   19.70
   0  -1  -6  532.35   18.00
   0  -1  -6  514.05   19.00
   0   1   6  551.44   18.90
   0   1   6  513.25   18.00
   0   1   6  548.95   18.40
  -1  -1  -6 1478.45   46.40
  -1  -1  -6 1428.16   45.50
  -1  -1  -6 1446.16   44.10
   1   1   6 1430.26   44.20
   1   1   6 1447.56   47.10
  -2  -1  -6 1631.14   49.90
  -2  -1  -6 1599.24   51.69
  -2  -1  -6 1605.24   50.89
   2   1   6 1648.94   54.09
  -3  -1  -6  859.81   31.30
  -3  -1  -6  874.81   30.30
  -3  -1  -6  855.51   30.70
   3   1   6  846.22   30.30
   3   1   6  902.21   34.80
  -4  -1  -6   70.79    9.60
  -4  -1  -6   59.99    9.10
   4   1   6   50.19   11.60
   4   1   6   58.19    9.60
  -5  -1  -6   62.69   11.10
  -5  -1  -6   81.49   10.40
   5   1   6   83.09   12.20
   5   1   6   70.59   13.40
  -6  -1  -6  344.77   23.90
  -6  -1  -6  335.17   21.20
   6   1   6  364.56   26.20
   7  -2  -6  147.69   15.70
   6  -2  -6  479.45   24.30
   6  -2  -6  461.35   23.90
  -6   2   6  495.75   22.80
   5  -2  -6  688.03   28.30
   5  -2  -6  702.13   28.10
  -5   2   6  695.33   27.10
   4  -2  -6  282.37   15.50
   4  -2  -6  271.57   15.80
   4  -2  -6  263.97   15.30
  -4   2   6  270.17   14.80
   3  -2  -6  140.39   10.70
   3  -2  -6  135.89   11.60
   3  -2  -6  150.18   11.00
  -3   2   6  138.09   10.20
   2  -2  -6   92.99    8.40
   2  -2  -6  110.99    9.80
   2  -2  -6   94.29    8.90
  -2   2   6   89.69    8.20
   1  -2  -6 1481.85   45.30
   1  -2  -6 1445.76   46.50
   1  -2  -6 1438.46   45.10
  -1   2   6 1415.16   43.00
   0  -2  -6 3839.72  110.19
   0  -2  -6 3786.72  111.59
   0  -2  -6 3822.62  109.99
   0   2   6 3454.15  111.49
   0   2   6 3651.33  109.19
  -1  -2  -6 1136.39   36.30
  -1  -2  -6 1100.99   37.70
  -1  -2  -6 1141.49   36.00
   1   2   6 1122.99   40.20
  -2  -2  -6    8.60    6.00
  -2  -2  -6   -3.60    4.90
  -2  -2  -6   -1.80    4.60
   2   2   6   -8.90    8.40
  -3  -2  -6  484.95   20.10
  -3  -2  -6  468.55   21.70
  -3  -2  -6  489.75   20.50
   3   2   6  527.45   27.20
  -4  -2  -6  500.15   23.80
  -4  -2  -6  479.75   23.10
  -4  -2  -6  509.65   22.30
   4   2   6  526.75   24.00
   4   2   6  522.35   29.60
  -5  -2  -6  531.75   25.90
  -5  -2  -6  570.74   25.60
   5   2   6  535.95   30.60
   5   2   6  506.35   27.80
  -6  -2  -6  229.38   19.00
  -6  -2  -6  171.38   21.20
   6   2   6  145.29   19.20
   6   2   6  164.48   19.90
   6  -3  -6  298.47   20.40
   6  -3  -6  316.27   20.80
  -6   3   6  331.07   19.40
   5  -3  -6   -2.80    7.70
   5  -3  -6   -5.30    8.40
  -5   3   6   11.10    7.00
   4  -3  -6  507.85   21.70
   4  -3  -6  518.25   23.40
   4  -3  -6  529.45   22.40
  -4   3   6  533.45   21.60
   3  -3  -6 1227.18   39.20
   3  -3  -6 1005.10   38.70
   3  -3  -6 1188.48   37.90
  -3   3   6 1163.18   37.80
   2  -3  -6 1147.29   37.10
   2  -3  -6 1134.09   38.90
   2  -3  -6 1169.98   38.20
   1  -3  -6  621.14   21.30
   1  -3  -6  597.44   21.90
   1  -3  -6  595.74   23.20
  -1   3   6  561.34   22.90
   0  -3  -6   46.90    5.80
   0  -3  -6   58.19    6.40
   0  -3  -6   55.09    7.50
   0   3   6   34.80   10.20
  -1  -3  -6  250.37   12.30
  -1  -3  -6  245.48   14.20
  -1  -3  -6  230.78   12.40
   1   3   6  215.38   19.80
  -2  -3  -6  893.31   30.50
  -2  -3  -6  908.31   30.30
  -2  -3  -6  889.51   32.10
   2   3   6  776.82   36.30
  -3  -3  -6 1255.97   42.00
  -3  -3  -6 1301.17   43.20
  -3  -3  -6 1280.97   44.40
   3   3   6 1277.57   50.89
  -4  -3  -6  505.05   23.10
  -4  -3  -6  527.45   24.90
  -4  -3  -6  540.45   26.00
   4   3   6  572.24   26.70
   4   3   6  496.45   32.60
  -5  -3  -6   23.90   10.20
  -5  -3  -6   -3.50   13.20
   5   3   6    3.70   13.90
   5   3   6   16.00   14.20
   6  -4  -6  140.59   17.60
   6  -4  -6  139.39   15.90
  -6   4   6  140.39   17.30
   5  -4  -6  836.72   33.40
   5  -4  -6  850.01   33.50
  -5   4   6  841.52   32.20
   4  -4  -6  696.93   28.30
   4  -4  -6  680.03   27.70
   4  -4  -6  680.53   26.10
  -4   4   6  664.63   26.20
   3  -4  -6  377.66   19.50
   3  -4  -6  382.76   16.30
   3  -4  -6  353.36   17.90
  -3   4   6  370.46   16.40
   2  -4  -6   13.40    5.50
   2  -4  -6   27.20    7.00
   2  -4  -6   22.60    7.80
   1  -4  -6  284.27   14.60
   1  -4  -6  271.57   15.70
   1  -4  -6  277.07   13.00
  -1   4   6  288.17   16.60
   0  -4  -6 1854.41   58.99
   0  -4  -6 1770.22   55.79
   0  -4  -6 1876.51   57.89
   0   4   6 1791.72   59.69
  -1  -4  -6 1339.27   44.50
  -1  -4  -6 1254.37   41.00
  -1  -4  -6 1313.17   43.00
   1   4   6 1271.87   47.10
  -2  -4  -6  282.27   16.10
  -2  -4  -6  296.87   17.80
   2   4   6  236.78   24.60
  -3  -4  -6   10.70    8.40
  -3  -4  -6   11.90    8.60
   3   4   6  -16.90   15.40
  -4  -4  -6   91.49   13.40
  -4  -4  -6   94.39   12.60
   4   4   6  103.09   20.20
   4   4   6   82.79   14.40
  -5  -4  -6  240.98   22.90
   5   4   6  251.07   31.30
   5   4   6  253.97   27.50
   5  -5  -6  138.69   16.20
   5  -5  -6  166.68   19.50
   5  -5  -6  135.99   16.40
  -5   5   6  136.09   13.10
   4  -5  -6    9.90    8.00
   4  -5  -6   31.00   10.40
   4  -5  -6    0.10    8.10
  -4   5   6    5.00    8.00
   3  -5  -6  173.38   15.10
   3  -5  -6  188.68   15.10
   3  -5  -6  210.98   16.60
   2  -5  -6 1288.97   44.60
   2  -5  -6 1284.27   44.00
   1  -5  -6 1527.85   50.89
   1  -5  -6 1564.54   51.89
   0  -5  -6  342.37   19.20
   0  -5  -6  333.67   17.80
   0   5   6  332.87   20.40
  -1  -5  -6   40.70    9.20
  -1  -5  -6   52.99    8.90
   1   5   6   56.09   12.80
  -2  -5  -6  302.07   19.30
  -2  -5  -6  254.37   17.70
   2   5   6  273.87   27.20
  -3  -5  -6  560.94   25.90
  -3  -5  -6  511.95   26.60
   3   5   6  500.85   36.10
  -4  -5  -6  371.46   25.20
  -4  -5  -6  433.06   26.70
   4   5   6  390.06   38.80
   4  -6  -6  633.54   30.50
   4  -6  -6  690.73   29.50
   3  -6  -6  949.11   37.50
   3  -6  -6  990.50   37.10
   2  -6  -6  149.19   17.20
   2  -6  -6  160.78   14.70
   1  -6  -6   26.10   10.00
   1  -6  -6   40.90    8.60
   0  -6  -6  350.56   21.20
   0  -6  -6  332.07   18.90
   0   6   6  341.97   22.40
  -1  -6  -6  491.75   25.20
  -1  -6  -6  490.65   23.90
   1   6   6  505.45   29.60
  -2  -6  -6  686.03   31.90
  -2  -6  -6  705.03   30.10
   2   6   6  678.23   38.80
   2  -7  -6  249.38   21.60
   2  -7  -6  241.38   19.20
   1  -7  -6  712.23   31.70
   1  -7  -6  676.33   30.00
   0  -7  -6  657.43   32.00
   0  -7  -6  665.43   29.50
  -1  -9   7  579.64   28.80
   0   9  -7  560.14   26.10
   0  -9   7  528.75   26.80
  -1   9  -7  168.48   15.20
   1  -9   7  143.89   17.60
  -2   9  -7   17.30   11.70
   2  -9   7   27.80   11.10
  -3   9  -7  225.98   21.20
   3  -9   7  247.58   21.40
   3   8  -7  382.56   23.40
   3   8  -7  357.76   21.50
  -3  -8   7  342.17   23.60
   2   8  -7  609.64   27.20
   2   8  -7  559.54   26.00
  -2  -8   7  596.54   27.40
   1   8  -7  135.39   15.30
  -1  -8   7  154.28   16.40
   0   8  -7   10.90    8.60
   0  -8   7   35.10   10.20
  -1   8  -7  418.86   21.90
   1  -8   7  441.26   22.20
  -2   8  -7  725.43   30.20
   2  -8   7  730.03   30.50
  -3   8  -7  739.43   30.90
   3  -8   7  696.63   31.10
  -4   8  -7   94.29   13.00
   4  -8   7   93.79   14.60
   4   7  -7  307.37   21.00
   4   7  -7  321.87   25.50
   4   7  -7  326.77   27.30
   4   7  -7  310.57   20.30
   3   7  -7   88.19   11.10
   3   7  -7  116.59   12.40
   3   7  -7  126.29   15.90
   3   7  -7  105.49   12.20
  -3  -7   7   92.09   12.00
   2   7  -7   26.30    8.70
   2   7  -7   33.90    9.00
   2   7  -7   38.60    7.50
  -2  -7   7   15.80    8.50
   1   7  -7  636.64   25.40
  -1  -7   7  638.64   26.00
   0   7  -7  968.50   34.90
   0  -7   7 1012.60   36.00
  -1   7  -7  706.33   27.60
   1  -7   7  743.43   29.10
  -2   7  -7  137.09   13.90
   2  -7   7  151.48   15.40
  -3   7  -7   35.20    9.20
   3  -7   7   21.80    9.70
  -4   7  -7  396.66   21.80
   4  -7   7  387.96   23.50
  -5   7  -7  502.35   26.20
   5  -7   7  479.25   30.80
   5   6  -7   27.20   10.20
   5   6  -7   34.90   10.50
   5   6  -7   35.10   14.60
  -5  -6   7   52.49   12.80
   4   6  -7   16.30    9.20
   4   6  -7   34.80    9.30
   4   6  -7   47.90   13.30
   3   6  -7  366.76   21.70
   3   6  -7  388.46   18.90
   3   6  -7  344.37   18.70
   3   6  -7  389.36   18.90
  -3  -6   7  379.76   18.50
   2   6  -7 1417.76   46.00
   2   6  -7 1410.16   47.20
   2   6  -7 1410.86   45.00
   2   6  -7 1383.96   46.60
  -2  -6   7 1371.56   45.80
   1   6  -7  860.91   31.60
   1   6  -7  880.11   29.70
   1   6  -7  908.31   32.00
  -1  -6   7  911.31   31.50
   0   6  -7   81.19    7.70
   0   6  -7   76.69    8.20
   0  -6   7   81.19    8.80
  -1   6  -7  235.88   14.00
   1  -6   7  249.97   15.20
  -2   6  -7  547.55   22.80
   2  -6   7  548.25   23.80
  -3   6  -7  851.11   32.00
   3  -6   7  813.82   32.90
  -4   6  -7  495.55   23.80
   4  -6   7  493.75   25.40
  -5   6  -7  135.09   16.00
   5  -6   7  126.49   16.90
   5   5  -7  321.47   19.40
   5   5  -7  348.57   23.90
   5   5  -7  300.97   18.90
  -5  -5   7  296.87   21.20
   4   5  -7  911.81   35.70
   4   5  -7  888.81   33.90
   4   5  -7  951.20   33.80
  -4  -5   7  924.91   34.90
   3   5  -7  497.65   20.10
   3   5  -7  519.05   22.30
   3   5  -7  486.95   21.60
   3   5  -7  504.45   21.20
   2   5  -7   28.50    7.10
   2   5  -7    8.90    5.40
   2   5  -7   20.60    5.80
   2   5  -7    6.40    5.90
  -2  -5   7   14.80    5.70
   1   5  -7  189.48   10.80
   1   5  -7  189.88   10.80
   1   5  -7  188.88   12.30
  -1  -5   7  193.88   11.60
   0   5  -7  515.15   18.40
   0   5  -7  494.75   20.40
   0  -5   7  513.45   19.80
  -1   5  -7 1389.76   46.60
  -1   5  -7 1434.66   43.90
   1  -5   7 1454.35   46.50
  -2   5  -7 1144.19   40.50
  -2   5  -7 1255.57   37.50
   2  -5   7 1187.28   40.90
  -3   5  -7  198.48   15.00
   3  -5   7  239.38   16.70
  -4   5  -7  221.98   16.40
   4  -5   7  217.28   19.40
  -5   5  -7  553.84   26.10
   5  -5   7  579.94   30.90
  -6   5  -7  416.86   24.70
   6  -5   7  334.47   32.00
   6   4  -7  226.78   22.80
   6   4  -7  262.47   18.40
   6   4  -7  281.87   19.00
  -6  -4   7  224.78   20.00
   5   4  -7  232.48   16.80
   5   4  -7  205.08   19.90
   5   4  -7  246.18   16.40
  -5  -4   7  220.68   17.20
   4   4  -7   12.40    7.40
   4   4  -7   17.70    7.60
   4   4  -7   23.30    8.80
  -4  -4   7   15.70    8.10
   3   4  -7   63.29    6.70
   3   4  -7   52.69    7.80
   3   4  -7   63.39    8.90
   3   4  -7   69.59    8.00
   2   4  -7  967.80   32.90
   2   4  -7 1001.90   32.00
   2   4  -7  980.50   33.90
   2   4  -7  988.70   31.70
  -2  -4   7  947.81   31.70
   1   4  -7 1724.33   51.29
   1   4  -7 1755.62   53.39
   1   4  -7 1705.23   54.59
  -1  -4   7 1695.23   52.99
   0   4  -7 1459.65   45.20
   0   4  -7 1424.16   46.70
   0  -4   7 1461.15   45.60
  -1   4  -7   19.10    5.80
  -1   4  -7   21.80    4.60
   1  -4   7   13.90    5.30
  -2   4  -7  445.96   19.60
  -2   4  -7  437.66   16.90
   2  -4   7  461.35   19.60
  -3   4  -7  851.61   32.20
  -3   4  -7  884.71   29.40
   3  -4   7  880.31   33.10
  -4   4  -7  522.65   20.90
  -4   4  -7  507.35   23.60
   4  -4   7  528.85   26.90
  -5   4  -7  385.86   21.50
   5  -4   7  400.36   26.00
  -6   4  -7  114.89   14.40
   6  -4   7   84.19   18.50
   6   3  -7   32.50    9.70
   6   3  -7   24.20    9.60
   6   3  -7    9.90   11.70
  -6  -3   7   31.00   10.60
   5   3  -7   58.49    9.20
   5   3  -7   39.50    9.10
   5   3  -7   56.09   11.40
  -5  -3   7   56.59    9.70
   4   3  -7 1108.39   38.60
   4   3  -7 1102.99   38.30
   4   3  -7 1114.09   38.30
  -4  -3   7 1069.79   38.40
   3   3  -7 1487.85   50.29
   3   3  -7 1583.44   50.29
   3   3  -7 1605.14   47.50
   3   3  -7 1607.84   49.40
  -3  -3   7 1480.05   50.29
   2   3  -7  430.36   15.30
   2   3  -7  423.76   18.30
   2   3  -7  420.56   17.50
   2   3  -7  451.25   16.10
  -2  -3   7  427.56   15.10
   1   3  -7   45.40    5.80
   1   3  -7   45.60    6.10
   1   3  -7   31.90    5.90
  -1  -3   7   36.20    5.00
   0   3  -7  167.68   10.90
   0   3  -7  158.08    9.70
   0  -3   7  148.79    9.30
  -1   3  -7  871.91   30.90
  -1   3  -7  921.91   29.60
   1  -3   7  886.41   30.00
  -2   3  -7 1583.04   52.19
  -2   3  -7 1666.03   50.49
   2  -3   7 1614.54   51.99
  -3   3  -7 1098.49   35.30
  -3   3  -7  982.70   36.90
   3  -3   7 1107.99   38.60
  -4   3  -7    1.20    6.30
  -4   3  -7    7.20    7.70
   4  -3   7   14.30   10.80
  -5   3  -7  170.98   16.40
  -5   3  -7  174.18   15.20
   5  -3   7  167.18   18.20
  -6   3  -7  389.76   24.30
   6  -3   7  381.66   30.10
   6   2  -7  363.06   21.90
   6   2  -7  408.16   22.10
   6   2  -7  403.46   24.10
  -6  -2   7  373.36   22.20
   5   2  -7  829.72   32.90
   5   2  -7  869.51   32.40
   5   2  -7  857.51   32.40
  -5  -2   7  846.82   32.40
   4   2  -7  218.68   14.30
   4   2  -7  228.58   14.20
   4   2  -7  211.68   14.20
  -4  -2   7  220.38   13.90
   3   2  -7    7.90    5.50
   3   2  -7    2.70    5.50
   3   2  -7    3.50    5.00
  -3  -2   7    2.00    5.40
   2   2  -7  303.57   14.40
   2   2  -7  289.87   12.10
   2   2  -7  292.87   17.50
   2   2  -7  295.27   14.00
   1   2  -7  802.72   24.10
   1   2  -7  767.62   27.60
   1   2  -7  794.32   27.10
   1   2  -7  786.92   26.80
  -1  -2   7  766.62   24.50
   0   2  -7 2406.16   72.49
   0   2  -7 2454.25   73.39
   0   2  -7 2280.27   73.69
   0  -2   7 2393.66   71.29
  -1   2  -7 1403.16   45.90
  -1   2  -7 1443.16   45.00
   1  -2   7 1418.26   44.80
  -2   2  -7   11.40    5.00
  -2   2  -7   14.90    6.30
   2  -2   7    5.60    5.80
  -3   2  -7  756.12   27.60
  -3   2  -7  775.12   29.20
   3  -2   7  794.42   31.00
  -4   2  -7  812.42   29.90
  -4   2  -7  834.22   32.20
   4  -2   7  809.72   35.00
  -5   2  -7  476.95   23.50
  -5   2  -7  434.26   22.00
   5  -2   7  467.15   27.80
  -6   2  -7  152.98   18.40
  -6   2  -7  151.08   14.80
   6  -2   7  172.88   19.70
   6   1  -7   18.30   10.30
   6   1  -7   43.20   10.00
   6   1  -7   49.50   11.70
  -6  -1   7   61.69   10.70
   5   1  -7  -12.70    8.30
   5   1  -7   -5.10    6.90
   5   1  -7   -2.80    6.70
  -5  -1   7    9.40    6.50
   4   1  -7  152.78   12.20
   4   1  -7  134.09   12.60
   4   1  -7  126.29   12.30
  -4  -1   7  138.79   12.10
   3   1  -7  717.13   26.50
   3   1  -7  691.33   26.30
   3   1  -7  734.33   25.10
  -3  -1   7  713.73   26.50
   2   1  -7 2319.97   71.69
   2   1  -7 2354.56   69.49
   2   1  -7 2282.07   71.39
   1   1  -7 1171.68   38.90
   1   1  -7 1195.88   36.00
   1   1  -7 1192.48   38.70
  -1  -1   7 1188.98   39.50
   0   1  -7   12.50    4.70
   0   1  -7   18.00    8.30
   0   1  -7   13.00    5.10
   0  -1   7   10.40    3.20
  -1   1  -7 1293.47   42.30
  -1   1  -7 1316.07   42.90
   1  -1   7 1330.57   41.90
  -2   1  -7  941.71   32.20
  -2   1  -7  927.31   32.70
   2  -1   7  959.90   33.50
  -3   1  -7  803.82   28.90
  -3   1  -7  794.92   29.80
   3  -1   7  774.82   31.70
  -4   1  -7  410.66   21.60
  -4   1  -7  399.56   19.40
   4  -1   7  406.76   24.50
  -5   1  -7   52.19   10.70
  -5   1  -7   71.99   10.30
   5  -1   7   42.40   13.50
  -6   1  -7  193.38   19.50
  -6   1  -7  149.19   18.30
   6  -1   7  173.28   19.80
   6   0  -7  144.69   16.70
   6   0  -7  142.99   14.50
  -6   0   7  164.38   15.40
   5   0  -7 1048.20   38.50
   5   0  -7 1059.39   38.30
   5   0  -7 1075.59   38.50
  -5   0   7 1063.79   38.10
   4   0  -7  917.51   33.60
   4   0  -7  903.11   33.40
   4   0  -7  966.20   33.00
  -4   0   7  938.01   33.30
   3   0  -7  185.78   12.80
   3   0  -7  230.88   12.10
   3   0  -7  228.68   13.50
  -3   0   7  204.18   12.70
   2   0  -7   90.09    7.60
   2   0  -7   72.99    7.90
   2   0  -7   86.99    9.10
   1   0  -7  528.95   17.90
   1   0  -7  500.45   20.30
   1   0  -7  529.85   20.30
  -1   0   7  536.95   20.20
   0   0  -7 1392.86   44.30
   0   0  -7 1384.46   41.40
   0   0  -7 1369.46   44.30
   0   0  -7 1389.26   42.70
   0   0   7 1352.76   42.10
   0   0   7 1344.37   41.90
  -1   0  -7 1152.88   39.10
  -1   0  -7 1202.98   39.20
  -1   0  -7 1198.88   36.20
   1   0   7 1187.98   38.90
  -2   0  -7  668.13   22.20
  -2   0  -7  615.34   24.40
  -2   0  -7  650.73   24.70
   2   0   7  639.44   26.00
   2   0   7  659.73   22.00
  -3   0  -7   18.30    7.50
  -3   0  -7   21.10    7.10
   3   0   7   29.20    8.30
   3   0   7   39.40   10.50
  -4   0  -7  299.07   18.40
  -4   0  -7  314.97   17.60
   4   0   7  284.27   23.60
  -5   0  -7  803.02   31.70
  -5   0  -7  768.22   33.00
   5   0   7  820.02   37.20
  -6   0  -7  414.16   25.80
  -6   0  -7  387.46   23.10
   6   0   7  314.87   28.20
   6  -1  -7  306.27   20.90
   6  -1  -7  298.57   20.90
  -6   1   7  332.47   19.30
   5  -1  -7   92.09   11.00
   5  -1  -7   79.09   10.50
   5  -1  -7   96.39   11.20
  -5   1   7  107.39   12.80
   4  -1  -7   -3.70    7.00
   4  -1  -7   11.50    6.90
   4  -1  -7    9.60    7.00
  -4   1   7    8.10    6.50
   3  -1  -7  168.88   12.80
   3  -1  -7  191.08   11.70
   3  -1  -7  158.48   12.40
  -3   1   7  170.38   12.00
   2  -1  -7 1601.54   51.09
   2  -1  -7 1626.94   49.90
   2  -1  -7 1577.84   51.59
   1  -1  -7 2337.57   73.19
   1  -1  -7 2389.26   72.69
   1  -1  -7 2378.46   71.19
   0  -1  -7  634.64   24.10
   0  -1  -7  626.24   23.20
   0  -1  -7  652.53   21.60
   0   1   7  639.14   22.00
  -1  -1  -7  336.37   15.50
  -1  -1  -7  316.87   15.90
  -1  -1  -7  328.97   13.20
   1   1   7  323.87   16.90
  -2  -1  -7  771.52   28.60
  -2  -1  -7  805.22   27.00
  -2  -1  -7  766.82   29.00
   2   1   7  842.42   31.20
  -3  -1  -7  669.53   27.20
  -3  -1  -7  717.23   26.50
  -3  -1  -7  649.54   26.90
   3   1   7  686.93   26.80
   3   1   7  724.73   30.80
  -4  -1  -7  368.86   21.10
  -4  -1  -7  389.46   20.20
   4   1   7  357.66   25.20
  -5  -1  -7  212.98   18.10
  -5  -1  -7  279.27   21.20
   5   1   7  252.57   24.60
   6  -2  -7   16.20   10.40
   6  -2  -7    6.80   10.00
   6  -2  -7    2.70   10.20
  -6   2   7    7.40    8.90
   5  -2  -7  333.87   19.70
   5  -2  -7  347.47   19.50
   5  -2  -7  323.87   19.70
  -5   2   7  319.57   18.00
   4  -2  -7  785.22   30.90
   4  -2  -7  892.91   32.10
   4  -2  -7  857.61   31.40
  -4   2   7  798.72   30.40
   3  -2  -7  983.70   34.70
   3  -2  -7 1015.60   34.50
   3  -2  -7  980.80   35.50
  -3   2   7 1024.50   34.60
   2  -2  -7  190.28   13.10
   2  -2  -7  184.48   12.10
   2  -2  -7  197.38   11.60
   1  -2  -7   27.70    5.90
   1  -2  -7   36.10    6.80
   1  -2  -7   30.20    5.90
   0  -2  -7  551.84   23.10
   0  -2  -7  610.14   21.40
   0  -2  -7  614.34   21.90
   0   2   7  576.94   22.70
  -1  -2  -7 1200.28   41.30
  -1  -2  -7 1223.68   39.10
  -1  -2  -7 1233.28   39.80
   1   2   7 1220.58   42.30
  -2  -2  -7 1288.27   42.90
  -2  -2  -7 1284.77   42.40
  -2  -2  -7 1289.37   44.80
   2   2   7 1383.26   46.80
  -3  -2  -7  278.57   16.10
  -3  -2  -7  263.07   15.90
  -3  -2  -7  246.08   16.80
   3   2   7  250.57   16.90
   3   2   7  274.17   22.10
  -4  -2  -7   42.90   10.50
  -4  -2  -7   48.40    9.50
  -4  -2  -7   74.19   14.20
   4   2   7   38.90   17.60
   4   2   7   45.50   15.30
  -5  -2  -7  320.87   22.60
  -5  -2  -7  308.27   21.20
   5   2   7  357.86   27.60
   5  -3  -7  491.45   24.40
   5  -3  -7  521.65   24.90
   5  -3  -7  485.85   24.40
  -5   3   7  527.25   23.90
   4  -3  -7  100.59   10.90
   4  -3  -7  115.69   11.60
   4  -3  -7  134.29   14.10
  -4   3   7   89.49   10.40
   3  -3  -7   90.29    9.20
   3  -3  -7  102.29   10.70
   3  -3  -7   85.19    9.60
   2  -3  -7  868.01   31.30
   2  -3  -7  897.31   30.70
   2  -3  -7  899.41   32.90
   1  -3  -7  889.81   30.40
   1  -3  -7  883.81   29.90
   1  -3  -7  838.72   31.80
   0  -3  -7  693.63   24.50
   0  -3  -7  662.43   23.90
   0  -3  -7  645.54   26.20
   0   3   7  618.94   28.00
  -1  -3  -7  190.98   12.50
  -1  -3  -7  201.88   14.20
  -1  -3  -7  194.48   12.40
   1   3   7  222.68   19.50
  -2  -3  -7   13.30    7.10
  -2  -3  -7    2.30    6.80
  -2  -3  -7    7.50    6.70
   2   3   7   19.90   11.80
  -3  -3  -7  443.96   21.00
  -3  -3  -7  435.96   22.00
  -3  -3  -7  435.56   22.00
   3   3   7  439.46   29.80
  -4  -3  -7  756.12   34.30
  -4  -3  -7  675.13   31.10
   4   3   7  659.63   36.80
   4   3   7  735.03   38.40
   5  -4  -7    8.40   10.40
   5  -4  -7   17.30   10.70
   5  -4  -7   39.10   11.20
  -5   4   7   21.80   10.30
   4  -4  -7  324.47   20.10
   4  -4  -7  307.67   19.00
   4  -4  -7  279.17   18.10
  -4   4   7  339.77   18.60
   3  -4  -7 1144.59   40.10
   3  -4  -7 1090.29   39.20
   3  -4  -7 1084.79   37.70
   2  -4  -7  795.42   30.80
   2  -4  -7  870.11   32.10
   2  -4  -7  809.82   29.00
   1  -4  -7   72.59    9.10
   1  -4  -7   76.19   10.10
   1  -4  -7   50.99    7.60
   0  -4  -7  177.58   14.90
   0  -4  -7  178.98   14.00
  -1  -4  -7  470.55   22.00
  -1  -4  -7  481.55   21.30
   1   4   7  405.06   28.10
  -2  -4  -7  632.84   26.60
  -2  -4  -7  657.43   28.70
   2   4   7  627.74   34.80
  -3  -4  -7  452.35   23.90
  -3  -4  -7  397.56   24.40
   3   4   7  501.75   34.30
  -4  -4  -7   42.40   12.40
  -4  -4  -7   48.40   19.20
   4   4   7   28.50   19.20
   4  -5  -7  296.57   21.50
   4  -5  -7  272.27   19.80
   3  -5  -7   52.09   10.20
   3  -5  -7   73.59   12.10
   2  -5  -7   85.09   11.90
   2  -5  -7   72.89   10.30
   1  -5  -7  468.55   22.50
   1  -5  -7  476.65   23.70
   0  -5  -7 1093.49   39.20
   0  -5  -7 1093.49   40.50
  -1  -5  -7  549.05   26.10
  -1  -5  -7  558.64   25.60
  -2  -5  -7   47.80   11.30
  -2  -5  -7   52.39   11.90
   2   5   7   38.50   18.70
   2  -6  -7  811.32   34.30
   2  -6  -7  777.42   32.80
   1  -6  -7  543.75   26.50
   1  -6  -7  482.55   25.00
   0  -6  -7   29.20   11.50
   0  -6  -7   10.20    9.90
  -1  -6  -7  166.48   18.70
  -1  -6  -7  167.28   17.10
   2   8  -8  227.88   18.80
   2   8  -8  203.98   19.90
  -2  -8   8  191.68   19.60
   1   8  -8  398.06   22.00
  -1  -8   8  410.56   22.80
   0   8  -8  522.05   24.80
   0  -8   8  516.75   25.50
  -1   8  -8   87.19   11.80
   1  -8   8   80.79   12.60
  -2   8  -8  184.08   17.80
   2  -8   8  208.18   18.60
  -3   8  -8  661.13   30.00
   3  -8   8  686.33   31.70
   3   7  -8  338.97   20.10
   3   7  -8  334.77   21.00
   2   7  -8  210.28   16.40
   2   7  -8  216.18   17.60
  -2  -7   8  184.48   16.70
   1   7  -8   -8.50    7.10
  -1  -7   8   -0.50    8.30
   0   7  -8  100.69   10.50
   0  -7   8  111.09   11.90
  -1   7  -8  667.73   27.60
   1  -7   8  681.63   28.50
  -2   7  -8  699.33   29.40
   2  -7   8  751.42   30.60
  -3   7  -8  277.77   19.30
   3  -7   8  293.17   21.10
  -4   7  -8   -6.90   10.10
   4  -7   8   -8.10   11.50
   4   6  -8  220.78   18.80
   4   6  -8  269.57   18.80
   3   6  -8   10.90    8.50
   2   6  -8  457.75   20.40
   2   6  -8  456.95   20.00
   2   6  -8  457.35   21.20
  -2  -6   8  418.86   20.10
   1   6  -8  652.13   26.10
   1   6  -8  639.54   23.80
  -1  -6   8  647.04   25.20
   0   6  -8  630.34   23.10
   0   6  -8  608.44   25.30
   0  -6   8  676.13   25.40
  -1   6  -8  341.97   17.80
   1  -6   8  308.97   17.70
  -2   6  -8    4.00    7.10
   2  -6   8   -5.70    8.70
  -3   6  -8  239.18   17.30
   3  -6   8  254.17   19.40
  -4   6  -8  512.15   24.50
   4  -6   8  447.46   26.70
  -5   6  -8  329.87   22.50
   5  -6   8  347.57   27.80
   5   5  -8   14.30    9.50
   5   5  -8    5.40   10.00
  -5  -5   8    9.60   10.80
   4   5  -8  151.68   15.20
   4   5  -8  159.78   15.30
   3   5  -8  469.25   21.80
   3   5  -8  456.85   21.40
   2   5  -8 1027.80   33.60
   2   5  -8  994.90   35.70
   2   5  -8  965.30   34.30
  -2  -5   8  988.70   33.60
   1   5  -8  418.36   19.50
   1   5  -8  431.76   17.70
  -1  -5   8  399.36   17.50
   0   5  -8   10.00    5.30
   0   5  -8  -12.50    5.90
   0  -5   8   -0.40    5.70
  -1   5  -8  687.73   23.60
  -1   5  -8  647.84   26.20
   1  -5   8  676.43   25.70
  -2   5  -8  831.32   27.90
  -2   5  -8  812.72   30.90
   2  -5   8  813.52   31.20
  -3   5  -8  694.13   28.10
   3  -5   8  665.03   29.20
  -4   5  -8  186.38   16.80
   4  -5   8  184.28   19.70
  -5   5  -8    4.60   10.20
   5  -5   8   13.30   13.80
   5   4  -8  307.37   19.70
   5   4  -8  359.86   19.70
   5   4  -8  333.07   22.50
  -5  -4   8  310.47   20.90
   4   4  -8  318.57   18.50
   4   4  -8  309.77   17.80
   4   4  -8  337.77   19.00
   3   4  -8  190.58   13.70
   3   4  -8  182.88   14.30
   2   4  -8    8.00    6.20
   2   4  -8    6.60    6.40
   1   4  -8  421.56   19.00
   1   4  -8  417.46   17.50
  -1  -4   8  394.76   16.60
   0   4  -8 1484.35   46.30
   0   4  -8 1447.76   48.10
   0  -4   8 1449.55   46.40
  -1   4  -8 1169.08   40.60
  -1   4  -8 1210.58   38.40
   1  -4   8 1181.48   39.30
  -2   4  -8  188.08   11.30
  -2   4  -8  165.28   13.60
   2  -4   8  165.68   13.70
  -3   4  -8   25.30    8.00
  -3   4  -8   26.60    6.50
   3  -4   8   21.10   10.00
  -4   4  -8  269.37   18.40
   4  -4   8  240.58   21.40
  -5   4  -8  366.76   23.00
   5  -4   8  346.57   26.50
   5   3  -8  103.79   11.20
   5   3  -8   98.99   12.90
   5   3  -8   59.79   10.30
  -5  -3   8   77.09   11.60
   4   3  -8  109.39   12.80
   4   3  -8  104.59   12.60
   4   3  -8   97.49   10.30
  -4  -3   8   72.29    9.90
   3   3  -8  383.96   18.90
   3   3  -8  387.36   16.70
   3   3  -8  389.26   18.10
   2   3  -8 1008.00   35.30
   2   3  -8  990.30   34.30
   1   3  -8  800.82   29.40
   1   3  -8  832.82   28.80
  -1  -3   8  800.42   26.50
   0   3  -8  246.78   12.80
   0   3  -8  232.08   13.50
   0  -3   8  236.18   12.20
  -1   3  -8  105.09    9.80
  -1   3  -8  102.99   10.80
   1  -3   8  125.59   10.40
  -2   3  -8  314.47   16.60
  -2   3  -8  291.57   14.60
   2  -3   8  302.37   15.90
  -3   3  -8  737.93   28.60
  -3   3  -8  705.13   26.30
   3  -3   8  664.33   29.30
  -4   3  -8  724.93   30.10
  -4   3  -8  723.83   27.60
   4  -3   8  662.33   32.80
  -5   3  -8  190.08   19.80
  -5   3  -8  265.67   19.20
   5  -3   8  241.58   24.50
   6   2  -8   21.50   11.20
   6   2  -8   15.10   12.50
   6   2  -8    6.30   10.40
  -6  -2   8    7.20   10.90
   5   2  -8  262.07   19.70
   5   2  -8  229.08   16.80
   5   2  -8  267.87   17.80
  -5  -2   8  250.17   17.80
   4   2  -8  810.42   31.10
   4   2  -8  810.62   31.10
   4   2  -8  822.32   30.10
  -4  -2   8  813.92   30.80
   3   2  -8  696.73   27.20
   3   2  -8  697.63   27.30
   3   2  -8  745.23   25.20
   2   2  -8  117.29    8.40
   2   2  -8  115.99   11.50
   2   2  -8  121.09   10.80
   1   2  -8  124.49   10.30
   1   2  -8   98.39   10.50
  -1  -2   8  104.89    7.80
   0   2  -8  654.23   25.00
   0   2  -8  660.13   24.30
   0  -2   8  646.04   22.30
  -1   2  -8 1121.29   39.20
  -1   2  -8 1153.78   38.30
   1  -2   8 1170.18   37.60
  -2   2  -8  802.02   29.50
  -2   2  -8  828.22   30.90
   2  -2   8  861.91   30.60
  -3   2  -8  201.98   15.60
  -3   2  -8  220.48   14.50
   3  -2   8  205.88   17.60
  -4   2  -8   66.19   10.10
  -4   2  -8   54.29   10.70
   4  -2   8   87.99   14.80
  -5   2  -8  318.27   20.80
  -5   2  -8  312.07   21.40
   5  -2   8  320.07   27.20
   6   1  -8  269.67   20.30
   6   1  -8  268.07   20.50
   6   1  -8  234.18   22.00
  -6  -1   8  232.88   20.00
   5   1  -8  289.47   19.00
   5   1  -8  336.17   20.10
   5   1  -8  382.86   20.90
  -5  -1   8  339.77   19.00
   4   1  -8   36.20    8.10
   4   1  -8   59.39    8.30
   4   1  -8   41.00    8.30
  -4  -1   8   30.90    7.80
   3   1  -8   29.90    6.50
   3   1  -8   29.90    6.90
   3   1  -8   31.00    7.40
   2   1  -8  662.13   25.60
   2   1  -8  666.73   25.10
   2   1  -8  650.53   22.40
   1   1  -8 1218.58   36.90
   1   1  -8 1222.28   40.50
   1   1  -8 1193.58   40.70
   0   1  -8 1366.36   44.40
   0   1  -8 1337.27   43.80
   0  -1   8 1310.37   41.30
  -1   1  -8  128.79   12.10
  -1   1  -8  129.29   10.80
   1  -1   8   99.89   10.70
  -2   1  -8  177.48   12.40
  -2   1  -8  144.29   13.30
   2  -1   8  187.88   14.10
  -3   1  -8  774.92   30.60
  -3   1  -8  766.82   29.40
   3  -1   8  782.42   32.30
  -4   1  -8  495.15   22.50
  -4   1  -8  441.16   23.70
   4  -1   8  459.55   28.00
  -5   1  -8  296.07   20.80
  -5   1  -8  202.08   18.80
   5  -1   8  212.48   25.40
   6   0  -8   -0.10   11.10
   6   0  -8   -6.10   11.10
   5   0  -8   51.59   10.30
   5   0  -8   48.60   10.40
   5   0  -8   65.89   11.10
  -5   0   8   84.99   10.30
   4   0  -8  430.06   20.60
   4   0  -8  401.26   19.90
   4   0  -8  449.95   20.20
  -4   0   8  389.16   19.70
   3   0  -8  933.51   33.60
   3   0  -8  930.31   33.60
   3   0  -8  913.51   31.50
   2   0  -8  694.83   26.40
   2   0  -8  694.83   26.50
   2   0  -8  671.53   23.70
   1   0  -8   27.60    4.50
   1   0  -8   22.80    6.00
   1   0  -8   20.40    6.80
   0   0  -8  143.19   12.40
   0   0  -8  174.98   11.90
   0   0   8  157.48    8.90
  -1   0  -8  495.25   21.10
  -1   0  -8  556.74   21.90
   1   0   8  474.85   20.50
  -2   0  -8  779.82   29.00
  -2   0  -8  722.13   28.80
   2   0   8  797.72   29.90
  -3   0  -8  864.21   33.00
  -3   0  -8  821.02   32.00
   3   0   8  869.51   34.80
  -4   0  -8  104.19   11.80
  -4   0  -8  118.99   13.30
   4   0   8  136.89   16.70
  -5   0  -8   81.99   14.60
  -5   0  -8  100.59   13.00
   5   0   8   83.09   17.50
   5  -1  -8  459.75   24.00
   5  -1  -8  441.66   23.00
   5  -1  -8  487.05   24.00
  -5   1   8  459.85   22.00
   4  -1  -8  285.87   18.00
   4  -1  -8  293.37   17.90
   4  -1  -8  264.17   17.20
  -4   1   8  286.47   16.60
   3  -1  -8   59.29    8.70
   3  -1  -8   76.49    8.60
   3  -1  -8   80.59    9.80
   2  -1  -8  186.18   11.60
   2  -1  -8  193.78   13.60
   2  -1  -8  196.98   13.50
   1  -1  -8  814.22   27.10
   1  -1  -8  803.62   29.80
   1  -1  -8  789.02   29.30
   0  -1  -8 1254.37   42.00
   0  -1  -8 1266.17   39.60
   0  -1  -8 1270.07   42.90
  -1  -1  -8  591.14   23.40
  -1  -1  -8  540.65   23.20
   1   1   8  541.05   23.00
  -2  -1  -8   49.20    9.40
  -2  -1  -8   56.19    8.50
   2   1   8   71.49   10.60
  -3  -1  -8  205.08   17.60
  -3  -1  -8  224.08   16.30
   3   1   8  224.88   20.10
  -4  -1  -8  418.56   24.00
  -4  -1  -8  415.26   22.20
   4   1   8  432.16   28.80
  -5  -1  -8  281.87   24.10
  -5  -1  -8  301.07   21.00
   5   1   8  280.67   28.90
   5  -2  -8   16.20   10.70
   5  -2  -8   12.20   10.60
   5  -2  -8   16.10   10.50
  -5   2   8   21.90    9.00
   4  -2  -8  107.09   11.90
   4  -2  -8   97.09   11.80
   4  -2  -8  102.79   11.90
  -4   2   8   97.49   10.30
   3  -2  -8  596.14   26.00
   3  -2  -8  606.74   26.10
   3  -2  -8  656.83   25.20
   2  -2  -8 1173.48   40.00
   2  -2  -8 1174.48   38.10
   2  -2  -8 1065.99   38.70
   1  -2  -8  467.95   21.60
   1  -2  -8  509.25   19.80
   1  -2  -8  508.25   21.10
   0  -2  -8    3.80    6.50
   0  -2  -8    2.20    6.50
   0  -2  -8    8.90    5.80
  -1  -2  -8  260.97   16.20
  -1  -2  -8  278.47   15.80
  -1  -2  -8  305.87   15.50
   1   2   8  271.77   18.10
  -2  -2  -8  472.75   22.30
  -2  -2  -8  476.55   21.90
   2   2   8  473.45   25.00
  -3  -2  -8  599.24   26.70
  -3  -2  -8  594.04   26.70
   3   2   8  614.94   31.00
  -4  -2  -8  272.87   19.50
  -4  -2  -8  253.17   20.90
   4   2   8  262.57   27.10
   4  -3  -8  491.75   24.40
   4  -3  -8  470.95   23.80
   4  -3  -8  502.25   24.90
  -4   3   8  492.65   23.40
   3  -3  -8  356.56   19.30
   3  -3  -8  347.77   20.40
   3  -3  -8  368.36   20.10
   2  -3  -8   -4.30    7.00
   2  -3  -8   -0.20    7.70
   2  -3  -8   11.90    8.20
   1  -3  -8  228.78   14.60
   1  -3  -8  240.98   16.00
   1  -3  -8  219.78   14.70
   0  -3  -8  740.73   27.20
   0  -3  -8  716.63   27.40
   0  -3  -8  731.43   29.40
  -1  -3  -8  662.83   27.90
  -1  -3  -8  645.34   25.90
  -1  -3  -8  667.93   25.80
  -2  -3  -8  351.66   19.90
  -2  -3  -8  290.67   26.40
   2   3   8  343.67   25.00
  -3  -3  -8   15.60   10.10
   3   3   8   19.60   15.30
   4  -4  -8    9.10    9.70
   4  -4  -8   -2.30   10.30
   4  -4  -8    6.10   10.50
   3  -4  -8  181.08   21.80
   3  -4  -8  234.78   18.50
   3  -4  -8  235.58   18.40
   2  -4  -8  600.24   26.70
   2  -4  -8  550.64   25.20
   1  -4  -8  519.15   24.10
   1  -4  -8  554.04   25.70
   0  -4  -8  321.37   20.50
   0  -4  -8  390.76   20.10
  -1  -4  -8   -0.90    9.20
  -1  -4  -8    5.90    9.60
  -2  -4  -8  213.58   20.00
   2  -5  -8   37.80   11.20
   2  -5  -8   56.69   12.00
   1  -5  -8    2.50   10.60
   1  -5  -8   17.80   10.60
   0  -5  -8  135.69   13.70
   0  -5  -8  140.49   15.00
   0   8  -9  365.26   22.40
   0  -8   9  388.26   23.40
  -1   8  -9  413.66   23.30
   1  -8   9  379.46   24.60
   2   7  -9  350.16   21.50
   1   7  -9  243.98   18.00
  -1  -7   9  219.88   25.50
   0   7  -9   99.69   11.90
   0  -7   9   84.59   12.10
  -1   7  -9   34.10    9.40
   1  -7   9   32.90   10.70
  -2   7  -9  226.78   18.30
   2  -7   9  258.07   20.60
  -3   7  -9  388.66   23.00
   3  -7   9  392.66   26.10
   3   6  -9  341.27   20.00
   3   6  -9  278.27   19.60
   2   6  -9  115.39   12.10
   2   6  -9  162.08   15.00
   1   6  -9  105.59   11.40
   1   6  -9   94.29   11.00
   0   6  -9  618.44   26.20
   0  -6   9  593.24   25.30
  -1   6  -9  643.14   26.90
   1  -6   9  625.14   26.80
  -2   6  -9  148.29   15.00
   2  -6   9  172.18   18.10
  -3   6  -9   66.79   11.20
   3  -6   9   57.19   13.30
  -4   6  -9    5.50   11.00
   4  -6   9   19.90   13.60
   4   5  -9    3.80    9.30
   4   5  -9   -5.70    9.00
   3   5  -9   59.89   10.10
   3   5  -9   59.09   10.30
   2   5  -9  286.37   17.80
   2   5  -9  331.17   18.20
   1   5  -9  586.64   23.10
   1   5  -9  521.05   23.90
   0   5  -9  721.63   27.80
   0   5  -9  694.53   25.80
   0  -5   9  677.43   26.30
  -1   5  -9  100.29   11.20
  -1   5  -9  116.89   12.70
   1  -5   9  101.19   10.50
  -2   5  -9  162.58   14.50
   2  -5   9  159.68   16.50
  -3   5  -9  577.44   26.80
   3  -5   9  600.84   28.90
  -4   5  -9  411.56   24.40
   4  -5   9  364.36   27.80
   4   4  -9  277.87   18.20
   4   4  -9  235.88   18.30
   3   4  -9  391.66   19.50
   3   4  -9  386.76   20.00
   2   4  -9  435.96   20.20
   2   4  -9  413.26   20.30
   1   4  -9   48.30    8.00
   1   4  -9   32.00    7.90
   0   4  -9   82.59    9.50
   0   4  -9   79.49    8.80
   0  -4   9   88.19   10.60
  -1   4  -9  713.33   26.10
  -1   4  -9  695.43   27.50
   1  -4   9  667.23   26.10
  -2   4  -9  701.63   28.40
  -2   4  -9  699.13   26.40
   2  -4   9  713.13   28.50
  -3   4  -9  376.76   21.90
  -3   4  -9  444.56   22.50
   3  -4   9  424.96   24.20
  -4   4  -9    6.00   10.40
   4  -4   9   -1.30   13.30
   4   3  -9  240.08   16.30
   4   3  -9  229.88   17.60
   3   3  -9   11.60    7.70
   3   3  -9   18.50    7.30
   2   3  -9  324.77   17.30
   2   3  -9  313.57   17.00
   1   3  -9  740.63   28.20
   1   3  -9  716.83   27.50
   0   3  -9  505.65   22.10
   0   3  -9  505.05   21.10
  -1   3  -9  237.68   15.50
  -1   3  -9  234.78   14.80
   1  -3   9  248.28   14.40
  -2   3  -9   79.69    9.40
  -2   3  -9   90.39   10.00
   2  -3   9   78.29   10.00
  -3   3  -9   51.79   10.10
  -3   3  -9   39.00    9.10
   3  -3   9   54.09   11.90
  -4   3  -9  425.96   25.00
  -4   3  -9  435.46   22.80
   4  -3   9  445.26   28.40
   5   2  -9   -0.70    9.10
   5   2  -9   25.40   11.10
  -5  -2   9    7.40   10.60
   4   2  -9   82.29   10.40
   4   2  -9   71.39   11.00
   3   2  -9  444.86   21.50
   3   2  -9  438.36   21.00
   2   2  -9 1120.09   39.30
   2   2  -9 1117.79   39.00
   1   2  -9  357.56   18.60
   1   2  -9  376.96   18.10
   0   2  -9    2.50    7.10
   0   2  -9    0.40    6.20
  -1   2  -9  386.86   18.40
  -1   2  -9  396.96   19.80
   1  -2   9  392.76   18.00
  -2   2  -9  436.46   20.50
  -2   2  -9  458.85   21.70
   2  -2   9  426.66   21.00
  -3   2  -9  568.24   25.00
  -3   2  -9  566.94   25.60
   3  -2   9  532.15   27.40
  -4   2  -9  199.98   19.00
  -4   2  -9  174.88   17.50
   4  -2   9  171.58   18.60
   5   1  -9  212.88   18.60
   5   1  -9  255.47   20.00
  -5  -1   9  209.78   18.00
   4   1  -9  392.56   21.60
   4   1  -9  408.56   20.60
   3   1  -9  397.36   20.00
   3   1  -9  406.36   20.30
   2   1  -9   -1.10    6.90
   2   1  -9    7.40    7.60
   1   1  -9  406.26   19.90
   1   1  -9  387.46   18.70
   0   1  -9  946.31   33.90
   0   1  -9  934.61   34.40
  -1   1  -9  735.53   29.00
  -1   1  -9  718.43   28.00
  -2   1  -9  235.88   17.20
  -2   1  -9  261.07   15.80
   2  -1   9  253.27   17.30
  -3   1  -9   -3.40    9.10
  -3   1  -9   -3.90    8.00
   3  -1   9   -9.50   10.90
  -4   1  -9  165.98   15.30
  -4   1  -9  160.68   17.10
   4  -1   9  156.18   18.60
   5   0  -9   65.89   12.40
   5   0  -9  101.19   13.20
  -5   0   9  101.19   12.10
   4   0  -9   61.79   10.40
   4   0  -9   83.79   11.10
   3   0  -9  251.07   17.40
   3   0  -9  276.57   16.70
   2   0  -9  402.76   20.40
   2   0  -9  423.96   19.80
   1   0  -9  333.57   18.40
   1   0  -9  316.87   17.60
   0   0  -9  481.95   22.20
   0   0  -9  494.55   21.80
  -1   0  -9   12.90    7.30
  -1   0  -9   15.40    8.60
  -2   0  -9  236.38   18.00
  -2   0  -9  249.08   15.80
   2   0   9  222.28   17.80
  -3   0  -9  754.22   31.10
  -3   0  -9  790.02   32.70
   3   0   9  768.72   34.00
  -4   0  -9  345.57   22.00
  -4   0  -9  289.77   23.30
   4   0   9  357.16   27.20
   4  -1  -9  510.75   24.80
   4  -1  -9  498.15   25.10
   3  -1  -9  521.45   24.40
   3  -1  -9  554.24   25.00
   2  -1  -9   96.99   10.50
   2  -1  -9  115.39   12.00
   1  -1  -9   16.50    8.30
   1  -1  -9   18.40    7.40
   0  -1  -9  324.97   18.50
   0  -1  -9  291.47   17.10
  -1  -1  -9  708.03   28.30
  -1  -1  -9  673.33   27.90
  -2  -1  -9  507.75   25.10
  -2  -1  -9  542.55   24.30
  -3  -1  -9   80.19   13.70
  -3  -1  -9  115.09   12.60
   3   1   9   90.79   14.90
   4  -2  -9  129.59   14.40
   4  -2  -9  126.49   14.40
   3  -2  -9  -12.90    9.40
   3  -2  -9   10.50    9.30
   2  -2  -9  504.35   24.20
   2  -2  -9  540.05   24.70
   1  -2  -9  550.24   25.10
   1  -2  -9  574.64   24.80
   0  -2  -9  539.35   24.30
   0  -2  -9  513.35   23.90
  -1  -2  -9   86.79   10.70
  -1  -2  -9   80.59   11.10
  -2  -2  -9   -7.50    8.50
  -2  -2  -9    0.60   10.00
  -3  -2  -9  219.98   20.20
  -3  -2  -9  242.78   19.40
   3  -3  -9  261.47   20.70
   3  -3  -9  253.67   19.00
   2  -3  -9  322.77   19.60
   2  -3  -9  304.17   20.90
   1  -3  -9  231.98   18.40
   1  -3  -9  220.78   16.90
   0  -3  -9   12.30    9.70
  -1  -3  -9  401.26   23.10
  -2  -3  -9  498.45   26.50
   1   6 -10  147.39   15.80
   0   6 -10    8.30    9.00
  -1   6 -10  183.58   17.30
  -2   6 -10  313.07   21.00
   2  -6  10  352.06   23.00
   2   5 -10    4.80    8.20
   2   5 -10    9.60   10.00
   1   5 -10  322.77   19.00
   1   5 -10  294.77   19.00
   0   5 -10  394.56   20.90
   0   5 -10  380.26   20.30
  -1   5 -10  368.36   20.80
  -2   5 -10  142.19   16.90
   2  -5  10  157.18   18.00
  -3   5 -10   14.70   11.00
   3  -5  10   12.30   12.90
   3   4 -10  189.88   17.20
   3   4 -10  174.08   17.50
   2   4 -10  535.95   24.70
   2   4 -10  535.15   25.00
   1   4 -10  342.37   19.60
   1   4 -10  326.07   19.50
   0   4 -10  136.59   15.20
   0   4 -10  115.89   11.90
  -1   4 -10    7.80    8.60
  -1   4 -10   26.40    9.10
  -2   4 -10  184.28   16.80
  -2   4 -10  173.18   17.20
   2  -4  10  176.18   17.40
  -3   4 -10  410.26   24.20
   3  -4  10  381.06   24.90
   3   3 -10  176.08   16.70
   3   3 -10  132.59   16.20
   2   3 -10   79.49   11.20
   2   3 -10   75.89   10.40
   1   3 -10    3.40    8.60
   1   3 -10    5.10    7.90
   0   3 -10  192.08   15.90
   0   3 -10  179.98   15.40
  -1   3 -10  759.52   31.00
  -1   3 -10  752.72   29.90
  -2   3 -10  441.56   22.00
  -2   3 -10  406.56   23.00
  -3   3 -10   42.80   12.60
  -3   3 -10   52.49   11.80
   3  -3  10   54.99   13.30
   3   2 -10   49.50    9.60
   3   2 -10   51.19   10.50
   2   2 -10  341.07   19.40
   2   2 -10  360.06   20.70
   1   2 -10  456.55   21.50
   1   2 -10  452.55   22.90
   0   2 -10  451.25   22.70
   0   2 -10  482.85   21.90
  -1   2 -10   81.09   11.10
  -1   2 -10   67.29   10.20
  -2   2 -10   51.29    9.70
  -2   2 -10   40.90   10.40
  -3   2 -10  314.07   20.80
  -3   2 -10  279.97   21.10
   3  -2  10  269.17   24.70
   3   1 -10  393.06   22.40
   3   1 -10  411.56   21.10
   2   1 -10  386.36   21.30
   2   1 -10  402.26   20.30
   1   1 -10   56.99   10.00
   1   1 -10   45.10    8.90
   0   1 -10   49.70    9.20
   0   1 -10   59.59   10.20
  -1   1 -10  444.06   23.00
  -1   1 -10  443.36   22.10
  -2   1 -10  460.75   24.00
  -2   1 -10  478.45   23.20
  -3   1 -10  222.18   21.10
  -3   1 -10  236.48   19.40
   3   0 -10    7.80    9.00
   3   0 -10   -3.30    9.50
   2   0 -10   62.39   10.60
   1   0 -10  219.18   18.40
   1   0 -10  236.98   16.80
   0   0 -10  403.86   21.00
   0   0 -10  407.16   22.60
  -1   0 -10  291.87   20.90
  -1   0 -10  329.87   18.90
  -2   0 -10   88.69   11.60
  -2   0 -10   99.09   14.20
   2  -1 -10  601.34   27.90
   2  -1 -10  605.84   27.70
   1  -1 -10  291.37   18.90
   1  -1 -10  310.77   20.90
   0  -1 -10    4.60   10.60
   0  -1 -10   10.80    8.50
  -1  -1 -10  168.68   18.80
  -1  -1 -10  195.38   16.20
  -2  -1 -10  179.48   20.30
  -2  -1 -10  190.58   18.40
   1  -2 -10  112.99   13.20
   1  -2 -10   80.89   12.40
   0  -2 -10  442.26   24.70
   0  -2 -10  449.56   24.70
   0   4 -11  395.96   22.30
   0   4 -11  346.47   23.00
   1   3 -11   83.79   12.90
   1   3 -11  100.49   11.80
   0   3 -11   45.80   10.80
   0   3 -11   22.70   11.00
  -1   3 -11   61.59   12.10
  -1   3 -11   23.50   11.80
   1   2 -11  117.99   13.00
   1   2 -11   98.59   12.90
   0   2 -11  338.77   20.60
   0   2 -11  318.67   21.80
  -1   2 -11  295.97   20.10
  -1   2 -11  278.07   21.30
   0   0   0    0.00    0.00
_computing_structure_solution     'SHELXT 2014/5 (Sheldrick, 2014)'
;
_shelx_hkl_checksum              95071
_shelx_res_file
;
TITL RGR545_a.res in P-1 New: P-1
    rgr545_a_pl.res
    created by SHELXL-2018/3 at 16:47:22 on 23-Mar-2019
CELL 0.71073 6.436 7.9058 8.3495 104.055 90.956 96.2
ZERR 2 0.0004 0.0004 0.0005 0.001 0.002 0.002
LATT 1
SFAC C H O Pb
UNIT 10 12 16 2
EQIV $1 1-X,1-Y,-Z
EQIV $2 1-X,1-Y,1-Z
EQIV $3 +X,1+Y,1+Z
EQIV $4 -X,1-Y,1-Z
EQIV $5 -X,1-Y,-Z
EQIV $6 -1+X,+Y,+Z
DFIX 0.878 O7 H7a
DFIX 0.878 O7 H7b
DFIX 0.878 H8b O8
DFIX 0.878 H8a O8
L.S. 10
PLAN  -5
TEMP 0
HTAB O6 O3_$1
HTAB O6 O5_$2
HTAB O7 O3_$3
HTAB O7 O8_$4
HTAB O8 O2_$5
HTAB O8 O6_$6
BOND $H
HTAB
CONF
fmap 2
acta
REM <olex2.extras>
REM <HklSrc "%./rgr545_a_pl.hkl">
REM </olex2.extras>
WGHT    0.021700    0.016700
FVAR       0.62645
PB1   4    0.099120    0.709683    0.350629    11.00000    0.02980    0.01489 =
         0.02673    0.00310    0.00083    0.00468
O1    3    0.180484    0.430071    0.422009    11.00000    0.04354    0.01580 =
         0.01560    0.00299    0.00416    0.00594
O2    3    0.208913    0.471731    0.092961    11.00000    0.04448    0.01658 =
         0.02032    0.00771    0.00312    0.00496
O3    3    0.247160    0.121728   -0.131833    11.00000    0.05361    0.02464 =
         0.01343   -0.00052    0.00827   -0.00082
O4    3    0.239115   -0.131088    0.078923    11.00000    0.05833    0.01709 =
         0.02945    0.00133    0.00214    0.01059
O5    3    0.203177    0.062598    0.419519    11.00000    0.04564    0.01633 =
         0.01995    0.00878    0.00038    0.00177
O6    3    0.488344    0.738892    0.335292    11.00000    0.02765    0.03181 =
         0.01903    0.00600    0.00199    0.00296
AFIX   7
H6A   2    0.548854    0.801583    0.429182    11.00000   -1.50000
H6B   2    0.528764    0.800381    0.264501    11.00000   -1.50000
AFIX   0
O7    3    0.273104    0.803034    0.638241    11.00000    0.04265    0.01985 =
         0.02333    0.00424    0.00063    0.00431
O8    3   -0.257569    0.467831    0.218092    11.00000    0.04312    0.03212 =
         0.01920    0.00719    0.00347    0.01213
C1    1    0.205434    0.309145    0.298300    11.00000    0.02067    0.01475 =
         0.01566    0.00298    0.00122    0.00278
C2    1    0.219462    0.329515    0.130805    11.00000    0.02323    0.01473 =
         0.01531    0.00394    0.00181    0.00135
C3    1    0.237011    0.158225    0.020387    11.00000    0.02532    0.02073 =
         0.01874    0.00471    0.00328    0.00426
C4    1    0.235219    0.028684    0.125493    11.00000    0.02384    0.01533 =
         0.01917    0.00158    0.00098    0.00580
C5    1    0.214326    0.127394    0.296393    11.00000    0.02175    0.01478 =
         0.01744    0.00332    0.00085    0.00194
H7A   2    0.248047    0.902421    0.705747    11.00000    0.06021
H7B   2    0.273790    0.720509    0.691734    11.00000    0.04280
H8A   2   -0.350603    0.537337    0.253875    11.00000    0.04631
H8B   2   -0.270349    0.467477    0.115953    11.00000    0.07235
HKLF 4
REM  RGR545_a.res in P-1 New: P-1
REM wR2 = 0.0422, GooF = S = 1.219, Restrained GooF = 1.218 for all data
REM R1 = 0.0171 for 1928 Fo > 4sig(Fo) and 0.0190 for all 2026 data
REM 144 parameters refined using 4 restraints
END
WGHT      0.0217      0.0167
REM Instructions for potential hydrogen bonds
HTAB O6 O5_$2
HTAB O6 O3_$1
EQIV $8 x, y+1, z
HTAB O6 O4_$8
HTAB O7 O3_$3
HTAB O7 O8_$4
HTAB O8 O6_$6
HTAB O8 O2_$5
REM Highest difference peak  0.491,  deepest hole -1.366,  1-sigma level  0.201
Q1    1  -0.2370  0.8556  0.2945  11.00000  0.05    0.49
Q2    1   0.4628  0.6422  0.6808  11.00000  0.05    0.49
Q3    1  -0.0722  0.4096  0.2188  11.00000  0.05    0.49
Q4    1   0.3467  0.1064  0.6198  11.00000  0.05    0.47
Q5    1   0.2715  0.8635  0.3609  11.00000  0.05    0.47
;
_shelx_res_checksum              93808
loop_
_space_group_symop_operation_xyz
'x, y, z'
'-x, -y, -z'
loop_
_atom_site_type_symbol
_atom_site_label
_atom_site_fract_x
_atom_site_fract_y
_atom_site_fract_z
_atom_site_U_iso_or_equiv
_atom_site_adp_type
_atom_site_calc_flag
_atom_site_occupancy
Pb Pb1 0.09912(2) 0.70968(2) 0.35063(2) 0.02400(6) Uani d 1
O O1 0.1805(4) 0.4301(3) 0.4220(3) 0.0249(5) Uani d 1
O O2 0.2089(4) 0.4717(3) 0.0930(3) 0.0265(5) Uani d 1
O O3 0.2472(5) 0.1217(3) -0.1318(3) 0.0318(6) Uani d 1
O O4 0.2391(5) -0.1311(3) 0.0789(3) 0.0352(6) Uani d 1
O O5 0.2032(4) 0.0626(3) 0.4195(3) 0.0267(5) Uani d 1
O O6 0.4883(4) 0.7389(3) 0.3353(3) 0.0262(5) Uani d 1
H H6A 0.548854 0.801583 0.429182 0.039 Uiso d 1
H H6B 0.528764 0.800381 0.264501 0.039 Uiso d 1
O O7 0.2731(4) 0.8030(3) 0.6382(3) 0.0288(5) Uani d 1
O O8 -0.2576(5) 0.4678(4) 0.2181(3) 0.0307(6) Uani d 1
C C1 0.2054(5) 0.3091(4) 0.2983(4) 0.0171(6) Uani d 1
C C2 0.2195(5) 0.3295(4) 0.1308(4) 0.0178(6) Uani d 1
C C3 0.2370(5) 0.1582(4) 0.0204(4) 0.0215(7) Uani d 1
C C4 0.2352(5) 0.0287(4) 0.1255(4) 0.0196(6) Uani d 1
C C5 0.2143(5) 0.1274(4) 0.2964(4) 0.0181(6) Uani d 1
H H7A 0.248(9) 0.902(5) 0.706(6) 0.060(16) Uiso d 1
H H7B 0.274(7) 0.721(5) 0.692(5) 0.043(13) Uiso d 1
H H8A -0.351(6) 0.537(6) 0.254(6) 0.046(15) Uiso d 1
H H8B -0.270(9) 0.467(8) 0.116(3) 0.072(19) Uiso d 1
loop_
_atom_site_aniso_label
_atom_site_aniso_U_11
_atom_site_aniso_U_22
_atom_site_aniso_U_33
_atom_site_aniso_U_12
_atom_site_aniso_U_13
_atom_site_aniso_U_23
Pb1 0.02980(8) 0.01489(8) 0.02673(8) 0.00468(5) 0.00083(5) 0.00310(5)
O1 0.0435(15) 0.0158(11) 0.0156(11) 0.0059(10) 0.0042(10) 0.0030(9)
O2 0.0445(15) 0.0166(12) 0.0203(12) 0.0050(10) 0.0031(11) 0.0077(9)
O3 0.0536(17) 0.0246(13) 0.0134(11) -0.0008(12) 0.0083(11) -0.0005(10)
O4 0.0583(19) 0.0171(13) 0.0294(14) 0.0106(12) 0.0021(13) 0.0013(10)
O5 0.0456(16) 0.0163(12) 0.0200(12) 0.0018(10) 0.0004(10) 0.0088(9)
O6 0.0277(13) 0.0318(14) 0.0190(12) 0.0030(10) 0.0020(9) 0.0060(10)
O7 0.0427(15) 0.0198(13) 0.0233(13) 0.0043(11) 0.0006(11) 0.0042(10)
O8 0.0431(16) 0.0321(15) 0.0192(13) 0.0121(12) 0.0035(11) 0.0072(11)
C1 0.0207(15) 0.0147(15) 0.0157(14) 0.0028(11) 0.0012(11) 0.0030(11)
C2 0.0232(15) 0.0147(15) 0.0153(14) 0.0014(11) 0.0018(11) 0.0039(11)
C3 0.0253(16) 0.0207(17) 0.0187(15) 0.0043(13) 0.0033(12) 0.0047(13)
C4 0.0238(16) 0.0153(15) 0.0192(15) 0.0058(12) 0.0010(12) 0.0016(12)
C5 0.0218(15) 0.0148(14) 0.0174(15) 0.0019(11) 0.0009(12) 0.0033(12)
loop_
_atom_type_symbol
_atom_type_description
_atom_type_scat_dispersion_real
_atom_type_scat_dispersion_imag
_atom_type_scat_source
C C 0.0033 0.0016 'International Tables Vol C Tables 4.2.6.8 and 6.1.1.4'
H H 0.0000 0.0000 'International Tables Vol C Tables 4.2.6.8 and 6.1.1.4'
O O 0.0106 0.0060 'International Tables Vol C Tables 4.2.6.8 and 6.1.1.4'
Pb Pb -3.3944 10.1111 'International Tables Vol C Tables 4.2.6.8 and 6.1.1.4'
loop_
_geom_angle_atom_site_label_1
_geom_angle_atom_site_label_2
_geom_angle_atom_site_label_3
_geom_angle_site_symmetry_3
_geom_angle
_geom_angle_publ_flag
O1 Pb1 O2 . 66.73(7) y
O1 Pb1 O5 1_565 144.36(8) y
O1 Pb1 O7 . 74.06(8) y
O2 Pb1 O5 1_565 127.18(7) y
O6 Pb1 O1 . 79.20(8) y
O6 Pb1 O2 . 70.11(8) y
O6 Pb1 O5 1_565 77.15(8) y
O6 Pb1 O7 . 69.40(8) y
O7 Pb1 O2 . 127.50(9) y
O7 Pb1 O5 1_565 72.84(8) y
C1 O1 Pb1 . 113.6(2) ?
C2 O2 Pb1 . 110.12(19) ?
C5 O5 Pb1 1_545 115.4(2) ?
Pb1 O6 H6A . 111.0 ?
Pb1 O6 H6B . 110.7 ?
H6A O6 H6B . 103.2 ?
Pb1 O7 H7A . 120(4) ?
Pb1 O7 H7B . 116(3) ?
H7A O7 H7B . 110(5) ?
H8A O8 H8B . 98(5) ?
O1 C1 C2 . 124.7(3) ?
O1 C1 C5 . 126.3(3) ?
C5 C1 C2 . 108.9(3) ?
O2 C2 C1 . 123.6(3) ?
O2 C2 C3 . 127.8(3) ?
C1 C2 C3 . 108.6(3) ?
O3 C3 C2 . 127.7(3) ?
O3 C3 C4 . 125.2(3) ?
C2 C3 C4 . 107.1(3) ?
O4 C4 C3 . 127.5(3) ?
O4 C4 C5 . 125.7(3) ?
C5 C4 C3 . 106.7(3) ?
O5 C5 C1 . 126.0(3) ?
O5 C5 C4 . 125.2(3) ?
C1 C5 C4 . 108.7(3) ?
loop_
_geom_bond_atom_site_label_1
_geom_bond_atom_site_label_2
_geom_bond_site_symmetry_2
_geom_bond_distance
_geom_bond_publ_flag
Pb1 O1 . 2.529(2) y
Pb1 O2 . 2.653(2) y
Pb1 O5 1_565 2.714(2) y
Pb1 O6 . 2.499(2) y
Pb1 O7 . 2.537(3) y
O1 C1 . 1.251(4) ?
O2 C2 . 1.248(4) ?
O3 C3 . 1.238(4) ?
O4 C4 . 1.231(4) ?
O5 C5 . 1.255(4) ?
O6 H6A . 0.8782 ?
O6 H6B . 0.8779 ?
O7 H7A . 0.88(2) ?
O7 H7B . 0.876(19) ?
O8 H8A . 0.864(19) ?
O8 H8B . 0.85(2) ?
C1 C2 . 1.449(4) ?
C1 C5 . 1.440(4) ?
C2 C3 . 1.458(4) ?
C3 C4 . 1.501(5) ?
C4 C5 . 1.467(4) ?
loop_
_geom_hbond_atom_site_label_D
_geom_hbond_atom_site_label_H
_geom_hbond_atom_site_label_A
_geom_hbond_site_symmetry_A
_geom_hbond_distance_DH
_geom_hbond_distance_HA
_geom_hbond_distance_DA
_geom_hbond_angle_DHA
_geom_hbond_publ_flag
O6 H6A O5 2_666 0.88 2.05 2.868(4) 154.8 yes
O6 H6B O3 2_665 0.88 1.97 2.757(3) 148.5 yes
O7 H7A O3 1_566 0.88(2) 1.92(2) 2.795(4) 169(5) yes
O7 H7B O8 2_566 0.876(19) 1.82(2) 2.691(4) 173(5) yes
O8 H8A O6 1_455 0.864(19) 1.98(2) 2.831(4) 167(5) yes
O8 H8B O2 2_565 0.85(2) 1.95(3) 2.769(4) 159(6) yes
loop_
_geom_torsion_atom_site_label_1
_geom_torsion_atom_site_label_2
_geom_torsion_atom_site_label_3
_geom_torsion_atom_site_label_4
_geom_torsion_site_symmetry_1
_geom_torsion
Pb1 O1 C1 C2 . 9.0(4)
Pb1 O1 C1 C5 . -167.6(3)
Pb1 O2 C2 C1 . -8.9(4)
Pb1 O2 C2 C3 . 168.0(3)
Pb1 O5 C5 C1 1_545 160.7(2)
Pb1 O5 C5 C4 1_545 -18.3(4)
O1 C1 C2 O2 . 0.4(5)
O1 C1 C2 C3 . -177.0(3)
O1 C1 C5 O5 . -1.7(6)
O1 C1 C5 C4 . 177.3(3)
O2 C2 C3 O3 . 0.9(6)
O2 C2 C3 C4 . -177.7(3)
O3 C3 C4 O4 . -1.6(6)
O3 C3 C4 C5 . -178.0(3)
O4 C4 C5 O5 . 2.0(6)
O4 C4 C5 C1 . -177.0(3)
C1 C2 C3 O3 . 178.1(3)
C1 C2 C3 C4 . -0.4(4)
C2 C1 C5 O5 . -178.8(3)
C2 C1 C5 C4 . 0.2(4)
C2 C3 C4 O4 . 177.0(3)
C2 C3 C4 C5 . 0.6(4)
C3 C4 C5 O5 . 178.6(3)
C3 C4 C5 C1 . -0.5(4)
C5 C1 C2 O2 . 177.5(3)
C5 C1 C2 C3 . 0.1(4)

_cod_database_fobs_code 2021666
