#------------------------------------------------------------------------------
#$Date: 2019-02-14 05:36:51 +0200 (Thu, 14 Feb 2019) $
#$Revision: 213640 $
#$URL: file:///home/coder/svn-repositories/cod/cif/2/02/14/2021490.cif $
#------------------------------------------------------------------------------
#
# This file is available in the Crystallography Open Database (COD),
# http://www.crystallography.net/. The original data for this entry
# were provided by IUCr Journals, http://journals.iucr.org/.
#
# The file may be used within the scientific community so long as
# proper attribution is given to the journal article from which the
# data were obtained.
#
data_2021490
loop_
_publ_author_name
'Losev, Evgeniy A.'
'Boldyreva, Elena'
_publ_section_title
;
 Concomitant cocrystal and salt: no interconversion in the solid state
;
_journal_coeditor_code           KU3233
_journal_issue                   3
_journal_name_full               'Acta Crystallographica Section C'
_journal_page_first
;
;
_journal_paper_doi               10.1107/S2053229619001372
_journal_volume                  75
_journal_year                    2019
_chemical_formula_iupac          'C3 H7.5 N O2 +, C4 H5.5 O6 -'
_chemical_formula_moiety         'C3 H7.5 N O2 +, C4 H5.5 O6 -'
_chemical_formula_sum            'C7 H13 N O8'
_chemical_formula_weight         239.18
_chemical_name_common            '\b-Alanine--<i>DL</i>-tartaric acid (1/1)'
_chemical_name_systematic        '\b-Alaninium <i>DL</i>-tartarate'
_space_group_crystal_system      triclinic
_space_group_IT_number           2
_space_group_name_Hall           '-P 1'
_space_group_name_H-M_alt        'P -1'
_symmetry_space_group_name_Hall  '-P 1'
_symmetry_space_group_name_H-M   'P -1'
_atom_sites_solution_hydrogens   mixed
_audit_creation_method
;
Olex2 1.2
(compiled 2018.05.29 svn.r3508 for OlexSys, GUI svn.r5506)
;
_cell_angle_alpha                108.576(8)
_cell_angle_beta                 97.152(8)
_cell_angle_gamma                92.576(8)
_cell_formula_units_Z            2
_cell_length_a                   4.9195(5)
_cell_length_b                   8.5997(7)
_cell_length_c                   12.0667(10)
_cell_measurement_reflns_used    2482
_cell_measurement_temperature    250
_cell_measurement_theta_max      29.4920
_cell_measurement_theta_min      2.5270
_cell_volume                     478.19(8)
_computing_cell_refinement
;
CrysAlis PRO (Agilent, 2014)
;
_computing_data_collection
;
CrysAlis PRO (Agilent, 2014)
;
_computing_data_reduction
;
CrysAlis PRO (Agilent, 2014)
;
_computing_molecular_graphics
;
OLEX2 (Dolomanov <i>et al.</i>,  2009)
;
_computing_publication_material
;
OLEX2 (Dolomanov <i>et al.</i>,  2009)
;
_computing_structure_refinement
;
SHELXL2018 (Sheldrick, 2015b)
;
_computing_structure_solution
;
olex2.solve (Bourhis <i>et al.</i>,  2015)
;
_diffrn_ambient_temperature      250
_diffrn_detector                 'CCD plate'
_diffrn_measured_fraction_theta_full 0.999
_diffrn_measured_fraction_theta_max 0.999
_diffrn_measurement_device_type  'Stoe IPDS'
_diffrn_measurement_method       '\w scans'
_diffrn_radiation_monochromator  graphite
_diffrn_radiation_probe          x-ray
_diffrn_radiation_type           MoK\a
_diffrn_radiation_wavelength     0.71073
_diffrn_reflns_av_R_equivalents  0.0482
_diffrn_reflns_av_unetI/netI     0.0531
_diffrn_reflns_limit_h_max       5
_diffrn_reflns_limit_h_min       -6
_diffrn_reflns_limit_k_max       10
_diffrn_reflns_limit_k_min       -10
_diffrn_reflns_limit_l_max       15
_diffrn_reflns_limit_l_min       -15
_diffrn_reflns_number            5909
_diffrn_reflns_theta_full        25.242
_diffrn_reflns_theta_max         26.350
_diffrn_reflns_theta_min         2.509
_diffrn_source                   'Enhance (Mo) X-ray Source'
_exptl_absorpt_coefficient_mu    0.154
_exptl_absorpt_correction_T_max  0.995
_exptl_absorpt_correction_T_min  0.959
_exptl_absorpt_correction_type   gaussian
_exptl_absorpt_process_details
;
(CrysAlis PRO; Agilent, 2014)
;
_exptl_crystal_colour            colourless
_exptl_crystal_density_diffrn    1.661
_exptl_crystal_description       ' '
_exptl_crystal_F_000             252
_exptl_crystal_size_max          0.4317
_exptl_crystal_size_mid          0.071
_exptl_crystal_size_min          0.034
_refine_diff_density_max         0.247
_refine_diff_density_min         -0.259
_refine_ls_extinction_method     none
_refine_ls_goodness_of_fit_ref   1.012
_refine_ls_hydrogen_treatment    mixed
_refine_ls_matrix_type           full
_refine_ls_number_parameters     154
_refine_ls_number_reflns         1947
_refine_ls_number_restraints     0
_refine_ls_restrained_S_all      1.012
_refine_ls_R_factor_all          0.0795
_refine_ls_R_factor_gt           0.0438
_refine_ls_shift/su_max          0.000
_refine_ls_shift/su_mean         0.000
_refine_ls_structure_factor_coef Fsqd
_refine_ls_weighting_details
'w=1/[\s^2^(Fo^2^)+(0.0334P)^2^+0.1892P] where P=(Fo^2^+2Fc^2^)/3'
_refine_ls_weighting_scheme      calc
_refine_ls_wR_factor_gt          0.0812
_refine_ls_wR_factor_ref         0.0912
_reflns_number_gt                1364
_reflns_number_total             1947
_reflns_threshold_expression     'I > 2\s(I)'
_cod_data_source_file            ku3233sup1.cif
_cod_data_source_block           250_salt
_cod_original_cell_volume        478.20(8)
_cod_database_code               2021490
_shelx_space_group_comment
;
The symmetry employed for this shelxl refinement is uniquely defined
by the following loop, which should always be used as a source of
symmetry information in preference to the above space-group names.
They are only intended as comments.
;
_shelx_estimated_absorpt_t_min   0.936
_shelx_estimated_absorpt_t_max   0.995
_shelx_hkl_file
;
   0   0  -2 73.2296 2.37852   1
   0   0   2 73.2096 2.37546   1
   0   0  -3 115.444 3.61770   1
   0   0   3 118.242 3.64456   1
   0   0   4 62.1888 3.14718   1
   0   0  -4 62.8088 3.21539   1
   0   0  -5 298.522 7.33399   1
   0   0   5 294.957 7.22264   1
   0   0  -6 100.049 4.89180   1
   0   0   6 108.988 5.03509   1
   0   0  -7 52.1047 4.12801   1
   0   0   7 41.0580 3.77510   1
   0   0  -8 46.0974 4.32959   1
   0   0   8 39.2510 4.09852   1
   0   0   9 110.498 6.66181   1
   0   0  -9 106.094 6.45785   1
   0   0  10 5.66235 3.48234   1
   0   0 -10 6.38353 3.36149   1
   0   0 -11 56.9080 6.19845   1
   0   0  11 54.4729 6.02083   1
   0   0  12 2.20883 4.47577   1
   0   0 -12 6.79288 5.35510   2
   0   0 -12 0.55194 4.43130   1
   0   0 -13 14.0149 5.70293   1
   0   0 -13 7.32267 5.99605   2
   0   0  13 11.4763 5.54077   1
   0   0 -14 18.1773 8.11855   2
   0   0 -14 22.8666 7.27315   1
   0   0  14 29.4092 7.54425   1
   0   0 -15-5.39415 9.74849   2
   0   0 -15 5.38344 7.35906   1
   0   0  15 3.03313 7.66521   1
   0   1 -16-9.73634 9.69133   2
   0  -1  16 1.43150 7.41582   1
   0  -1  16 5.17854 7.73997   1
   0   1 -15 29.7064 9.34312   2
   0  -1  15 10.4349 6.63189   1
   0   1 -14 9.83324 6.97440   2
   0  -1  14 12.7904 5.40209   1
   0  -1  13 72.9419 7.36323   1
   0   1 -13 68.0116 8.60450   2
   0   1 -13 76.5355 7.43947   1
   0  -1  12 28.6649 5.02046   1
   0   1 -12 30.1588 6.29242   2
   0   1 -12 20.5902 4.68942   1
   0   1 -11 12.7289 4.37774   2
   0   1 -11 15.5661 3.93256   1
   0  -1  11 16.0168 4.20593   1
   0  -1  10 38.6589 4.42679   1
   0   1 -10 32.9059 5.18073   2
   0   1 -10 33.1365 4.32752   1
   0   1  -9 6.56483 2.78507   1
   0  -1   9 3.33322 2.51519   1
   0   1  -9 4.10794 3.28548   2
   0   1  -8 12.7227 2.66704   1
   0   1  -8 19.9076 3.69071   2
   0  -1   8 14.3502 2.66060   1
   0   1  -7 19.9786 3.08251   2
   0  -1   7 21.7753 2.71947   1
   0   1  -7 22.6383 2.77835   1
   0   1  -6 4.42529 1.76603   1
   0   1  -6 2.47167 2.03127   2
   0  -1   6 4.02916 1.68768   1
   0   1  -5 17.4991 2.47897   2
   0  -1   5 17.3322 1.99889   1
   0   1  -5 17.8839 1.96142   1
   0   1  -4 7.77767 1.76062   2
   0  -1   4 4.24801 1.22834   1
   0   1  -4 5.51745 1.26749   1
   0   1  -3 2239.91 15.8663   2
   0  -1   3 2210.47 12.3623   1
   0   1  -3 2210.79 12.3664   1
   0  -1   3 2251.34 15.8800   2
   0   1  -2 291.789 5.02208   2
   0  -1   2 286.688 3.70485   1
   0   1  -2 298.182 3.78304   1
   0  -1   2 295.696 5.05810   2
   0  -1   1 9.98469 1.33245   2
   0   1  -1 8.79597 0.93017   1
   0  -1   1 10.5512 0.94264   1
   0   1  -1 8.93690 1.12568   2
   0   1   0 212.729 3.79964   2
   0  -1   0 209.438 3.79657   2
   0  -1   0 214.495 3.75293   1
   0   1   0 211.958 3.75302   1
   0   1   1 107.735 3.29478   1
   0  -1  -1 108.350 3.36564   1
   0   1   1 107.241 3.23669   2
   0  -1  -1 108.227 3.28143   2
   0  -1  -2 41.9163 2.47356   2
   0   1   2 46.5816 2.77932   1
   0  -1  -2 42.7233 2.67992   1
   0  -1  -3 249.363 6.34696   1
   0   1   3 247.981 6.37297   1
   0  -1  -4 140.124 5.34161   1
   0   1   4 134.861 5.38095   1
   0  -1  -5 17.1010 2.77858   1
   0   1   5 18.7100 2.68543   1
   0  -1  -6 282.316 8.88445   1
   0   1   6 277.211 8.82033   1
   0   1   7 951.833 17.2539   1
   0  -1  -7 992.776 17.6017   1
   0   1   8 0.63771 2.75838   1
   0  -1  -8-0.25441 2.88032   1
   0   1   9 3.81101 3.47857   1
   0  -1  -9-0.89090 3.37160   1
   0   1  10 4.73316 3.89265   1
   0  -1 -10-2.66676 3.75741   1
   0   1  11 6.81576 4.80181   1
   0  -1 -11 11.8984 4.94318   1
   0  -1 -12 10.5523 6.43602   2
   0   1  12-0.68869 5.38933   1
   0  -1 -12 0.29248 5.14980   1
   0  -1 -13 23.7093 7.30097   2
   0  -1 -13 18.3138 6.78681   1
   0   1  13 27.0629 6.93071   1
   0   1  14-0.69745 7.10784   1
   0  -1 -14-2.48133 8.19658   2
   0  -1 -14 9.64790 7.79411   1
   0  -1 -14 8.33247 8.38353   2
   0  -1 -15-4.35894 9.03793   1
   0  -1 -15-11.4460 10.0649   2
   0  -1 -15 3.57968 9.83210   2
   0   1  15-10.5181 8.46614   1
   0  -2  16 82.1498 9.23807   1
   0  -2  16 76.9831 8.85084   1
   0   2 -16 101.224 12.3335   2
   0  -2  15 27.5831 6.89013   1
   0  -2  15 27.3390 6.64619   1
   0   2 -15 17.5118 8.59122   2
   0  -2  14 19.1291 5.05350   1
   0  -2  14 6.61020 4.61234   1
   0   2 -14 8.98507 6.49854   2
   0   2 -13 36.9128 7.05638   2
   0  -2  13 42.4181 5.39125   1
   0  -2  13 46.8119 5.55138   1
   0  -2  12 5.40075 3.77981   1
   0  -2  12 2.81664 3.62397   1
   0   2 -12 1.61374 4.71297   2
   0  -2  11 166.982 7.66351   1
   0  -2  11 161.939 7.46819   1
   0   2 -11 147.773 9.11530   2
   0   2 -10 78.9020 6.47344   2
   0  -2  10 69.4743 4.87175   1
   0  -2   9 1.13734 2.16561   1
   0   2  -9 2.84834 3.03131   2
   0  -2   8 92.3925 4.63050   1
   0   2  -8 94.2460 6.04132   2
   0  -2   8 91.9823 4.56880   1
   0  -2   7 37.6950 2.95379   1
   0   2  -7 35.3440 3.84362   2
   0  -2   7 43.3697 3.10977   1
   0  -2   6 153.478 4.76137   1
   0  -2   6 168.720 4.98387   1
   0   2  -6 159.417 6.39080   2
   0   2  -5 110.856 4.96117   2
   0  -2   5 115.611 5.02631   2
   0  -2   5 115.239 3.77521   1
   0  -2   5 113.165 3.72978   1
   0  -2   4 43.1175 3.03845   2
   0  -2   4 42.1602 2.22615   1
   0   2  -4 39.8560 3.09480   2
   0   2  -3 101.434 4.01590   2
   0  -2   3 101.043 4.04070   2
   0  -2   3 97.8679 3.00015   1
   0   2  -3 96.9691 2.98482   1
   0  -2   2 2952.50 15.9916   1
   0   2  -2 2900.00 19.4082   2
   0  -2   2 3004.90 19.5814   2
   0   2  -2 2951.43 16.0331   1
   0   2  -1 10.9851 1.94852   2
   0  -2   1 9.69345 1.65330   2
   0   2  -1 9.66811 1.59813   1
   0  -2   1 9.60324 1.45667   1
   0   2   0 20.9734 1.96856   1
   0  -2   0 25.3773 2.47043   2
   0   2   0 22.6813 2.39125   2
   0  -2   0 23.6269 2.31835   1
   0   2   1 180.948 5.45850   2
   0   2   1 190.994 5.55734   1
   0  -2  -1 187.809 5.49219   2
   0  -2  -1 185.729 5.59611   1
   0  -2  -2 80.4611 4.17029   1
   0   2   2 82.0761 4.07381   2
   0  -2  -2 82.3575 4.16171   2
   0   2   2 84.3357 4.37137   1
   0   2   3 419.738 9.66327   1
   0  -2  -3 403.268 9.17093   2
   0  -2  -3 420.782 9.64716   1
   0  -2  -4 1044.60 15.8407   2
   0  -2  -4 1064.52 16.3812   1
   0   2   4 1066.33 16.5364   1
   0  -2  -5 0.40327 2.47241   2
   0   2   5 0.34530 2.52859   1
   0  -2  -5 0.63018 2.61970   1
   0  -2  -6 97.8748 6.04925   2
   0   2   6 116.642 6.76773   1
   0  -2  -6 116.101 6.75633   1
   0  -2  -7 0.82687 3.13265   2
   0   2   7 1.69910 3.25902   1
   0  -2  -7 0.30264 3.12747   1
   0  -2  -8 46.7328 5.37442   1
   0  -2  -8 46.8705 5.71698   2
   0   2   8 45.8181 5.51568   1
   0  -2  -9 49.8445 6.19041   1
   0   2   9 55.0851 6.20141   1
   0  -2  -9 50.1920 6.26040   2
   0  -2 -10 61.7858 6.89769   1
   0   2  10 52.0769 6.77738   1
   0  -2 -10 53.0648 7.06644   2
   0   2  11 47.6938 7.29422   1
   0  -2 -11 39.3027 7.13345   2
   0  -2 -11 48.1829 7.23275   1
   0  -2 -12 19.8275 6.96679   1
   0  -2 -12 29.1900 7.09030   2
   0   2  12 17.9426 6.83488   1
   0  -2 -13 12.3481 8.75228   2
   0   2  13 3.10780 7.17967   1
   0  -2 -13-4.09904 6.93489   1
   0  -2 -14 17.2060 9.66385   1
   0   2  14 15.2162 8.63361   1
   0  -2 -14 16.6166 9.77836   2
   0  -3  16 0.33477 5.95827   1
   0   3 -16 9.83199 9.57760   2
   0  -3  16 1.10830 6.18736   1
   0  -3  15 58.3394 6.87066   1
   0   3 -15 83.3593 10.6187   2
   0  -3  15 65.8967 7.06339   1
   0  -3  14 5.07664 4.10584   1
   0   3 -14 3.59715 6.54848   2
   0  -3  14 7.38760 4.14685   1
   0   3 -13 76.0750 8.60556   2
   0  -3  13 82.6301 6.21653   1
   0  -3  13 86.9525 6.27932   1
   0  -3  12 18.9711 3.94605   1
   0   3 -12 15.8720 5.01667   2
   0  -3  12 18.1308 3.75950   1
   0  -3  11 5.00240 2.66782   1
   0  -3  11 2.70519 2.74361   1
   0   3 -11 5.19334 4.06207   2
   0   3 -10 7.38128 4.01155   2
   0  -3  10 12.5578 2.80673   1
   0  -3  10 17.1670 2.99140   1
   0  -3   9 33.6246 3.20612   1
   0   3  -9 34.3178 4.77022   2
   0  -3   9 32.2574 3.15057   1
   0   3  -8 13.2902 3.19455   2
   0  -3   8 12.6426 2.23562   1
   0  -3   8 16.0077 2.35008   1
   0  -3   7 497.055 8.94407   1
   0  -3   7 491.080 8.88938   1
   0  -3   7 456.054 11.7573   2
   0   3  -7 497.238 12.2715   2
   0   3  -6 17.2417 3.14170   2
   0  -3   6 14.7859 1.94709   1
   0  -3   6 17.8183 2.11104   1
   0  -3   6 17.5136 2.99474   2
   0  -3   5 90.0379 3.60293   1
   0  -3   5 90.7185 5.04559   2
   0   3  -5 91.5685 4.89871   2
   0   3  -5 85.2016 3.51620   1
   0   3  -4 164.981 6.13844   2
   0  -3   4 159.809 6.04558   2
   0  -3   4 160.885 4.63151   1
   0   3  -4 165.146 4.71164   1
   0   3  -3 257.480 5.95580   1
   0   3  -3 267.009 7.46729   2
   0  -3   3 249.917 5.86792   1
   0  -3   3 260.430 7.36453   2
   0   3  -2 2.37100 1.55225   1
   0   3  -2 1.48798 1.72512   2
   0  -3   2 1.56640 2.06003   2
   0  -3   2 2.64549 1.52010   1
   0  -3   1 67.2062 3.71164   1
   0   3  -1 71.1202 3.72880   1
   0  -3   1 65.0726 4.00401   2
   0   3  -1 67.1130 3.88744   2
   0   3   0 13.9081 2.45091   1
   0  -3   0 12.3075 2.19644   1
   0  -3   0 12.9635 2.48538   2
   0   3   0 16.6087 2.47859   2
   0  -3  -1 1203.75 16.4116   1
   0   3   1 1223.03 16.3871   2
   0   3   1 1268.85 16.6238   1
   0  -3  -1 1222.15 16.3588   2
   0  -3  -2 640.445 12.8839   1
   0   3   2 684.936 13.2358   1
   0   3   2 697.989 13.1033   2
   0  -3  -2 664.929 12.8425   2
   0   3   3 5.75607 2.41470   1
   0  -3  -3 6.96471 2.92959   1
   0  -3  -3 0.41689 2.17805   2
   0  -3  -4 35.7469 4.11578   2
   0   3   4 37.7184 4.26419   1
   0  -3  -4 35.5811 4.00188   1
   0   3   5 37.8771 4.73067   1
   0  -3  -5 37.3415 4.65916   1
   0  -3  -5 36.7888 4.51963   2
   0  -3  -6 39.7289 5.23697   1
   0   3   6 29.7799 4.72244   1
   0  -3  -6 38.5581 4.98678   2
   0   3   7 58.7851 6.22409   1
   0  -3  -7 60.9801 6.22700   1
   0  -3  -7 51.6240 5.89354   2
   0  -3  -8 132.920 8.72917   2
   0  -3  -8 148.218 9.28626   1
   0   3   8 147.544 9.49092   1
   0   3   9 6.39390 4.99555   1
   0  -3  -9 5.43934 5.12141   1
   0  -3  -9-4.16273 4.98919   2
   0  -3 -10 2.56536 5.74116   2
   0   3  10 9.26194 5.23698   1
   0  -3 -10 15.6990 5.58054   1
   0   3  11 21.9394 7.23101   1
   0  -3 -11 25.4231 7.49108   1
   0  -3 -11 25.8679 7.59313   2
   0  -3 -12 10.4900 7.69800   1
   0   3  12-5.54842 7.83820   1
   0  -3 -12-0.25375 7.66292   2
   0  -3 -13 13.1671 8.78658   1
   0  -3 -13 3.12363 9.58044   2
   0   3  13 15.0878 9.11683   1
   0  -4  16-1.08493 5.29380   1
   0  -4  16-2.91169 5.51039   1
   0   4 -16-2.74301 8.76382   2
   0   4 -15 39.8764 9.48547   2
   0  -4  15 45.5968 5.63324   1
   0  -4  15 35.8697 5.44636   1
   0  -4  14-0.52434 3.72699   1
   0  -4  14 3.15118 3.90824   1
   0   4 -14 8.35990 6.33217   2
   0  -4  13-0.55477 3.29869   1
   0   4 -13 5.95119 5.93758   2
   0  -4  13 4.54510 3.28305   1
   0  -4  12 5.82320 3.06975   1
   0   4 -12 9.20510 5.27573   2
   0  -4  12 12.5452 3.36606   1
   0   4 -11 36.7609 5.84595   2
   0  -4  11 43.6000 4.00754   1
   0  -4  11 43.2782 4.04313   1
   0  -4  10 14.8360 2.72812   1
   0  -4  10 14.7411 2.83925   1
   0   4 -10 12.9920 4.49263   2
   0  -4   9 27.1424 2.99780   1
   0  -4   9 27.3269 3.07267   1
   0   4  -9 24.7302 4.71452   2
   0  -4   8 4.68211 3.43005   2
   0  -4   8 6.34262 2.05095   1
   0   4  -8 4.51447 3.12892   2
   0  -4   8 5.03800 2.03034   1
   0  -4   7 14.6452 3.63630   2
   0  -4   7 12.5518 2.16448   1
   0   4  -7 13.0329 3.44882   2
   0   4  -6 469.103 12.1488   2
   0  -4   6 493.405 9.15284   1
   0   4  -6 514.694 9.50527   1
   0  -4   6 478.383 12.3066   2
   0   4  -5 168.419 5.55976   1
   0  -4   5 182.463 5.75732   1
   0  -4   5 162.961 7.17091   2
   0   4  -5 167.069 7.23670   2
   0   4  -4 0.63554 1.65805   1
   0  -4   4-1.16824 1.61320   1
   0   4  -4-1.46290 1.97790   2
   0  -4   4 2.90771 2.56719   2
   0  -4   3 82.9289 4.92120   2
   0   4  -3 88.5352 5.27209   2
   0  -4   3 81.8621 4.23006   1
   0   4  -3 84.3461 4.35975   1
   0   4  -2 45.0399 4.18499   2
   0  -4   2 44.7890 4.06865   2
   0   4  -2 48.5945 3.54729   1
   0  -4   2 49.4481 3.61049   1
   0  -4   1 332.562 9.59419   2
   0  -4   1 324.965 8.92308   1
   0   4  -1 313.121 9.35301   2
   0   4  -1 326.015 8.89898   1
   0  -4   0 29.1518 3.69755   2
   0   4   0 25.6173 3.62164   2
   0  -4   0 22.5845 3.28183   1
   0   4   0 21.0859 3.24218   1
   0  -4  -1 412.386 11.1624   2
   0   4   1 412.809 11.1851   2
   0  -4  -1 435.233 11.4388   1
   0   4   1 428.515 11.2169   1
   0  -4  -2 69.0890 5.46713   1
   0  -4  -2 84.7792 5.63084   2
   0   4   2 75.2528 5.32269   1
   0   4   2 75.6331 5.58873   2
   0  -4  -3 190.684 8.49006   1
   0   4   3 176.214 8.14678   2
   0   4   3 187.855 8.41032   1
   0  -4  -3 189.019 8.59091   2
   0  -4  -4 199.653 9.20733   1
   0   4   4 202.489 9.35287   1
   0  -4  -4 201.068 9.06478   2
   0   4   5 261.882 11.1063   1
   0  -4  -5 256.454 10.8933   1
   0  -4  -5 259.908 10.9274   2
   0  -4  -6 0.04339 3.65071   1
   0   4   6 3.67547 3.50423   1
   0  -4  -6 1.31012 4.04534   2
   0  -4  -7 116.995 9.07849   1
   0   4   7 112.967 8.92320   1
   0  -4  -7 114.501 8.67177   2
   0  -4  -8 7.49342 5.04200   2
   0  -4  -8 7.60729 4.68418   1
   0   4   8 2.95732 4.39826   1
   0  -4  -9-6.01205 6.51441   1
   0   4   9-6.39004 5.46733   1
   0  -4  -9-5.18659 6.07036   2
   0  -4 -10 0.50326 5.97238   1
   0   4  10-4.00228 5.69065   1
   0  -4 -10-5.21757 6.44537   2
   0  -4 -11 14.0067 7.68302   2
   0  -4 -11-0.47728 7.99429   1
   0   4  11 17.4254 8.75550   1
   0  -4 -12-9.33214 9.37725   1
   0  -4 -12 14.0901 8.97438   2
   0   4  12-4.80005 8.26285   1
   0   4  13-13.0912 9.29584   1
   0  -4 -13-0.30833 8.97503   2
   0  -4 -13-5.70623 8.93404   1
   0  -5  16 3.94397 3.97853   1
   0   5 -16 16.3583 9.44182   2
   0  -5  16 6.84129 4.01877   1
   0  -5  15-0.04770 3.72398   1
   0  -5  15 0.99818 3.78202   1
   0   5 -14 11.2075 7.68203   2
   0  -5  14 4.58269 3.31907   1
   0  -5  14 5.15738 3.44856   1
   0  -5  13-3.70178 2.89867   1
   0  -5  13-1.58266 2.93229   1
   0   5 -13 2.71719 5.70379   2
   0  -5  12 38.0636 4.03003   1
   0  -5  12 35.5220 3.95345   1
   0   5 -12 39.3299 7.33304   2
   0   5 -11 5.57443 4.73761   2
   0  -5  11 0.31588 2.42399   1
   0  -5  11 3.47930 2.51819   1
   0   5 -10 1.03341 4.08915   2
   0  -5  10-0.10041 2.21094   1
   0  -5  10 1.16227 2.24307   1
   0  -5   9 61.8439 6.35239   2
   0  -5   9 58.6345 4.15757   1
   0   5  -9 48.9524 6.08691   2
   0  -5   9 59.7640 4.12464   1
   0  -5   8 256.304 10.7638   2
   0  -5   8 262.553 7.61256   1
   0   5  -8 265.072 10.9057   2
   0   5  -7 53.7709 3.92939   1
   0  -5   7 61.2274 5.79129   2
   0  -5   7 57.2678 3.92767   1
   0   5  -7 59.5517 5.42946   2
   0   5  -6 74.4620 4.40059   1
   0  -5   6 75.8155 4.43362   1
   0  -5   6 64.7913 5.60865   2
   0   5  -6 72.3835 5.92531   2
   0  -5   5 10.1832 2.41462   1
   0  -5   5 9.09581 3.13954   2
   0   5  -5 11.8750 2.53004   1
   0   5  -5 11.4070 3.66694   2
   0  -5   4 168.867 7.99535   2
   0   5  -4 181.077 6.85755   1
   0   5  -4 180.582 8.26472   2
   0  -5   4 180.609 6.81819   1
   0  -5   3 56.5359 4.38177   1
   0   5  -3 57.0749 5.13458   2
   0  -5   3 51.9117 4.75117   2
   0   5  -3 51.3074 4.16827   1
   0  -5   2 30.9816 4.31132   2
   0   5  -2 30.7702 3.73704   1
   0   5  -2 27.1288 4.12995   2
   0  -5   2 33.7162 3.83550   1
   0   5  -1 87.3046 5.99320   2
   0   5  -1 80.7283 5.61020   1
   0  -5   1 90.7563 6.34385   2
   0  -5   1 86.2407 5.53953   1
   0  -5   0 630.401 14.8063   1
   0   5   0 694.353 15.2508   1
   0  -5   0 644.330 15.3281   2
   0   5   0 675.403 15.6377   2
   0  -5  -1 280.917 10.4729   2
   0  -5  -1 294.668 10.8208   1
   0   5   1 278.725 10.5349   2
   0   5   1 274.901 10.4296   1
   0   5   2 24.2713 4.54449   2
   0  -5  -2 18.8781 4.17829   2
   0   5   2 20.4916 3.76651   1
   0  -5  -2 19.6140 4.36266   1
   0  -5  -3 3.29169 3.73530   2
   0   5   3-0.03920 3.56099   1
   0   5   3 6.28829 3.42727   2
   0  -5  -3 6.50253 4.08719   1
   0   5   4 8.21113 3.98813   1
   0  -5  -4 4.09850 3.92045   1
   0  -5  -4 2.93769 3.97966   2
   0  -5  -5 408.399 14.8974   1
   0   5   5 396.023 14.9153   1
   0  -5  -5 421.166 14.7530   2
   0   5   6 78.4945 8.21568   1
   0  -5  -6 67.6975 7.67697   2
   0  -5  -6 71.0015 8.09942   1
   0   5   7 10.8866 5.97849   1
   0  -5  -7 14.5406 5.41621   2
   0  -5  -7 16.9098 5.54469   1
   0   5   8 62.0444 8.13677   1
   0  -5  -8 64.0603 8.59236   2
   0  -5  -8 49.3793 8.19657   1
   0   5   9 26.3754 7.54926   1
   0  -5  -9 30.4158 7.58878   2
   0  -5  -9 37.1506 8.46095   1
   0  -5 -10 24.2087 8.66690   1
   0   5  10 12.2324 7.28985   1
   0  -5 -10 17.7947 8.10462   2
   0  -5 -11-0.21933 10.3103   2
   0  -5 -11 7.01989 10.1642   1
   0   5  11-7.93960 9.74360   1
   0  -5 -12 46.7086 11.3751   1
   0  -5 -12 48.3061 10.7114   2
   0  -6  16-3.02535 2.65097   1
   0   6 -16-8.57231 9.22522   2
   0  -6  15 2.91171 2.98413   1
   0   6 -15 1.97506 8.08199   2
   0  -6  15 3.97904 3.06987   1
   0   6 -14 4.74349 7.02539   2
   0  -6  14 8.40084 3.23588   1
   0  -6  14 4.77777 3.15058   1
   0  -6  13 5.30289 3.02671   1
   0  -6  13 7.45634 3.24737   1
   0   6 -13 2.28892 6.92472   2
   0  -6  12 47.6296 4.26086   1
   0   6 -12 63.6301 8.49346   2
   0  -6  12 47.1591 4.42076   1
   0  -6  11 68.0594 7.70362   2
   0  -6  11 74.7268 5.03337   1
   0  -6  11 81.2432 5.17931   1
   0   6 -11 74.7714 7.84317   2
   0  -6  10 3.98987 2.76510   1
   0  -6  10 1.96130 4.88266   2
   0   6 -10-3.14963 4.32433   2
   0  -6  10 0.33545 2.46795   1
   0  -6   9 130.032 9.11172   2
   0  -6   9 138.660 6.28656   1
   0   6  -9 145.018 9.51274   2
   0  -6   8 42.5507 4.05473   1
   0   6  -8 54.0851 6.56662   2
   0  -6   8 44.7692 6.17902   2
   0   6  -8 44.2594 4.19139   1
   0  -6   7 169.844 9.27986   2
   0   6  -7 185.212 7.34893   1
   0   6  -7 167.682 9.34002   2
   0  -6   7 178.731 7.24307   1
   0  -6   6-0.57436 2.38890   1
   0  -6   6 3.79820 3.10632   2
   0   6  -6 0.10110 2.38312   1
   0   6  -6 2.93390 3.88708   2
   0  -6   5 160.888 8.80956   2
   0   6  -5 150.153 8.53152   2
   0  -6   5 161.614 7.25335   1
   0   6  -5 158.151 7.18915   1
   0  -6   4 9.31562 3.62870   2
   0  -6   4 0.53434 2.49443   1
   0   6  -4-1.31897 2.44930   1
   0   6  -4 8.87895 3.97399   2
   0  -6   3 58.3281 5.86478   2
   0  -6   3 53.1607 4.96028   1
   0   6  -3 53.3409 5.76129   2
   0   6  -3 60.2330 5.04691   1
   0  -6   2 80.9434 6.73508   2
   0   6  -2 84.9488 6.86444   2
   0   6  -2 88.1091 6.08838   1
   0  -6   2 77.0630 6.01099   1
   0   6  -1 273.874 11.3101   2
   0  -6   1 275.830 11.1180   2
   0   6  -1 274.409 10.7009   1
   0  -6   1 268.814 10.6725   1
   0  -6   0 61.3998 5.89770   2
   0  -6   0 62.4583 5.88383   1
   0   6   0 66.7568 6.36143   2
   0   6   0 79.9558 6.56437   1
   0   6   1 20.0364 4.22048   2
   0  -6  -1 18.9208 4.71828   1
   0  -6  -1 21.1817 4.95263   2
   0   6   1 17.7588 4.47177   1
   0   6   2 5.15754 3.68906   2
   0   6   2 3.38724 4.13994   1
   0  -6  -2 1.49447 3.84681   1
   0  -6  -2 11.7023 4.49773   2
   0   6   3 75.4045 7.15146   2
   0   6   3 82.4894 7.51939   1
   0  -6  -3 73.0643 7.52700   1
   0  -6  -3 66.6537 7.37262   2
   0  -6  -4 66.9010 7.19277   1
   0  -6  -4 67.9932 7.36976   2
   0   6   4 73.0633 7.48233   1
   0   6   5 59.0199 8.09723   1
   0  -6  -5 79.8728 8.50260   2
   0  -6  -5 75.6999 8.66634   1
   0  -6  -6 35.1317 7.16715   2
   0   6   6 19.3223 7.05916   1
   0  -6  -6 19.5923 6.82702   1
   0   6   7 78.4340 10.0786   1
   0  -6  -7 86.3188 9.46161   1
   0  -6  -7 89.5345 9.41769   2
   0  -6  -8-2.78925 7.44341   2
   0  -6  -8-8.80236 7.99108   1
   0   6   8 3.87473 6.67458   1
   0   6   9 25.5997 10.1279   1
   0  -6  -9 2.72770 7.99533   2
   0  -6  -9 4.31341 9.47993   1
   0   6  10 0.72385 11.0687   1
   0  -6 -10-15.1403 9.90964   2
   0  -6 -10 12.6662 10.5491   1
   0   7 -16 11.5033 8.09310   2
   0   7 -15-16.3536 10.6940   2
   0  -7  15-0.85026 2.75307   1
   0  -7  14 1.56684 3.10063   1
   0   7 -14-8.20166 7.97393   2
   0  -7  14 1.67333 3.10737   1
   0  -7  13 9.92810 3.49237   1
   0  -7  13 12.2362 3.48319   1
   0   7 -13 9.19155 6.91699   2
   0  -7  12 12.2666 6.47601   2
   0  -7  12 8.41733 3.55797   1
   0  -7  12 12.3469 3.60396   1
   0   7 -12 14.9679 7.50931   2
   0  -7  11 84.5071 5.64888   1
   0  -7  11 80.8739 9.29207   2
   0   7 -11 83.5530 8.84851   2
   0  -7  11 77.2908 5.65240   1
   0   7 -10 393.933 15.9258   2
   0  -7  10 421.859 16.6638   2
   0  -7  10 422.354 11.3320   1
   0   7  -9 16.1057 5.81755   2
   0   7  -9 13.8485 3.58934   1
   0  -7   9 14.4662 5.17476   2
   0  -7   9 8.13899 3.02138   1
   0   7  -8 4.96656 5.04535   2
   0  -7   8 2.58207 3.04578   1
   0   7  -8 3.14828 3.04124   1
   0   7  -7 1.94711 2.99860   1
   0  -7   7 1.83813 2.93405   1
   0  -7   7-3.64982 4.74817   2
   0   7  -7 1.69893 4.30317   2
   0   7  -6 21.3869 5.02918   2
   0  -7   6 16.9512 4.49219   2
   0  -7   6 21.5417 3.98345   1
   0   7  -6 13.6782 3.68733   1
   0   7  -5 86.7432 7.86046   2
   0   7  -5 87.4417 6.36207   1
   0  -7   5 85.7364 7.66198   2
   0  -7   5 90.0024 6.51187   1
   0   7  -4 50.9008 5.29455   1
   0   7  -4 53.3320 6.55413   2
   0  -7   4 57.4863 5.69649   1
   0  -7   4 49.9140 6.34450   2
   0  -7   3 4.80720 3.73403   1
   0   7  -3 6.42892 3.63119   1
   0   7  -3-0.17840 4.36699   2
   0  -7   3 10.6800 4.71045   2
   0  -7   2 55.2962 6.25035   1
   0  -7   2 43.4264 6.37703   2
   0   7  -2 47.3568 5.79409   1
   0   7  -2 46.5435 6.41376   2
   0   7  -1-2.27275 3.94840   1
   0  -7   1-4.00030 4.07596   2
   0  -7   1-4.54062 3.87190   1
   0   7  -1 4.64671 3.79373   2
   0   7   0 5.83737 4.92677   2
   0   7   0 2.03047 4.35348   1
   0  -7   0-0.90693 4.80906   2
   0  -7   0-0.91644 3.78637   1
   0  -7  -1 22.8447 4.88577   1
   0  -7  -1 14.3922 4.91637   2
   0   7   1 20.4215 4.91162   1
   0   7   1 21.9001 5.22781   2
   0  -7  -2 7.37619 4.75293   1
   0   7   2 2.06810 4.20506   1
   0  -7  -2 7.61302 5.55390   2
   0   7   2-7.39820 5.11264   2
   0   7   3 37.8133 6.94290   1
   0  -7  -3 36.5667 6.25564   2
   0  -7  -3 27.6375 6.44752   1
   0   7   3 30.4514 7.07746   2
   0  -7  -4 4.34404 6.32862   1
   0   7   4 10.4947 6.25452   1
   0  -7  -4 17.2723 6.88052   2
   0   7   5 24.0199 7.64030   1
   0  -7  -5 28.8001 7.98702   1
   0  -7  -5 21.1736 6.73840   2
   0   7   6 12.3279 7.10965   1
   0  -7  -6 23.3416 9.02968   1
   0  -7  -6 6.15400 8.00283   2
   0  -7  -7 50.4044 9.93420   2
   0  -7  -7 42.3680 10.3053   1
   0   7   7 35.1707 9.36093   1
   0   7   8 8.83891 10.2793   1
   0  -7  -8 11.4623 9.49549   2
   0  -7  -9 24.9805 11.9061   2
   0  -7  -9 5.88785 10.2048   1
   0   7   9 3.76155 11.7042   1
   0   8 -15 1.18110 11.0148   2
   0  -8  15 0.01240 2.19243   1
   0  -8  14 13.6258 3.52804   1
   0   8 -14 19.0769 9.29236   2
   0   8 -13 105.903 12.4725   2
   0  -8  13 106.440 6.35740   1
   0  -8  13 94.6762 6.08127   1
   0  -8  12 16.6938 4.30860   1
   0   8 -12 12.2643 7.78305   2
   0  -8  12 10.4058 4.01744   1
   0  -8  11 1.10468 3.71112   1
   0  -8  11 6.39931 3.92992   1
   0   8 -11 9.96149 7.83054   2
   0  -8  11 6.90420 6.84755   2
   0  -8  10 44.2371 8.04252   2
   0   8 -10 38.3568 5.00868   1
   0  -8  10 39.4323 5.02885   1
   0   8 -10 32.2621 8.06173   2
   0  -8   9 31.5071 4.78321   1
   0   8  -9 41.7447 7.03797   2
   0   8  -9 30.8545 4.91981   1
   0  -8   9 37.3540 7.85628   2
   0   8  -8 0.03464 3.45300   1
   0   8  -8-3.76298 4.50025   2
   0  -8   8-0.03462 3.73406   1
   0  -8   8 4.66813 5.96933   2
   0  -8   7 24.3321 6.67522   2
   0  -8   7 24.7435 4.75187   1
   0   8  -7 19.8574 4.49715   1
   0   8  -7 18.6377 6.19167   2
   0   8  -6 1.14997 3.75248   1
   0   8  -6 2.52122 4.24825   2
   0  -8   6-3.65099 5.48781   2
   0  -8   6 4.90356 3.82715   1
   0   8  -5 69.9201 7.61361   2
   0   8  -5 71.6673 6.82300   1
   0  -8   5 77.1972 7.09411   1
   0  -8   5 65.9985 7.97045   2
   0  -8   4-0.51557 3.82660   1
   0   8  -4 7.49380 5.64104   2
   0  -8   4 4.11803 5.55635   2
   0   8  -4 6.30746 4.17804   1
   0  -8   3 223.271 12.1477   2
   0   8  -3 225.489 11.2199   1
   0   8  -3 218.847 12.3326   2
   0  -8   3 201.753 10.9065   1
   0   8  -2 69.1782 7.25343   1
   0  -8   2 77.6538 8.26177   2
   0  -8   2 67.5294 7.33176   1
   0   8  -2 76.2499 8.82761   2
   0  -8   1 6.31619 5.19631   2
   0   8  -1 0.22044 5.36252   2
   0  -8   1 0.76827 4.25205   1
   0   8  -1 7.90526 4.76001   1
   0   8   0 37.5690 6.79887   2
   0  -8   0 38.3197 7.45322   2
   0  -8   0 33.6065 7.02129   1
   0   8   0 27.8186 6.13529   1
   0  -8  -1 6.13753 5.85095   2
   0  -8  -1 6.60799 6.00837   1
   0   8   1 12.5738 5.16149   1
   0   8   1 12.2873 5.66211   2
   0   8   2 2.55179 5.21657   2
   0  -8  -2 13.5399 6.58610   1
   0  -8  -2 11.0571 6.90332   2
   0   8   2-0.18265 6.26235   1
   0  -8  -3 8.02882 5.89409   1
   0   8   3 3.69250 6.44197   2
   0   8   3 8.77288 6.77945   1
   0  -8  -3 10.6831 6.26792   2
   0  -8  -4 18.0759 7.81105   2
   0   8   4 14.5106 8.17050   1
   0  -8  -4 7.86002 6.80268   1
   0  -8  -5-9.75881 8.78475   2
   0   8   5 0.22276 7.24713   1
   0  -8  -5-7.03609 7.97617   1
   0  -8  -6 5.59159 9.24664   1
   0  -8  -6 3.82155 9.43175   2
   0   8   6-5.00457 9.15082   1
   0   8   7 4.41898 9.31303   1
   0  -8  -7-5.79486 11.6955   2
   0  -8  -7 9.13828 10.7694   1
   0  -8  -8 1.51713 9.93236   2
   0  -8  -8 34.4974 12.3168   1
   0   8   8 6.63323 10.7315   1
   0   9 -14 3.91980 10.4768   2
   0  -9  14-0.22378 3.96218   1
   0  -9  14 0.13050 3.84956   1
   0  -9  13-1.42297 4.78828   1
   0   9 -13-0.23297 9.11446   2
   0  -9  13-21.5253 9.95557   2
   0  -9  13 0.95614 4.73934   1
   0  -9  12 5.76565 4.92227   1
   0  -9  12-2.91472 4.59468   1
   0   9 -12 0.37062 9.78012   2
   0  -9  12-3.51545 10.1261   2
   0   9 -11 5.13533 4.61385   1
   0   9 -11-5.46636 8.43566   2
   0  -9  11-2.65890 4.69878   1
   0  -9  11-9.78953 8.46850   2
   0  -9  10 23.7044 7.82573   2
   0  -9  10 22.3632 5.41387   1
   0   9 -10 20.0840 8.38611   2
   0   9 -10 19.8547 5.66881   1
   0  -9   9 2.41982 4.84772   1
   0   9  -9 3.15625 4.79712   1
   0  -9   9 1.75238 7.45560   2
   0   9  -9-1.71507 6.25916   2
   0   9  -8-1.74341 6.75804   2
   0  -9   8-6.28818 6.24129   2
   0  -9   8-5.43128 4.98946   1
   0   9  -8 3.66388 4.65964   1
   0   9  -7 43.1876 6.30293   1
   0  -9   7 57.8779 8.70268   2
   0   9  -7 43.6571 8.05668   2
   0  -9   7 41.1035 6.35888   1
   0  -9   6 147.287 9.84720   1
   0   9  -6 149.450 9.90893   1
   0   9  -6 158.106 12.0670   2
   0  -9   6 144.730 11.6983   2
   0   9  -5 0.24717 5.63425   2
   0  -9   5 4.87934 4.83292   1
   0   9  -5-0.52934 4.73278   1
   0  -9   5-4.98006 6.28718   2
   0   9  -4 26.7313 7.49949   2
   0  -9   4 30.4651 6.34925   1
   0   9  -4 37.8154 6.48940   1
   0  -9   4 37.5058 7.10728   2
   0  -9   3 13.1354 6.32567   2
   0  -9   3 29.0070 6.92268   1
   0   9  -3 9.19736 6.30561   2
   0   9  -3 14.5953 6.18815   1
   0  -9   2 78.8146 10.2469   2
   0   9  -2 93.7141 9.47429   1
   0   9  -2 73.5366 9.03790   2
   0  -9   2 80.2341 9.13723   1
   0  -9   1 0.18065 5.44287   1
   0   9  -1 0.70787 7.07891   2
   0   9  -1 10.9519 6.59342   1
   0  -9   1-2.32096 6.34191   2
   0  -9   0 8.61835 6.93784   1
   0   9   0 5.67903 6.13081   2
   0  -9   0 0.46292 5.90761   2
   0   9   0 11.5596 5.85073   1
   0   9   1-5.31770 5.87872   1
   0   9   1-6.61364 7.49488   2
   0  -9  -1 8.58987 6.35622   1
   0  -9  -1 14.3890 8.08342   2
   0  -9  -2 9.45924 6.97700   2
   0  -9  -2 7.98071 8.31552   1
   0   9   2 8.97085 7.33296   2
   0   9   2 5.30643 8.11819   1
   0  -9  -3-9.10718 8.31476   2
   0  -9  -3-9.86449 8.72960   1
   0   9   3-12.1362 9.97716   2
   0   9   4 9.79517 9.48607   1
   0  -9  -4 7.74554 10.0373   2
   0  -9  -4 1.77449 8.79540   1
   0  -9  -5-11.3411 11.8680   1
   0   9   5 17.5998 11.7356   1
   0   9   6 27.2049 13.4942   1
   0  -9  -6-7.01928 10.6489   2
   0  -9  -6 18.2680 13.0639   1
   0 -10  13-6.23756 5.57406   1
   0  10 -13-1.02586 12.2822   2
   0 -10  13-0.52236 5.81686   1
   0 -10  13-2.54188 12.2009   2
   0 -10  12 6.70052 6.00128   1
   0 -10  12 23.6476 10.5028   2
   0  10 -12-0.90433 9.95144   2
   0  10 -11 18.1557 10.5067   2
   0  10 -11 12.1025 6.39455   1
   0 -10  11 22.6966 10.8682   2
   0 -10  11 19.1037 6.57895   1
   0 -10  10 8.78990 6.41339   1
   0  10 -10-0.75112 5.96331   1
   0 -10  10 3.88648 9.66324   2
   0  10 -10-8.96967 8.16177   2
   0  10  -9 14.6571 8.86932   2
   0 -10   9 34.8677 6.88841   1
   0 -10   9 30.2975 8.95720   2
   0  10  -9 25.8991 6.49510   1
   0 -10   8-14.4510 8.87068   2
   0 -10   8 1.63651 6.04709   1
   0  10  -8 1.08504 6.09860   1
   0  10  -8 1.47166 7.43931   2
   0  10  -7 16.6808 8.01861   2
   0 -10   7 24.4311 9.06062   2
   0 -10   7 4.80039 5.97946   1
   0  10  -7 9.53416 5.86050   1
   0 -10   6-9.16753 8.79387   2
   0 -10   6-7.11798 6.04015   1
   0  10  -6 0.81365 6.05497   1
   0  10  -6 7.48188 6.88104   2
   0 -10   5 15.1608 8.51132   2
   0  10  -5 17.6481 6.88916   1
   0  10  -5-0.93770 8.38164   2
   0 -10   5 31.2843 7.63739   1
   0  10  -4 122.880 11.0069   1
   0 -10   4 136.528 11.2681   1
   0  10  -4 132.606 12.2594   2
   0 -10   4 135.466 12.1515   2
   0 -10   3 11.0265 8.32804   2
   0  10  -3 10.8614 7.87762   1
   0  10  -3 15.5835 8.99545   2
   0 -10   3 24.4900 7.18503   1
   0  10  -2 37.0280 9.35344   1
   0 -10   2 48.8011 10.5925   2
   0  10  -2 28.3052 9.69611   2
   0 -10   2 27.7800 7.56148   1
   0 -10   1-0.97660 9.52619   2
   0  10  -1-4.41994 9.36026   2
   0  10  -1 6.24730 6.97300   1
   0 -10   1 6.40241 7.21827   1
   0  10   0 19.4499 9.55961   2
   0 -10   0 7.81503 8.93914   1
   0 -10   0 3.37857 8.38649   2
   0  10   0 11.8816 7.58009   1
   0  10   1 20.8627 9.45387   1
   0 -10  -1 42.6099 11.4765   2
   0 -10  -1 44.3317 11.2906   1
   0  10   1 19.2891 9.72409   2
   0  10   2 19.5810 9.22396   1
   0 -10  -2-3.43640 8.56990   1
   0  10   2-6.74574 8.83720   2
   0 -10  -2 1.47803 11.3810   2
   0 -10  -3-1.28305 11.4276   2
   0 -10  -3-0.26123 12.6553   1
   0  10   3-9.12876 10.0289   1
   0 -10  -4-4.01317 11.1539   2
   0  11 -11-9.44327 10.3572   2
   0  11 -11 14.4811 7.68830   1
   0 -11  11 7.05719 7.22333   1
   0 -11  10 5.55778 7.41171   1
   0  11 -10-2.69327 10.0885   2
   0  11 -10-6.31248 8.31085   1
   0 -11  10 26.1567 12.2221   2
   0  11  -9 8.95104 7.47482   1
   0  11  -9 23.8479 10.8375   2
   0 -11   9 10.6147 11.7989   2
   0 -11   9 18.6750 7.43910   1
   0  11  -8 16.3023 7.71132   1
   0 -11   8 22.8885 8.04962   1
   0 -11   8 4.14067 11.0115   2
   0  11  -8 4.02423 10.4230   2
   0 -11   7 5.10578 10.2276   2
   0  11  -7 3.69088 7.47019   1
   0  11  -7 24.0466 11.7905   2
   0 -11   7 2.73831 7.43724   1
   0 -11   6 19.3239 9.72679   2
   0  11  -6 38.0311 11.9672   2
   0  11  -6 21.4010 8.25240   1
   0 -11   6 24.7984 8.47684   1
   0  11  -5 16.8572 11.7462   2
   0 -11   5 23.2405 11.6853   2
   0  11  -5 33.6901 8.97522   1
   0 -11   5 47.2608 10.0304   1
   0  11  -4 11.3765 9.58317   2
   0 -11   4 5.03071 8.16535   1
   0 -11   4 5.02223 10.9795   2
   0  11  -4 19.8922 8.39540   1
   0 -11   3-3.05675 10.5756   2
   0  11  -3-3.94357 11.0511   2
   0 -11   3 16.0101 9.87387   1
   0  11  -3 6.96471 8.99089   1
   0 -11   2 53.2637 11.6695   1
   0  11  -2 42.7526 10.3456   1
   0  11  -2 48.3333 11.2362   2
   0 -11   2 39.9986 12.5394   2
   0  11  -1-8.65982 12.0438   2
   0 -11   1 24.3555 10.2887   2
   0  11  -1 8.84976 10.5429   1
   0  11   0-8.69087 10.7113   1
   0 -11   0 3.73125 11.5311   2
   0  11   0-10.8269 12.9898   2
   0 -11  -1 31.2049 12.9514   1
   0  11   1 37.1299 12.8729   1
   0 -11  -1 8.56135 11.6577   2
   0  11   1 50.5168 14.0895   2
   0  12  -6 14.8343 6.62991   1
   0 -12   6 12.6369 6.03468   1
   0  12  -5 45.2377 8.62297   1
   0 -12   5 21.5954 7.09897   1
  -1  11   1-1.62027 10.1972   1
   1 -11  -1-10.6443 10.6072   2
   1 -11  -1-22.3901 11.7990   1
  -1  11   1-15.5111 12.3170   2
  -1  11   0 4.71751 12.3703   2
   1 -11   0-1.85421 11.1215   2
   1 -11   0 27.2285 11.8360   1
  -1  11   0 16.2972 11.3793   1
   1 -11   1 30.0931 12.1755   2
  -1  11  -1 43.0920 12.7501   2
   1 -11   1 34.4802 10.2852   1
  -1  11  -1 45.6599 11.7276   1
   1 -11   2-0.50727 9.06117   1
  -1  11  -2-18.8165 11.6965   2
   1 -11   2-3.81306 9.91796   2
  -1  11  -2 6.04942 9.02205   1
  -1  11  -3 10.5585 10.9058   2
   1 -11   3-6.07132 9.19108   2
  -1  11  -3 1.81525 8.45291   1
   1 -11   3-3.74696 8.65994   1
  -1  11  -4 4.07002 8.00156   1
   1 -11   4 8.31626 8.39413   1
  -1  11  -4 9.02418 9.95816   2
   1 -11   4-21.1683 9.47149   2
  -1  11  -5 4.72353 7.52687   1
   1 -11   5 4.97122 9.22429   2
  -1  11  -5 18.6384 10.7963   2
   1 -11   5 3.76995 7.68672   1
   1 -11   6 15.2761 7.90661   1
  -1  11  -6 16.6839 7.69221   1
   1 -11   6 20.6712 11.2251   2
  -1  11  -6-12.4692 10.7293   2
   1 -11   7 5.32065 9.69783   2
   1 -11   7 7.08014 6.94642   1
  -1  11  -7 13.1828 6.92755   1
   1 -11   8 4.88559 6.68932   1
  -1  11  -8 16.1137 10.0704   2
  -1  11  -8 1.77084 7.06557   1
   1 -11   9-20.5308 10.9185   2
  -1  11  -9-1.70847 6.74971   1
   1 -11   9 7.29774 6.75732   1
  -1  11  -9-4.59068 11.9239   2
  -1  11 -10-6.25763 11.0232   2
   1 -11  10 15.3983 13.1255   2
   1 -11  10-6.53815 6.04074   1
  -1  11 -10 3.60658 6.14152   1
   1 -10  -4-3.82902 10.6736   2
   1 -10  -4 0.99484 11.1956   1
  -1  10   4 25.0294 13.4355   1
  -1  10   3-9.20748 11.5564   2
   1 -10  -3-15.9293 12.1298   2
  -1  10   3 13.1538 9.19043   1
   1 -10  -3 16.3788 9.56852   1
  -1  10   2 42.8820 10.6344   2
   1 -10  -2 25.8241 10.5135   1
   1 -10  -2 4.92546 10.3490   2
  -1  10   2 34.6368 10.3191   1
   1 -10  -1 24.4422 10.7519   2
  -1  10   1 13.8225 10.5747   2
   1 -10  -1 28.4273 10.3093   1
  -1  10   1 4.77063 7.97569   1
   1 -10   0 24.4964 9.22658   1
  -1  10   0 44.2098 9.51245   1
   1 -10   0 24.2102 8.35533   2
  -1  10   0 31.6250 8.79899   2
   1 -10   1 23.4551 9.05443   2
  -1  10  -1 19.6585 7.53504   1
  -1  10  -1 12.5046 8.60663   2
   1 -10   1 28.3982 7.91437   1
  -1  10  -2 3.98996 7.40419   1
  -1  10  -2 13.5955 8.85319   2
   1 -10   2 3.68421 8.55033   2
   1 -10   2 21.2917 7.65780   1
  -1  10  -3 21.3297 8.91390   2
   1 -10   3 0.81114 6.36723   1
   1 -10   3-3.04129 8.21164   2
  -1  10  -3 0.97669 6.49982   1
  -1  10  -4 11.0203 8.57328   2
  -1  10  -4 2.43327 6.19379   1
   1 -10   4 2.00200 5.81571   1
   1 -10   4-5.54350 7.59141   2
  -1  10  -5 28.4378 7.97344   2
  -1  10  -5 23.7437 6.54617   1
   1 -10   5 13.9757 8.41689   2
   1 -10   5 32.2700 7.04986   1
   1 -10   6 8.38996 8.66883   2
  -1  10  -6 2.97878 5.48104   1
  -1  10  -6 23.7316 9.19938   2
   1 -10   6-1.26653 5.34873   1
   1 -10   7 11.8907 8.15455   2
   1 -10   7 4.75256 5.05729   1
  -1  10  -7 15.3775 9.21915   2
  -1  10  -7 10.7998 5.48334   1
  -1  10  -8 44.3833 6.94025   1
  -1  10  -8 75.2868 12.3749   2
   1 -10   8 53.9138 6.86456   1
   1 -10   8 53.6257 9.65411   2
   1 -10   9 8.82684 5.00841   1
   1 -10   9 14.1954 8.12235   2
  -1  10  -9 2.59168 4.97224   1
  -1  10  -9 0.15668 8.03539   2
   1 -10  10-5.76624 8.33670   2
  -1  10 -10 1.14472 4.81190   1
  -1  10 -10-11.0196 10.1220   2
   1 -10  10-0.50035 4.51310   1
   1 -10  11 15.8157 3.82262   1
  -1  10 -11 22.5511 11.0280   2
   1 -10  11 7.40816 9.76661   2
   1 -10  12-2.34555 10.0516   2
  -1  10 -12 9.30152 10.3132   2
   1  -9  -6-26.1685 11.4333   2
   1  -9  -6-18.6226 11.3169   1
   1  -9  -5 23.8460 9.51240   1
  -1   9   5 24.2633 9.91064   1
   1  -9  -5 6.43185 9.02585   2
   1  -9  -4 45.1583 11.2101   2
  -1   9   4 68.0926 12.2447   1
   1  -9  -4 41.1654 11.1998   1
  -1   9   4 41.7862 10.8803   2
   1  -9  -3-1.32872 8.92052   1
   1  -9  -3 9.94500 8.81474   2
  -1   9   3 21.1182 8.78209   2
  -1   9   3 24.7634 8.24244   1
  -1   9   2 20.8895 8.35036   2
   1  -9  -2 15.7672 8.31094   1
  -1   9   2-7.53221 6.95780   1
   1  -9  -2-0.53704 8.25895   2
   1  -9  -1 11.0740 7.29057   2
  -1   9   1-0.12827 6.48840   1
  -1   9   1-7.17198 7.37045   2
   1  -9  -1 0.19437 7.26293   1
  -1   9   0 6.59962 7.41510   2
  -1   9   0 8.29174 5.52623   1
   1  -9   0 9.44314 6.37230   2
   1  -9   0-3.44131 6.73429   1
  -1   9  -1 58.9069 8.33825   1
   1  -9   1 56.6372 8.04529   1
  -1   9  -1 62.8260 8.56877   2
   1  -9   1 61.2514 8.58638   2
  -1   9  -2 4.09233 5.57224   1
  -1   9  -2 25.4660 7.90799   2
   1  -9   2 20.4645 7.24528   2
   1  -9   2 17.9523 6.08735   1
  -1   9  -3 7.68917 5.12979   1
   1  -9   3 3.33644 5.31379   2
  -1   9  -3 5.70691 5.92936   2
   1  -9   3 4.19828 5.03921   1
   1  -9   4 23.9939 5.93585   1
  -1   9  -4 14.1689 6.95971   2
  -1   9  -4 27.4724 6.14161   1
   1  -9   4 35.1589 6.93776   2
   1  -9   5 31.2262 6.97956   2
  -1   9  -5 23.7463 7.68163   2
   1  -9   5 32.1485 5.91082   1
  -1   9  -5 29.6796 5.84892   1
  -1   9  -6 6.01866 5.81092   2
   1  -9   6-0.27208 4.32895   1
   1  -9   6 5.84494 5.55634   2
  -1   9  -6-3.60224 4.40155   1
   1  -9   7 3.39475 6.86088   2
   1  -9   7-2.62251 4.40302   1
  -1   9  -7 2.25617 4.25457   1
  -1   9  -7 6.20874 6.99023   2
  -1   9  -8 64.6075 6.20739   1
   1  -9   8 60.5008 5.96046   1
   1  -9   8 68.4119 10.1854   2
  -1   9  -8 53.7116 9.18540   2
  -1   9  -9 33.3466 8.85152   2
   1  -9   9 40.1566 9.38740   2
  -1   9  -9 29.5585 4.68273   1
   1  -9   9 29.3400 4.67818   1
   1  -9  10 20.4146 7.97295   2
  -1   9 -10 19.9984 8.09030   2
  -1   9 -10 17.3227 3.84464   1
   1  -9  10 17.0097 3.70124   1
  -1   9 -11 47.9212 9.56419   2
   1  -9  11 34.9320 10.1340   2
   1  -9  11 39.9056 3.19390   1
  -1   9 -12 45.4155 11.9004   2
   1  -9  12 15.9388 10.9154   2
  -1   9 -13-12.6081 11.2190   2
   1  -8  -8-9.28917 10.9731   2
   1  -8  -8-22.9142 11.3177   1
   1  -8  -7-11.9233 11.1366   1
  -1   8   7-19.6464 8.95254   1
   1  -8  -7 14.2053 9.98489   2
  -1   8   6 64.0609 11.2928   1
   1  -8  -6 53.0676 11.5332   1
   1  -8  -6 71.0167 11.4203   2
   1  -8  -5 19.0235 8.08647   1
   1  -8  -5 13.7355 7.17546   2
  -1   8   5 30.1539 9.54622   1
  -1   8   4 1.96633 6.14311   1
  -1   8   4 2.60669 7.39457   2
   1  -8  -4-4.72926 6.05247   2
   1  -8  -4 10.1360 7.98817   1
  -1   8   3 21.0761 6.89809   2
   1  -8  -3 25.4647 7.63275   1
   1  -8  -3 36.4681 7.60601   2
  -1   8   3 19.7433 7.57902   1
  -1   8   2 1.87747 6.35143   1
  -1   8   2 4.46014 5.96120   2
   1  -8  -2-2.63881 5.62498   2
   1  -8  -2-1.78468 5.08528   1
  -1   8   1 120.717 10.2506   2
  -1   8   1 138.682 10.0535   1
   1  -8  -1 129.135 10.2161   2
   1  -8  -1 129.338 9.89443   1
   1  -8   0-9.77828 6.01560   2
   1  -8   0 1.73963 4.32291   1
  -1   8   0 4.53739 4.31369   1
  -1   8   0 0.54907 4.71395   2
  -1   8  -1 38.1974 6.60789   2
   1  -8   1 25.2168 5.94399   2
   1  -8   1 28.1884 5.37275   1
  -1   8  -1 33.8274 6.13322   1
   1  -8   2 74.0820 7.38509   1
  -1   8  -2 87.9001 7.62328   1
  -1   8  -2 98.4815 9.07843   2
   1  -8   2 84.0233 8.43618   2
  -1   8  -3 384.500 13.6599   1
   1  -8   3 358.824 14.9300   2
   1  -8   3 392.740 13.7453   1
  -1   8  -3 383.060 15.6585   2
  -1   8  -4 4.29374 3.96667   1
   1  -8   4 3.46078 3.86317   1
  -1   8  -4 5.45893 5.43409   2
   1  -8   4 1.85187 5.28208   2
  -1   8  -5 16.6483 4.36065   1
   1  -8   5 16.2007 4.32216   1
   1  -8   5 17.1070 5.36173   2
  -1   8  -5 9.53063 4.82442   2
   1  -8   6 194.498 12.0027   2
  -1   8  -6 200.872 12.0942   2
   1  -8   6 195.396 8.83883   1
  -1   8  -6 190.922 8.72960   1
  -1   8  -7 1.50728 3.33209   1
  -1   8  -7 2.93114 5.92084   2
   1  -8   7 7.17505 3.24823   1
   1  -8   7-1.35133 5.38057   2
   1  -8   8 2.29824 6.36456   2
  -1   8  -8 0.65697 6.38850   2
  -1   8  -8-1.48677 2.89041   1
   1  -8   8 1.92763 3.07485   1
  -1   8  -9 4.14212 2.86098   1
  -1   8  -9 2.11243 5.36119   2
   1  -8   9 0.55329 2.69926   1
   1  -8   9 4.49061 6.49335   2
   1  -8  10 33.7302 3.13823   1
   1  -8  10 39.4022 3.26015   1
  -1   8 -10 51.1665 9.22101   2
   1  -8  10 40.6618 7.96846   2
   1  -8  11 17.6957 8.55735   2
  -1   8 -11 5.97922 7.43703   2
  -1   8 -12 22.3136 9.19078   2
  -1   8 -13 5.46680 9.28051   2
  -1   8 -14-10.0243 11.9218   2
  -1   7   9 23.7893 10.6299   1
   1  -7  -9 17.5144 11.9740   1
   1  -7  -9 15.9064 9.90188   2
   1  -7  -8 30.6589 9.49915   2
   1  -7  -8 27.5033 10.3734   1
  -1   7   8 43.2002 10.9572   1
   1  -7  -7 55.3747 10.0790   1
  -1   7   7 80.9588 11.7070   1
   1  -7  -7 59.4004 9.37721   2
   1  -7  -6 37.3355 8.98068   1
  -1   7   6 25.8513 8.36832   1
   1  -7  -6 55.7247 9.07547   2
   1  -7  -5 10.9288 6.48369   2
  -1   7   5 2.77988 5.94464   1
   1  -7  -5 17.3222 7.27673   1
   1  -7  -4 4.48967 5.42304   1
  -1   7   4 0.31619 5.24781   2
  -1   7   4 9.59211 6.45695   1
   1  -7  -4 3.42369 5.77292   2
   1  -7  -3 13.4190 6.12660   1
  -1   7   3 2.85318 5.08062   2
  -1   7   3 9.04660 4.62599   1
   1  -7  -3 2.21660 4.64488   2
  -1   7   2 28.2737 5.48128   1
  -1   7   2 26.2443 6.17967   2
   1  -7  -2 19.2720 5.55604   1
   1  -7  -2 40.9266 6.56220   2
   1  -7  -1 300.139 13.1223   2
   1  -7  -1 303.534 12.9377   1
  -1   7   1 303.688 13.2509   2
  -1   7   1 285.507 12.8594   1
   1  -7   0 21.7181 5.05346   1
  -1   7   0 34.2403 5.47159   1
   1  -7   0 29.3070 5.59132   2
  -1   7   0 16.8511 5.30465   2
   1  -7   1 59.4141 6.57104   2
   1  -7   1 65.4690 6.46088   1
  -1   7  -1 64.6876 6.34713   1
  -1   7  -1 62.4785 7.11900   2
   1  -7   2-0.90286 3.36063   1
  -1   7  -2-2.00880 4.22865   2
  -1   7  -2 2.06760 3.51888   1
   1  -7   2-2.28794 4.03698   2
   1  -7   3-4.89109 4.35685   2
  -1   7  -3 0.67553 4.25976   2
  -1   7  -3 5.78804 3.44894   1
   1  -7   3 4.28031 3.27093   1
   1  -7   4 30.7931 5.75933   2
  -1   7  -4 41.3088 4.67876   1
   1  -7   4 42.2745 4.70351   1
  -1   7  -4 43.0825 6.14120   2
   1  -7   5 4.92358 4.34935   2
  -1   7  -5 3.74115 2.99230   1
   1  -7   5-0.30280 2.71033   1
  -1   7  -5 0.79516 4.57175   2
  -1   7  -6 142.351 9.96142   2
   1  -7   6 139.751 6.57530   1
   1  -7   6 152.678 9.58697   2
  -1   7  -6 155.308 6.86954   1
  -1   7  -7 5.36665 4.30881   2
  -1   7  -7 4.50431 2.64857   1
   1  -7   7 9.95696 4.45211   2
   1  -7   7-0.19330 2.37231   1
  -1   7  -8 16.7131 5.94242   2
  -1   7  -8 23.0093 3.08862   1
   1  -7   8 22.2293 2.95605   1
   1  -7   8 18.0278 5.11705   2
  -1   7  -9 4.72331 5.42159   2
   1  -7   9 8.33819 5.29720   2
   1  -7   9 5.88528 1.88442   1
   1  -7  10 205.362 13.1052   2
  -1   7 -10 225.057 12.9925   2
   1  -7  10 199.683 3.89262   1
  -1   7 -11 11.6971 7.03000   2
  -1   7 -12 19.8211 7.42400   2
  -1   7 -13 12.8545 8.00450   2
  -1   7 -14 9.37586 10.3711   2
  -1   7 -15-0.40517 11.2088   2
   1  -6 -11-3.24844 9.77607   2
  -1   6  11 23.7047 12.0111   1
   1  -6 -11 7.22506 10.2075   1
  -1   6  10-0.24455 9.15951   1
   1  -6 -10 5.45867 10.1790   1
   1  -6 -10 7.77741 8.74175   2
   1  -6  -9 33.2213 8.58560   2
   1  -6  -9 41.4550 10.7186   1
  -1   6   9 53.0222 11.2085   1
  -1   6   8 22.3389 8.47842   1
   1  -6  -8 31.1316 7.39328   2
   1  -6  -8 28.2608 7.89079   1
   1  -6  -7 59.8599 8.26421   2
  -1   6   7 42.1610 7.54916   1
   1  -6  -7 49.7486 9.18676   1
   1  -6  -6-0.04994 4.93527   2
  -1   6   6-1.37679 6.24538   1
   1  -6  -6 6.54970 6.08436   1
  -1   6   5 5.06963 5.26665   1
   1  -6  -5-0.46825 4.47172   2
   1  -6  -5-8.26688 5.55503   1
  -1   6   4 73.0158 7.91740   1
   1  -6  -4 75.1783 7.85707   1
   1  -6  -4 79.1077 7.49129   2
  -1   6   4 76.9476 7.45934   2
   1  -6  -3 3.60114 3.93682   2
  -1   6   3 10.7065 4.62826   2
   1  -6  -3 7.07598 4.65105   1
  -1   6   3 3.10830 3.62999   1
  -1   6   2 76.5085 6.66250   2
   1  -6  -2 63.2102 6.44262   1
  -1   6   2 74.9012 6.67446   1
   1  -6  -2 74.9320 6.81389   2
  -1   6   1 92.9472 7.06490   2
   1  -6  -1 97.3767 7.12346   2
   1  -6  -1 102.157 7.55138   1
  -1   6   1 83.6574 6.82727   1
   1  -6   0 5.81713 3.36632   1
  -1   6   0 9.97752 3.59429   1
   1  -6   0 4.71607 3.53617   2
  -1   6   0 7.81845 3.81338   2
  -1   6  -1 331.943 12.1180   2
   1  -6   1 343.778 12.0887   2
  -1   6  -1 338.082 11.2977   1
   1  -6   1 334.162 11.1110   1
   1  -6   2 9.39786 3.06406   1
   1  -6   2 16.6004 4.36994   2
  -1   6  -2 5.03116 3.34871   2
  -1   6  -2 12.6451 3.24068   1
   1  -6   3 28.4168 3.77038   1
  -1   6  -3 26.5174 4.59333   2
   1  -6   3 28.6310 4.81971   2
  -1   6  -3 25.8771 3.65222   1
   1  -6   4 5.96987 3.72428   2
   1  -6   4 7.23856 2.62364   1
  -1   6  -4 7.77167 2.67211   1
  -1   6  -4 7.29990 3.82565   2
   1  -6   5 97.6538 5.13942   1
  -1   6  -5 111.268 7.83652   2
   1  -6   5 98.7978 7.05437   2
  -1   6  -5 103.917 5.25868   1
   1  -6   6 257.380 11.5442   2
  -1   6  -6 278.313 11.7904   2
  -1   6  -6 264.112 7.38265   1
   1  -6   6 269.702 7.49718   1
  -1   6  -7 46.3018 6.16963   2
  -1   6  -7 56.0079 3.39041   1
   1  -6   7 56.8060 3.49672   1
   1  -6   7 61.0437 6.44556   2
   1  -6   8 36.1869 6.33262   2
  -1   6  -8 45.8645 6.53537   2
   1  -6   8 32.8134 2.39818   1
  -1   6  -9 22.3632 5.73304   2
   1  -6   9 20.8070 1.30478   1
   1  -6   9 33.9490 6.71275   2
   1  -6   9 19.9468 1.33446   1
  -1   6 -10 13.1605 5.24681   2
  -1   6 -11-1.14934 6.11861   2
  -1   6 -12 9.79586 7.52029   2
  -1   6 -13 55.2210 9.37337   2
  -1   6 -14 57.6475 10.8578   2
  -1   6 -15 9.17937 10.7452   2
   1  -5 -12 10.9107 9.95980   2
  -1   5  12 8.90565 11.5721   1
   1  -5 -12 5.81688 12.4994   1
   1  -5 -11-2.68467 8.21665   2
  -1   5  11-6.76308 8.58930   1
   1  -5 -11 11.7012 9.44471   1
   1  -5 -10 59.1242 9.39727   1
   1  -5 -10 65.3924 9.35911   2
  -1   5  10 88.1689 11.5697   1
   1  -5  -9 41.2127 8.98892   1
  -1   5   9 40.7741 8.18133   1
   1  -5  -9 46.9203 7.79219   2
   1  -5  -8 17.0059 6.86338   1
   1  -5  -8 30.2175 6.42203   2
  -1   5   8 17.9171 6.75025   1
   1  -5  -7 15.9540 5.71443   1
   1  -5  -7 17.7473 5.30991   2
  -1   5   7 16.2593 5.56023   1
  -1   5   6 14.3073 5.31875   1
   1  -5  -6 11.1224 4.49888   2
   1  -5  -6 1.65973 4.99117   1
   1  -5  -5 3.56949 4.05409   2
   1  -5  -5 8.26803 4.04213   1
  -1   5   5 13.6435 4.50073   1
  -1   5   4 52.4316 5.65511   2
  -1   5   4 53.8688 5.96408   1
   1  -5  -4 54.0653 6.38220   1
   1  -5  -4 49.7226 5.65407   2
   1  -5  -3 0.40849 3.36633   2
   1  -5  -3 2.46478 3.13572   1
  -1   5   3 0.98424 3.23704   2
  -1   5   3 2.95503 3.70345   1
   1  -5  -2 126.899 7.33786   2
   1  -5  -2 108.914 7.27840   1
  -1   5   2 120.867 7.60417   1
  -1   5   2 119.653 7.08731   2
  -1   5   1 113.657 6.78448   1
   1  -5  -1 113.504 6.90505   2
  -1   5   1 112.267 6.81530   2
   1  -5  -1 97.6752 6.31279   1
   1  -5   0 16.4112 3.49685   1
  -1   5   0 17.6356 3.81003   2
   1  -5   0 10.8304 3.44855   2
  -1   5   0 15.5581 3.41117   1
   1  -5   1 12.8476 3.15569   2
   1  -5   1 15.5535 3.01721   1
  -1   5  -1 13.1010 3.04881   1
  -1   5  -1 12.0384 3.53556   2
  -1   5  -2 15.2345 3.11788   2
  -1   5  -2 19.8235 2.95153   1
   1  -5   2 19.6056 3.63202   2
   1  -5   2 16.3877 2.84770   1
   1  -5   3 170.191 8.10096   2
  -1   5  -3 180.054 6.50510   1
   1  -5   3 188.238 6.63489   1
  -1   5  -3 178.490 8.11217   2
  -1   5  -4 108.244 4.76575   1
   1  -5   4 106.149 4.74927   1
   1  -5   4 103.723 6.71098   2
  -1   5  -4 106.921 6.72080   2
  -1   5  -5 85.3943 3.92909   1
   1  -5   5 78.8288 6.13488   2
  -1   5  -5 83.6077 6.48671   2
   1  -5   5 87.4824 3.95803   1
   1  -5   6 15.3578 3.65040   2
   1  -5   6 14.8594 1.84771   1
  -1   5  -6 17.0483 4.25847   2
  -1   5  -6 16.1053 1.87031   1
   1  -5   7 3.27962 3.59692   2
  -1   5  -7-2.52849 3.63887   2
   1  -5   7 0.25523 0.91815   1
  -1   5  -8 246.303 11.1669   2
   1  -5   8 241.233 11.2740   2
  -1   5  -9-4.97599 4.24226   2
  -1   5 -10 34.7691 6.24341   2
  -1   5 -11 142.103 10.2883   2
  -1   5 -12 35.5985 7.74049   2
  -1   5 -13 110.461 10.9129   2
  -1   5 -14-6.26121 7.83724   2
  -1   5 -15-0.67170 9.97567   2
  -1   5 -16 27.2330 11.8823   2
   1  -4 -13-3.86976 9.65092   1
   1  -4 -13-12.9443 9.33568   2
  -1   4  13-17.1049 10.6201   1
   1  -4 -12 27.0396 9.33975   1
  -1   4  12 17.2197 9.60985   1
   1  -4 -12-0.48416 7.69829   2
   1  -4 -11-3.57429 8.60443   1
   1  -4 -11-0.05561 6.87873   2
  -1   4  11-14.5036 8.83369   1
   1  -4 -10 4.06826 5.73537   2
   1  -4 -10 13.7914 7.50259   1
  -1   4  10 26.1693 8.30958   1
  -1   4   9 13.7253 5.72869   1
   1  -4  -9 5.01271 5.19539   2
   1  -4  -9 13.0996 5.57584   1
   1  -4  -8 89.8550 8.91857   1
   1  -4  -8 81.7849 7.47545   2
  -1   4   8 73.1581 8.38376   1
   1  -4  -7 11.2470 4.97154   1
  -1   4   7 3.25875 4.83209   1
   1  -4  -7 11.8973 4.17763   2
  -1   4   6 32.3721 5.87499   1
   1  -4  -6 22.9197 4.36060   2
   1  -4  -6 22.4131 5.00664   1
  -1   4   5 113.940 7.81613   1
   1  -4  -5 108.486 6.75649   2
   1  -4  -5 111.496 7.91980   1
   1  -4  -4 0.43499 2.62218   2
  -1   4   4 0.98818 3.51689   1
   1  -4  -4 0.25365 3.01744   1
  -1   4   4 0.60921 2.61429   2
  -1   4   3 584.921 13.3380   2
   1  -4  -3 598.629 14.8696   1
  -1   4   3 589.143 14.8187   1
   1  -4  -3 532.261 12.7505   2
   1  -4  -2 221.769 8.16694   2
  -1   4   2 203.056 8.53772   1
  -1   4   2 213.812 8.00841   2
   1  -4  -2 220.737 8.73487   1
   1  -4  -1 108.145 5.73043   2
  -1   4   1 115.971 6.11285   1
  -1   4   1 115.845 5.88198   2
   1  -4  -1 103.592 5.84077   1
   1  -4   0 62.4884 4.59057   2
  -1   4   0 66.6652 4.62937   2
  -1   4   0 63.8576 4.36733   1
   1  -4   0 62.2848 4.44892   1
   1  -4   1 109.233 5.57707   2
   1  -4   1 113.188 5.15272   1
  -1   4  -1 116.283 5.31703   1
  -1   4  -1 119.406 5.89048   2
  -1   4  -2 191.808 7.40602   2
  -1   4  -2 195.352 6.09520   1
   1  -4   2 193.484 7.45955   2
   1  -4   2 187.587 5.97617   1
  -1   4  -3 137.127 4.70173   1
   1  -4   3 138.437 4.71383   1
   1  -4   3 131.500 6.51182   2
  -1   4  -3 138.178 6.59385   2
   1  -4   4 57.6476 2.82998   1
  -1   4  -4 62.1396 2.91075   1
   1  -4   4 56.3621 4.64414   2
  -1   4  -4 54.5363 4.77406   2
   1  -4   5 31.4872 3.98259   2
  -1   4  -5 37.7266 4.47375   2
  -1   4  -5 34.3953 1.89621   1
   1  -4   5 37.3987 1.94988   1
  -1   4  -6 167.024 8.12665   2
   1  -4   6 177.132 2.84463   1
   1  -4   6 171.414 8.31097   2
   1  -4   6 185.289 2.91731   1
  -1   4  -7 20.3460 3.68959   2
   1  -4   7 13.9027 3.83007   2
  -1   4  -8 86.3978 7.00782   2
  -1   4  -9 18.6733 4.55794   2
  -1   4 -10 14.3045 4.53624   2
  -1   4 -11 69.4069 7.98113   2
  -1   4 -12 6.28707 5.93764   2
  -1   4 -13 18.4325 7.70264   2
  -1   4 -14 10.4385 6.95202   2
  -1   4 -15-1.89216 8.25282   2
  -1   4 -16 8.57409 10.2482   2
   1  -3 -14-15.9792 9.72073   2
   1  -3 -14 11.3881 9.81359   1
   1  -3 -13 0.22230 8.97453   1
   1  -3 -13 4.07054 7.83108   2
  -1   3  13 1.55440 8.16503   1
   1  -3 -12 12.7749 8.30060   1
   1  -3 -12 29.7645 7.74110   2
  -1   3  12 4.15063 8.17693   1
   1  -3 -11 10.4330 7.27033   1
   1  -3 -11 16.5106 6.07539   2
  -1   3  11 2.93550 6.87931   1
  -1   3  10 5.70777 6.29496   1
   1  -3 -10 3.11760 5.05216   1
   1  -3 -10 12.6272 5.07120   2
  -1   3   9 69.1891 8.07708   1
   1  -3  -9 72.2536 6.85421   2
   1  -3  -9 70.9348 8.02165   1
   1  -3  -8 12.3665 4.02125   2
   1  -3  -8 7.45463 3.90812   1
  -1   3   8 12.7617 4.74416   1
   1  -3  -7 0.98763 3.07921   2
  -1   3   7 0.51071 3.80392   1
   1  -3  -7 3.49562 4.03350   1
   1  -3  -6 13.7451 3.37864   2
   1  -3  -6 11.2342 3.87506   1
  -1   3   6 12.4464 3.72070   1
  -1   3   5 242.856 9.95228   1
   1  -3  -5 259.207 8.82977   2
   1  -3  -5 254.819 10.1496   1
  -1   3   4 173.419 7.84169   1
  -1   3   4 181.434 6.95428   2
   1  -3  -4 182.670 7.00393   2
   1  -3  -4 170.347 8.02795   1
  -1   3   3 99.8984 5.09480   2
   1  -3  -3 95.6429 4.99979   2
  -1   3   3 95.9060 5.87337   1
   1  -3  -3 100.481 5.92748   1
   1  -3  -2 43.1665 3.46777   2
  -1   3   2 50.2934 3.74302   2
   1  -3  -2 46.7241 3.92209   1
  -1   3   2 44.3652 3.83159   1
   1  -3  -1 121.137 5.17176   2
   1  -3  -1 120.874 5.40720   1
  -1   3   1 112.145 5.00449   2
  -1   3   1 119.550 5.36507   1
  -1   3   0 106.691 4.79631   2
   1  -3   0 108.406 4.75956   1
  -1   3   0 106.974 4.77627   1
   1  -3   0 115.562 4.97164   2
  -1   3  -1 299.560 7.87840   2
   1  -3   1 303.194 7.78667   2
   1  -3   1 297.559 6.79864   1
  -1   3  -1 303.468 6.89951   1
  -1   3  -2 2309.52 16.4416   1
   1  -3   2 2358.91 22.1313   2
  -1   3  -2 2409.03 22.2823   2
   1  -3   2 2323.14 16.4024   1
   1  -3   3 42.8618 3.80670   2
  -1   3  -3 39.6878 2.00849   1
  -1   3  -3 40.1966 3.75372   2
   1  -3   3 43.8076 2.09477   1
   1  -3   4 109.613 2.21038   1
   1  -3   4 113.114 5.86366   2
  -1   3  -4 109.151 2.21111   1
  -1   3  -4 111.905 5.64704   2
  -1   3  -5 34.7581 3.83397   2
   1  -3   5 28.5809 3.85717   2
  -1   3  -6 42.8427 4.49485   2
  -1   3  -7 45.2044 5.10878   2
  -1   3  -8 58.7232 5.46048   2
  -1   3  -9 96.6279 7.52828   2
   1  -3   9 87.1010 2.66244   1
   1  -3   9 90.8967 2.65555   1
  -1   3 -10 6.09667 4.18094   2
   1  -3  10 7.36188 1.40050   1
   1  -3  10 8.38149 1.42090   1
   1  -3  11 135.214 4.44783   1
   1  -3  11 130.867 4.34170   1
  -1   3 -11 139.061 9.57095   2
   1  -3  12 3.39105 1.94315   1
   1  -3  12 0.53757 1.83733   1
  -1   3 -12-1.93239 6.11052   2
   1  -3  13 1.19745 2.17341   1
  -1   3 -13-4.12685 5.93709   2
   1  -3  13 0.88151 2.20592   1
   1  -3  14 1.29959 2.68495   1
   1  -3  14-1.63109 2.48836   1
  -1   3 -14-0.86394 7.05479   2
   1  -3  15 84.7658 4.80215   1
  -1   3 -15 118.851 13.2217   2
   1  -3  15 100.912 5.17725   1
  -1   3 -16 8.60224 11.6628   2
   1  -3  16-3.20241 2.63153   1
   1  -2 -14 11.2704 8.58740   1
   1  -2 -14 13.7957 8.06021   2
  -1   2  14 19.4890 8.95638   1
   1  -2 -13 17.4606 7.43218   2
  -1   2  13 10.4685 8.40751   1
   1  -2 -13 12.6393 8.54904   1
   1  -2 -12 4.18548 6.74287   1
  -1   2  12 0.12142 6.52217   1
   1  -2 -12 1.43122 5.38031   2
   1  -2 -11 15.1156 5.15796   2
  -1   2  11 22.0683 6.49039   1
   1  -2 -11 31.0329 6.66982   1
  -1   2  10 46.8240 6.68732   1
   1  -2 -10 32.8379 6.21802   1
   1  -2 -10 46.1613 5.83472   2
  -1   2   9 159.088 9.94550   1
   1  -2  -9 186.285 10.4814   1
   1  -2  -9 182.359 8.82976   2
   1  -2  -8 15.2997 4.16579   1
  -1   2   8 18.6778 4.62764   1
   1  -2  -8 16.6861 3.63426   2
   1  -2  -7 61.1579 5.55405   1
   1  -2  -7 57.8883 4.74459   2
  -1   2   7 55.1325 5.52848   1
   1  -2  -6 40.9245 3.81311   2
   1  -2  -6 37.8669 4.37252   1
  -1   2   6 44.0547 4.75497   1
   1  -2  -5 767.683 12.8226   2
  -1   2   5 800.813 15.9243   1
   1  -2  -5 769.371 15.7078   1
   1  -2  -4 139.978 5.28832   2
  -1   2   4 133.943 6.45486   1
   1  -2  -4 136.138 6.59853   1
   1  -2  -3 245.895 6.30731   2
  -1   2   3 232.194 6.09687   2
   1  -2  -3 241.431 7.84269   1
  -1   2   3 241.922 7.74522   1
  -1   2   2 2488.90 18.3688   2
   1  -2  -2 2553.79 18.4837   2
   1  -2  -2 2520.86 22.5744   1
  -1   2   2 2519.87 22.3595   1
   1  -2  -1 1071.06 11.5884   2
  -1   2   1 1011.24 12.9196   1
  -1   2   1 1067.08 11.6136   2
   1  -2  -1 1065.11 13.3106   1
   1  -2   0 800.465 10.1402   2
  -1   2   0 867.451 10.6278   1
  -1   2   0 834.454 10.4241   2
   1  -2   0 825.350 10.4594   1
   1  -2   1 454.184 8.09008   2
  -1   2  -1 463.254 8.24200   2
   1  -2   1 417.628 6.40810   1
  -1   2  -1 467.528 6.67698   1
   1  -2   2 1195.28 14.0885   2
   1  -2   2 1209.64 8.46658   1
  -1   2  -2 1202.10 8.46041   1
  -1   2  -2 1185.86 14.0208   2
  -1   2  -3 781.277 12.3631   2
   1  -2   3 761.344 12.2786   2
  -1   2  -4 715.736 12.8784   2
  -1   2  -5 5.29951 2.67063   2
   1  -2   6 3.70467 0.64157   1
   1  -2   6 3.31902 0.64438   1
  -1   2  -6 1.10030 2.69771   2
  -1   2  -7 19.9774 3.90402   2
  -1   2  -7 29.0537 1.89661   1
   1  -2   7 18.2770 1.49880   1
   1  -2   8 293.915 5.96341   1
  -1   2  -8 288.638 10.8752   2
  -1   2  -8 295.522 6.06427   1
  -1   2  -9 0.03998 3.28727   2
   1  -2   9 0.06814 1.51635   1
  -1   2  -9-0.48763 1.57046   1
   1  -2  10 12.0776 2.40951   1
  -1   2 -10 9.64769 4.87101   2
   1  -2  11 18.5786 3.05964   1
  -1   2 -11 6.96331 5.31123   2
   1  -2  12 82.1395 5.25384   1
  -1   2 -12 88.5978 9.14931   2
   1  -2  13 17.9493 3.84112   1
  -1   2 -13 24.6779 7.47103   2
   1  -2  13 20.6161 4.03671   1
   1  -2  14 9.98263 4.38846   1
   1  -2  14 3.38308 4.15810   1
  -1   2 -14 11.6094 8.24280   2
  -1   2 -15 3.23781 8.79737   2
   1  -2  15 6.71508 4.63941   1
   1  -2  15 7.75703 4.63314   1
  -1   2 -16 26.2569 8.15623   2
   1  -2  16 21.8792 3.85865   1
   1  -1 -15 12.7631 8.71690   2
   1  -1 -15 2.40503 9.62754   1
   1  -1 -15 7.46173 8.53385   2
  -1   1  15 0.14007 9.34683   1
   1  -1 -14 31.6511 8.31307   2
   1  -1 -14 30.2179 8.07969   2
  -1   1  14 35.5311 9.49248   1
   1  -1 -14 42.2813 9.22467   1
   1  -1 -13 8.28043 6.85676   1
   1  -1 -13-0.24171 5.88238   2
  -1   1  13 1.12599 7.16051   1
   1  -1 -13 7.74689 5.81195   2
   1  -1 -12 17.7211 5.62784   2
   1  -1 -12 11.5981 5.76518   1
  -1   1  12 28.0588 6.75731   1
   1  -1 -11 23.4179 5.70990   1
   1  -1 -11 19.4453 4.97295   2
  -1   1  11 17.9018 5.80147   1
  -1   1  10 1.92559 4.39005   1
   1  -1 -10 7.95040 4.53105   1
   1  -1 -10 13.8235 4.03665   2
  -1   1   9 23.4515 4.78770   1
   1  -1  -9 18.7572 4.49302   1
   1  -1  -9 23.5552 4.02246   2
   1  -1  -8 29.0405 3.77793   2
  -1   1   8 24.0098 4.23215   1
   1  -1  -8 24.7604 4.03013   1
  -1   1   7 286.964 10.2284   1
   1  -1  -7 288.579 10.3832   1
   1  -1  -7 280.529 8.36710   2
   1  -1  -6 7.56141 2.16527   2
  -1   1   6 7.72952 2.78615   1
   1  -1  -6 6.14510 2.61823   1
   1  -1  -5 200.102 7.53204   1
   1  -1  -5 208.664 5.88807   2
  -1   1   5 198.999 7.57692   1
   1  -1  -4 156.181 6.31036   1
   1  -1  -4 146.044 4.35093   2
  -1   1   4 149.877 6.17186   1
   1  -1  -3 220.813 4.56112   2
   1  -1  -3 223.546 6.70697   1
  -1   1   3 212.378 6.56685   1
   1  -1  -2 1053.93 8.35491   2
  -1   1   2 1064.29 8.41204   2
   1  -1  -2 1013.36 12.6942   1
  -1   1   2 1043.01 12.8945   1
   1  -1  -1 1873.01 10.7625   2
   1  -1  -1 1908.38 15.3813   1
  -1   1   1 1908.26 15.3616   1
  -1   1   1 1857.73 10.8474   2
  -1   1   0 4.19907 1.20580   1
  -1   1   0 4.08584 1.10947   2
   1  -1   0 4.82010 1.14570   2
   1  -1   0 4.89659 1.32368   1
  -1   1  -1 119.843 2.83420   1
  -1   1  -1 122.014 3.85553   2
   1  -1   1 124.032 3.80816   2
  -1   1  -1 122.408 2.90707   1
  -1   1  -2 75.0735 3.48569   2
  -1   1  -2 76.1358 1.83506   1
   1  -1   3 0.60989 0.51738   1
  -1   1  -3-0.13508 0.49259   1
   1  -1   4 13.9620 1.13934   1
  -1   1  -4 12.5312 1.10470   1
   1  -1   5 680.661 7.83534   1
  -1   1  -5 706.099 7.95842   1
  -1   1  -6 401.917 7.09790   1
   1  -1   6 398.871 7.01738   1
   1  -1   7 134.393 4.75060   1
  -1   1  -7 128.721 4.68833   1
  -1   1  -8 5.73068 1.98219   1
   1  -1   8 5.35657 1.97735   1
   1  -1   9 80.8345 4.73932   1
  -1   1  -9 89.2169 7.38156   2
  -1   1  -9 86.3523 4.81585   1
   1  -1  10 2.85445 2.63198   1
  -1   1 -10-2.09237 4.44980   2
  -1   1 -10 0.04728 2.58642   1
  -1   1 -11 35.2469 4.32972   1
   1  -1  11 37.3113 4.30046   1
  -1   1 -11 44.9083 7.24275   2
  -1   1 -12 12.1553 3.82115   1
   1  -1  12 4.59816 3.42019   1
  -1   1 -12 5.60269 5.25600   2
  -1   1 -13 96.7269 10.0764   2
   1  -1  13 99.2624 7.25448   1
  -1   1 -13 90.9450 7.01983   1
  -1   1 -14-2.20269 7.98852   2
   1  -1  14 1.33334 4.87941   1
  -1   1 -14 7.54244 5.44082   1
  -1   1 -15 21.0619 10.0183   2
   1  -1  15 18.7573 6.16238   1
   1   0 -16-3.63924 4.55027   2
   1   0 -16 3.22114 4.71741   2
  -1   0  16 2.38784 4.66976   1
   1   0 -15-8.51153 8.24796   2
   1   0 -15 18.8370 7.87335   2
  -1   0  15-0.94969 8.51292   1
   1   0 -15-4.96467 8.51431   1
   1   0 -14 1.86068 6.51407   2
   1   0 -14-0.34536 6.03654   2
   1   0 -14-5.74472 6.91992   1
  -1   0  14-2.90635 7.19530   1
  -1   0  13 18.3928 6.65543   1
   1   0 -13 25.0809 6.64042   1
   1   0 -13 37.0662 6.60835   2
  -1   0  12 31.5045 6.07047   1
   1   0 -12 35.0163 6.40547   1
   1   0 -12 40.9119 6.01267   2
   1   0 -11 325.965 11.7281   2
  -1   0  11 368.214 13.7553   1
   1   0 -11 341.093 13.5533   1
   1   0 -10 24.4671 4.08996   2
  -1   0  10 26.0686 4.75381   1
   1   0 -10 26.9068 4.97584   1
   1   0  -9 1.91649 3.27306   1
  -1   0   9 3.00788 2.99845   1
   1   0  -8 68.8439 5.64871   1
  -1   0   8 70.4761 5.42960   1
   1   0  -7 2.89068 2.73495   1
  -1   0   7 2.13748 2.22792   1
   1   0  -6 79.6938 5.13608   1
  -1   0   6 84.6452 5.29801   1
   1   0  -5 31.9880 3.36842   1
  -1   0   5 30.9879 3.39076   1
   1   0  -4 576.682 10.6973   1
  -1   0   4 520.639 10.2043   1
  -1   0   3 668.451 10.5273   1
   1   0  -3 651.107 10.5045   1
   1   0  -2 103.424 4.04756   1
  -1   0   2 100.578 4.00499   1
  -1   0   1 16.7536 2.09441   1
  -1   0   1 33.6033 2.28648   1
   1   0   0 1503.64 11.6995   1
  -1   0   0 1520.29 11.6716   1
  -1   0  -1 1.85529 1.04886   1
   1   0   1 3.16040 1.10194   1
   1   0   2 315.447 5.33840   1
  -1   0  -2 310.161 5.29053   1
  -1   0  -3 8.48212 1.48066   1
   1   0   3 8.16221 1.39835   1
   1   0   4 686.619 9.46535   1
  -1   0  -4 681.266 9.46596   1
   1   0   5 17.9850 2.23514   1
  -1   0  -5 15.4094 2.11344   1
   1   0   6 23.8304 2.74160   1
  -1   0  -6 23.5478 2.71245   1
   1   0   7 93.9736 4.94885   1
  -1   0  -7 94.2772 4.93559   1
  -1   0  -8 9.78969 2.81264   1
   1   0   8 8.50152 2.67875   1
  -1   0  -9 16.6296 3.54870   1
   1   0   9 16.9095 3.44088   1
   1   0  10 68.2295 5.67638   1
  -1   0 -10 69.4601 5.63162   1
  -1   0 -11 31.2922 5.03574   1
   1   0  11 32.4505 5.12817   1
   1   0  12 80.4705 7.17844   1
  -1   0 -12 80.3675 7.15163   1
   1   0  13 64.1431 7.26071   1
  -1   0 -13 65.5597 10.0266   2
  -1   0 -13 70.6607 7.44398   1
   1   0  14-2.45905 5.93593   1
  -1   0 -14 8.27347 6.20225   1
  -1   0 -14 2.07997 8.04875   2
   1   0  15 18.1748 7.98087   1
  -1   0 -15 26.5708 11.9319   2
  -1   0 -15 7.90189 7.24932   1
  -1  -1  16-5.23371 8.52799   1
   1   1 -16 34.7293 9.55631   2
  -1  -1  15-0.50696 6.90982   1
  -1  -1  15 9.31962 7.26490   1
   1   1 -15-13.4222 7.07388   2
  -1  -1  14 34.4088 7.01918   1
   1   1 -14 33.7700 7.05946   2
  -1  -1  13-0.09422 5.10646   1
   1   1 -13-0.25469 4.66341   2
  -1  -1  12 74.9088 7.39340   1
   1   1 -12 80.7104 7.14160   2
   1   1 -11 36.9473 5.00845   2
   1   1 -11 31.9917 5.26083   1
  -1  -1  11 40.9304 5.59616   1
   1   1 -10 47.6721 4.88675   2
   1   1 -10 46.8415 5.51085   1
  -1  -1  10 45.9146 5.21269   1
  -1  -1   9-0.47184 2.75764   1
   1   1  -9 0.59477 2.45991   2
   1   1  -9 0.60886 2.78869   1
  -1  -1   8 13.0310 3.09786   1
   1   1  -8 22.0497 3.04518   2
   1   1  -8 25.8525 3.66636   1
   1   1  -7 36.5518 3.14452   2
   1   1  -7 36.3471 3.80634   1
  -1  -1   7 34.7140 3.84627   1
   1   1  -6 116.096 5.85278   1
  -1  -1   6 144.244 6.11105   1
   1   1  -6 146.479 4.91623   2
   1   1  -5 644.815 8.69595   2
  -1  -1   5 622.721 11.5397   1
  -1  -1   4 3461.99 17.1207   2
  -1  -1   4 3400.86 24.9972   1
   1   1  -4 3472.57 17.1889   2
  -1  -1   4 3455.29 24.7802   1
   1   1  -3 3973.42 16.0481   2
  -1  -1   3 4010.29 15.8932   2
  -1  -1   3 3992.18 25.0160   1
  -1  -1   3 3894.68 24.7724   1
   1   1  -2 2.23864 0.93142   2
   1   1  -2 2.54384 1.37211   1
  -1  -1   2 0.61080 1.57021   1
  -1  -1   2-0.20697 0.87556   2
   1   1  -1 4.14246 1.18810   2
   1   1  -1 5.42627 1.76290   1
  -1  -1   1 2.95695 1.59788   1
  -1  -1   1 4.58375 1.22314   2
  -1  -1   0 49.4627 2.68831   2
   1   1   0 51.5898 2.95702   1
  -1  -1   0 50.6023 2.92192   1
  -1  -1  -1 262.953 6.06154   1
   1   1   1 255.666 5.93637   1
   1   1   2 387.954 7.66324   1
  -1  -1  -2 400.537 7.77431   1
   1   1   3 16.8715 2.30782   1
  -1  -1  -3 20.7101 2.45865   1
   1   1   4 516.047 10.1736   1
  -1  -1  -4 535.045 10.4217   1
   1   1   5 27.8863 3.14487   1
  -1  -1  -5 28.8309 3.23512   1
   1   1   6 123.457 6.05926   1
  -1  -1  -6 122.964 5.98951   1
   1   1   7 13.5760 3.19936   1
  -1  -1  -7 10.9154 3.08063   1
   1   1   8 124.782 6.99669   1
  -1  -1  -8 119.960 6.83542   1
   1   1   9 50.0266 5.28285   1
  -1  -1  -9 46.7851 5.26878   1
   1   1  10 60.4120 6.10831   1
  -1  -1 -10 51.1421 5.96438   1
   1   1  11 11.8430 4.75811   1
  -1  -1 -11 9.06327 4.65320   1
  -1  -1 -12-4.64967 5.03350   1
   1   1  12 4.12083 4.91416   1
  -1  -1 -13 29.3691 7.44649   1
   1   1  13 19.1992 6.89169   1
  -1  -1 -14-10.4696 7.21249   1
   1   1  14-3.58547 8.08260   1
   1   2 -16-12.1327 8.41573   2
  -1  -2  16 10.7267 8.03745   1
  -1  -2  16 11.5926 7.68689   1
   1   2 -15 15.1379 7.08473   2
  -1  -2  15 0.51459 6.48152   1
  -1  -2  15-0.83166 6.50962   1
  -1  -2  14 2.72139 5.28889   1
  -1  -2  14 8.49283 5.44575   1
   1   2 -14 6.46955 5.64193   2
  -1  -2  13 6.58550 5.01901   1
   1   2 -13-2.95229 4.89879   2
  -1  -2  13 5.47794 4.83071   1
  -1  -2  12-0.75101 3.91815   1
  -1  -2  12 6.96412 4.38534   1
   1   2 -12-1.00156 3.90427   2
   1   2 -11 2.36482 3.46278   2
  -1  -2  11-0.50165 3.41676   1
  -1  -2  11 4.76933 3.73230   1
  -1  -2  10 12.0940 3.61131   1
   1   2 -10 4.09575 3.01953   2
  -1  -2  10 7.55068 3.40663   1
   1   2  -9 2.08011 2.49932   2
  -1  -2   9 4.80487 2.80762   1
  -1  -2   9 1.46786 2.70630   1
   1   2  -8 1.14641 2.07372   2
  -1  -2   8 4.53182 2.64695   1
  -1  -2   8 1.04454 2.36492   1
  -1  -2   7 72.0765 4.82476   1
   1   2  -7 66.7831 4.08676   2
  -1  -2   7 64.1789 4.60306   1
   1   2  -6 134.379 5.07020   2
  -1  -2   6 136.118 5.08366   2
  -1  -2   6 143.599 6.03646   1
  -1  -2   6 136.617 5.91296   1
  -1  -2   5 72.3577 3.55120   2
  -1  -2   5 75.6344 4.30707   1
   1   2  -5 69.8349 3.49875   2
  -1  -2   5 71.6895 4.29395   1
  -1  -2   4 151.904 5.48993   1
   1   2  -4 148.110 4.58764   2
  -1  -2   4 150.318 4.58483   2
   1   2  -4 143.405 5.47435   1
  -1  -2   3 176.796 4.83818   2
  -1  -2   3 171.438 5.73270   1
   1   2  -3 181.282 5.84954   1
   1   2  -3 180.335 4.90139   2
  -1  -2   2 7.75683 1.86238   1
   1   2  -2 6.68495 1.62472   2
  -1  -2   2 5.03274 1.59499   2
   1   2  -2 5.72716 2.02776   1
   1   2  -1 330.818 7.68330   1
   1   2  -1 355.146 7.35318   2
  -1  -2   1 351.043 7.30422   2
  -1  -2   1 342.526 7.77935   1
  -1  -2   0 2.62713 1.57168   1
  -1  -2   0 3.72663 1.84916   2
   1   2   0 2.51377 1.92435   2
   1   2   0 0.41957 1.69447   1
  -1  -2  -1 1364.81 16.2220   1
   1   2   1 1358.77 16.0964   1
  -1  -2  -1 1337.82 16.3102   2
   1   2   2 2863.69 24.6860   1
  -1  -2  -2 2894.03 24.7591   1
  -1  -2  -2 2885.06 25.8557   2
  -1  -2  -3 762.716 14.4836   2
   1   2   3 738.696 13.3636   1
  -1  -2  -3 746.595 13.5153   1
   1   2   4 31.1932 3.45563   1
  -1  -2  -4 31.7407 3.54063   1
  -1  -2  -4 32.3271 4.13271   2
  -1  -2  -5 12.9124 3.64504   2
  -1  -2  -5 16.3923 3.33568   1
   1   2   5 7.85062 2.79577   1
  -1  -2  -6 2.59689 2.88506   1
   1   2   6 3.75062 3.02338   1
   1   2   7 16.2907 3.82792   1
  -1  -2  -7 19.0010 4.16157   1
  -1  -2  -8 15.4087 4.42360   1
  -1  -2  -8 15.7646 5.20001   2
   1   2   8 10.5455 4.00937   1
   1   2   9 55.8837 6.27723   1
  -1  -2  -9 61.2532 7.37422   2
  -1  -2  -9 47.6086 6.03165   1
  -1  -2 -10 3.87266 5.81506   2
  -1  -2 -10 1.18118 4.57345   1
   1   2  10 6.86828 4.75706   1
  -1  -2 -11 4.52985 7.18148   2
  -1  -2 -11 1.25353 5.50970   1
   1   2  11 4.08162 5.30920   1
  -1  -2 -12 8.28337 7.25859   2
  -1  -2 -12-3.02545 6.77126   1
   1   2  12 6.23971 6.29315   1
  -1  -2 -13-10.6433 7.55153   1
  -1  -2 -13-19.4172 10.8193   2
   1   2  13 2.21150 7.70776   1
  -1  -2 -14-1.44588 8.77337   1
   1   2  14-8.21959 9.09390   1
  -1  -3  16-2.79059 7.45402   1
   1   3 -16-4.01222 8.53499   2
  -1  -3  16 2.57956 7.36033   1
  -1  -3  15 4.39203 6.07731   1
   1   3 -15 12.0427 7.06991   2
  -1  -3  15 8.72764 6.62042   1
  -1  -3  14 0.34996 4.93386   1
  -1  -3  14-1.10001 5.28543   1
   1   3 -14 2.06688 5.42392   2
   1   3 -13 20.0650 5.43096   2
  -1  -3  13 14.0209 4.93850   1
  -1  -3  13 12.8240 4.77271   1
   1   3 -12 11.7372 4.59103   2
  -1  -3  12 11.6492 4.44910   1
  -1  -3  12 5.93999 3.91045   1
   1   3 -11 118.236 7.51398   2
  -1  -3  11 118.103 7.43438   1
  -1  -3  11 111.612 7.28242   1
  -1  -3  10-4.30797 3.07817   1
  -1  -3  10-3.10203 3.29071   1
   1   3 -10 0.73381 3.09766   2
  -1  -3   9 314.421 10.1831   1
   1   3  -9 303.297 9.87449   2
  -1  -3   9 326.034 10.3317   1
  -1  -3   8 16.3321 3.17610   1
   1   3  -8 21.5055 3.35032   2
  -1  -3   8 19.4912 3.35328   1
  -1  -3   7 5.70657 2.38082   2
   1   3  -7 8.71678 2.51304   2
  -1  -3   7 6.35957 2.47399   1
  -1  -3   7 8.61065 2.62292   1
  -1  -3   6 62.7477 4.32606   1
   1   3  -6 68.9805 4.32139   2
  -1  -3   6 58.5420 4.04379   2
   1   3  -6 63.8627 4.38644   1
  -1  -3   5 265.648 7.91737   1
  -1  -3   5 256.772 7.33266   2
   1   3  -5 265.196 7.49250   2
   1   3  -5 266.322 8.04503   1
  -1  -3   4 254.708 7.09464   2
   1   3  -4 235.885 6.94197   2
   1   3  -4 245.602 7.52472   1
  -1  -3   4 261.541 7.70090   1
  -1  -3   3 444.693 9.36531   2
   1   3  -3 472.084 10.1458   1
   1   3  -3 464.938 9.54067   2
  -1  -3   3 458.408 9.98565   1
   1   3  -2 552.008 11.0309   1
  -1  -3   2 542.873 10.5581   2
   1   3  -2 555.712 10.7259   2
  -1  -3   2 560.025 11.0798   1
  -1  -3   1 8.69759 2.46290   2
   1   3  -1 9.77553 2.23585   1
   1   3  -1 5.38015 2.40837   2
  -1  -3   1 8.87982 2.47341   1
  -1  -3   0 1173.51 16.7614   2
   1   3   0 1175.14 16.8862   2
   1   3   0 1184.02 16.8066   1
  -1  -3   0 1167.50 16.7757   1
  -1  -3  -1 235.462 8.09412   1
  -1  -3  -1 256.272 8.50337   2
   1   3   1 250.237 8.22902   1
   1   3   1 249.542 8.47494   2
  -1  -3  -2 7.43363 2.59075   1
   1   3   2 7.93516 2.87737   1
   1   3   3 15.0407 3.00140   1
  -1  -3  -3 12.7543 3.29132   2
  -1  -3  -3 15.6583 3.44553   1
  -1  -3  -4 25.4124 4.40661   2
  -1  -3  -4 22.8081 3.91584   1
   1   3   4 23.9764 4.05233   1
  -1  -3  -5 68.0296 5.96042   1
   1   3   5 74.4151 6.08139   1
  -1  -3  -5 70.1918 6.25283   2
  -1  -3  -6 458.284 13.9664   1
  -1  -3  -6 464.830 14.8932   2
   1   3   6 458.875 14.0679   1
   1   3   7 2.80231 3.97946   1
  -1  -3  -7 14.9980 4.56554   1
  -1  -3  -7 13.4316 5.09135   2
  -1  -3  -8 476.902 17.0743   2
   1   3   8 476.172 15.8080   1
  -1  -3  -8 488.701 16.0625   1
  -1  -3  -9 40.3273 7.07015   2
   1   3   9 26.6419 6.26582   1
  -1  -3  -9 25.9444 5.97201   1
  -1  -3 -10 45.3855 8.93917   2
   1   3  10 33.3059 7.32106   1
  -1  -3 -10 31.9480 7.19955   1
  -1  -3 -11 6.50821 6.54677   1
  -1  -3 -11-4.32553 8.37585   2
   1   3  11 1.96794 6.98194   1
  -1  -3 -12 9.06682 7.58475   1
  -1  -3 -12 0.96268 9.36066   2
   1   3  12-2.69471 7.29385   1
  -1  -3 -13 10.8200 10.5430   2
  -1  -3 -13 30.4422 10.3620   1
   1   3  13 30.4202 10.6509   1
   1   4 -16 9.28953 8.09675   2
  -1  -4  16 1.75128 7.10975   1
  -1  -4  16 10.9322 6.68344   1
  -1  -4  15 1.23006 5.86380   1
   1   4 -15 12.8350 7.28369   2
  -1  -4  15-2.91897 5.92888   1
  -1  -4  14 16.4123 5.60203   1
  -1  -4  14 9.94370 5.32550   1
   1   4 -14 21.9415 6.75873   2
   1   4 -13 8.31824 5.13348   2
  -1  -4  13 8.27707 4.51076   1
  -1  -4  13 14.1956 4.80140   1
  -1  -4  12 7.82798 4.03981   1
  -1  -4  12 9.80135 4.22525   1
   1   4 -12 8.05482 4.73238   2
  -1  -4  11 91.6088 6.63046   1
  -1  -4  11 89.7358 6.58966   1
   1   4 -11 81.7579 6.82228   2
  -1  -4  10 37.9789 4.63908   1
  -1  -4  10 43.9592 4.90012   1
   1   4 -10 41.9725 5.08774   2
  -1  -4   9 88.0676 5.94036   1
  -1  -4   9 86.6224 5.96007   1
  -1  -4   9 91.8507 6.30989   2
   1   4  -9 100.996 6.55440   2
   1   4  -8 90.0699 5.97680   2
  -1  -4   8 92.4083 5.82846   1
  -1  -4   8 94.6038 6.04240   2
  -1  -4   8 86.7523 5.63062   1
   1   4  -7 173.095 7.29062   1
   1   4  -7 159.301 7.21909   2
  -1  -4   7 161.978 7.26096   2
  -1  -4   7 156.652 7.01261   1
   1   4  -6 45.3865 4.19856   2
   1   4  -6 38.8875 3.95408   1
  -1  -4   6 49.6024 4.28804   2
  -1  -4   6 43.6837 4.09258   1
   1   4  -5 30.1058 3.50776   1
  -1  -4   5 37.0382 3.79171   2
  -1  -4   5 38.6367 3.73343   1
   1   4  -5 32.1481 3.56155   2
   1   4  -4 8.70516 2.70574   2
  -1  -4   4 5.13668 2.59696   2
   1   4  -4 5.00439 2.54246   1
  -1  -4   4 5.65740 2.39073   1
  -1  -4   3 43.7700 3.98554   1
  -1  -4   3 47.7691 4.20425   2
   1   4  -3 38.2279 3.95857   2
   1   4  -3 40.7038 4.01013   1
  -1  -4   2 772.722 14.7121   1
   1   4  -2 769.403 14.6917   2
   1   4  -2 778.512 14.7518   1
  -1  -4   2 801.672 14.8877   2
   1   4  -1 9.33724 2.78486   1
   1   4  -1 7.95868 2.96581   2
  -1  -4   1 8.91818 2.82833   2
  -1  -4   1 11.4526 2.62887   1
   1   4   0 52.9291 4.80664   2
  -1  -4   0 51.0919 4.46797   2
   1   4   0 55.7280 4.60572   1
  -1  -4   0 48.9509 4.65718   1
  -1  -4  -1 17.3270 3.91398   2
  -1  -4  -1 18.8286 3.79045   1
   1   4   1 21.4962 4.03211   2
   1   4   1 25.7240 4.04706   1
  -1  -4  -2-1.29728 2.93842   2
   1   4   2 2.83501 2.69645   1
  -1  -4  -2 4.01401 3.30182   1
  -1  -4  -3 14.4054 3.34644   1
   1   4   3 8.16053 3.36028   1
  -1  -4  -3 13.5213 3.49644   2
  -1  -4  -4-4.74915 4.14860   2
   1   4   4-0.41624 3.14053   1
   1   4   5 205.858 10.1921   1
  -1  -4  -5 199.882 10.4194   2
  -1  -4  -5 206.095 10.2634   1
   1   4   6 33.8920 5.27248   1
  -1  -4  -6 30.9846 5.89479   2
  -1  -4  -6 38.3848 5.48132   1
  -1  -4  -7 7.02990 4.62987   2
   1   4   7 4.36999 4.80672   1
  -1  -4  -7 14.2440 5.65633   1
   1   4   8 0.42206 4.93477   1
  -1  -4  -8 1.99720 5.53664   2
  -1  -4  -8 1.85546 4.90684   1
   1   4   9 2.40443 6.26104   1
  -1  -4  -9 14.4526 6.25658   1
  -1  -4  -9 3.18545 5.93940   2
   1   4  10-6.45549 6.99916   1
  -1  -4 -10-19.1142 9.13072   2
  -1  -4 -10 7.03063 6.91885   1
  -1  -4 -11 4.19870 8.49913   1
  -1  -4 -11-8.33478 8.37661   2
   1   4  11 10.2717 8.00329   1
  -1  -4 -12 14.0962 10.6144   2
  -1  -4 -12-3.75017 10.1045   1
   1   4  12 2.24219 10.1250   1
  -1  -5  16 0.34720 6.78843   1
  -1  -5  16 4.02791 6.97219   1
   1   5 -16 13.2801 8.50917   2
  -1  -5  15-3.74666 5.41904   1
   1   5 -15 17.2007 7.60696   2
  -1  -5  15 9.65320 6.03742   1
   1   5 -14 15.1262 6.73972   2
  -1  -5  14 19.8262 5.85485   1
  -1  -5  14 7.95205 4.84134   1
  -1  -5  13 99.9722 7.52054   1
   1   5 -13 92.1672 8.51905   2
  -1  -5  13 91.8978 7.31801   1
  -1  -5  12 26.2376 4.92892   1
   1   5 -12 32.2239 6.02296   2
  -1  -5  12 25.5392 5.00378   1
  -1  -5  11 88.0583 6.59241   1
   1   5 -11 88.5111 7.53371   2
  -1  -5  11 90.2200 6.77312   1
  -1  -5  10 119.490 7.90672   2
  -1  -5  10 112.093 6.98785   1
  -1  -5  10 126.066 7.40785   1
   1   5 -10 114.717 7.81798   2
   1   5  -9-3.64389 3.49182   2
  -1  -5   9-3.27581 3.41128   2
  -1  -5   9 2.62241 2.87555   1
  -1  -5   9 0.73188 3.00305   1
   1   5  -8 77.5479 6.16909   2
  -1  -5   8 81.5022 6.22446   2
  -1  -5   8 71.1939 5.58586   1
   1   5  -8 78.8472 5.77270   1
   1   5  -7 21.9021 4.10865   2
  -1  -5   7 25.4537 3.93922   2
  -1  -5   7 24.9371 3.80019   1
   1   5  -7 21.9486 3.60843   1
   1   5  -6 101.276 6.42201   2
  -1  -5   6 99.9228 6.05103   1
   1   5  -6 100.033 6.16151   1
  -1  -5   6 90.2589 6.17828   2
   1   5  -5 86.6052 5.71946   1
   1   5  -5 89.7007 6.20403   2
  -1  -5   5 90.2047 6.00392   2
  -1  -5   5 90.8409 5.82629   1
   1   5  -4-1.47822 2.17690   1
  -1  -5   4-1.02687 2.59730   2
  -1  -5   4 3.36738 2.61580   1
   1   5  -4 2.47617 2.64600   2
   1   5  -3 339.377 11.0644   2
  -1  -5   3 357.655 11.2013   2
  -1  -5   3 338.094 10.7071   1
   1   5  -3 344.617 10.8787   1
   1   5  -2 26.1950 4.13352   1
  -1  -5   2 17.8976 3.79462   1
   1   5  -2 27.6597 4.00433   2
  -1  -5   2 22.8940 4.07310   2
  -1  -5   1 5.90610 3.23222   1
  -1  -5   1 6.04593 3.62321   2
   1   5  -1 5.91446 3.41337   2
   1   5  -1 10.6949 2.96066   1
  -1  -5   0 6.49325 3.06923   2
   1   5   0 3.71256 3.66882   2
   1   5   0 2.04444 3.34083   1
  -1  -5   0 0.34453 2.61343   1
  -1  -5  -1 125.281 7.94300   2
   1   5   1 127.038 7.62383   1
   1   5   1 122.842 7.99073   2
  -1  -5  -1 117.334 7.37770   1
  -1  -5  -2 432.120 14.0574   1
   1   5   2 422.445 13.7067   1
   1   5   2 422.183 14.1627   2
  -1  -5  -2 410.984 13.9481   2
  -1  -5  -3 78.0724 7.21386   1
  -1  -5  -3 84.4882 7.62560   2
   1   5   3 91.8920 7.39515   1
   1   5   4 167.429 9.95543   1
  -1  -5  -4 189.461 10.8980   2
  -1  -5  -4 166.437 9.82715   1
  -1  -5  -5 44.8195 6.82576   1
  -1  -5  -5 39.8712 6.89722   2
   1   5   5 46.8854 6.67055   1
  -1  -5  -6 0.94062 5.65570   2
   1   5   6 16.1045 6.00025   1
  -1  -5  -6 6.84477 5.13767   1
  -1  -5  -7 2.10183 6.03288   2
  -1  -5  -7 1.76611 5.21480   1
   1   5   7 10.0104 6.07406   1
  -1  -5  -8 2.67167 7.61716   2
   1   5   8 5.00176 7.09056   1
  -1  -5  -8-4.83645 6.30656   1
  -1  -5  -9 43.4496 9.70253   2
   1   5   9 28.3189 7.59850   1
  -1  -5  -9 42.0743 8.44100   1
  -1  -5 -10 1.22987 9.56790   2
  -1  -5 -10-7.91203 7.84257   1
   1   5  10-2.36915 8.96413   1
   1   5  11 65.8448 12.9310   1
  -1  -5 -11 52.2518 12.0894   1
  -1  -6  16 10.8135 7.02950   1
  -1  -6  16 10.9967 6.93635   1
   1   6 -16 16.9498 10.0295   2
  -1  -6  15 21.9966 6.36648   1
  -1  -6  15 20.1656 6.26574   1
  -1  -6  14 0.86610 5.26624   1
   1   6 -14 12.5133 7.02144   2
  -1  -6  14-1.71119 5.57020   1
   1   6 -13 8.01210 6.33738   2
  -1  -6  13 5.01782 4.81970   1
  -1  -6  13 6.61532 4.75525   1
  -1  -6  12 26.3507 5.02383   1
  -1  -6  12 33.8361 5.37410   1
   1   6 -12 21.7332 5.85553   2
   1   6 -11 73.8832 7.59349   2
  -1  -6  11 81.2998 7.97512   2
  -1  -6  11 82.5484 6.90436   1
  -1  -6  11 79.1778 6.56470   1
   1   6 -10 46.9780 6.53036   2
  -1  -6  10 56.5148 5.74415   1
  -1  -6  10 55.6467 6.57706   2
  -1  -6  10 50.8532 5.51175   1
  -1  -6   9 21.4881 4.29234   1
   1   6  -9 24.4421 5.10436   2
  -1  -6   9 20.6634 4.87179   2
   1   6  -9 21.9025 4.26938   1
   1   6  -8 1.93460 3.22111   1
   1   6  -8-0.79554 3.78921   2
  -1  -6   8 4.34259 3.91864   2
  -1  -6   8 2.36988 3.13356   1
  -1  -6   7 91.7296 7.04257   2
   1   6  -7 86.4378 6.32690   1
  -1  -6   7 87.5997 6.30035   1
   1   6  -7 89.8790 7.19195   2
  -1  -6   6-1.33731 3.12894   2
   1   6  -6-1.92117 3.11677   2
  -1  -6   6 2.69472 3.00812   1
   1   6  -6 4.79724 3.18712   1
   1   6  -5 212.107 9.32124   1
  -1  -6   5 195.691 9.33540   2
   1   6  -5 212.002 9.71857   2
  -1  -6   5 215.139 9.31717   1
   1   6  -4 159.183 8.29118   1
   1   6  -4 152.395 8.62007   2
  -1  -6   4 166.291 8.43322   1
  -1  -6   4 164.844 8.82381   2
   1   6  -3 1.80183 3.16241   1
  -1  -6   3 3.79547 3.44485   1
  -1  -6   3-0.87981 3.32674   2
   1   6  -3-1.88124 3.48094   2
   1   6  -2 1.27498 2.85849   1
   1   6  -2 3.74137 3.80817   2
  -1  -6   2 0.74970 3.08198   1
  -1  -6   2 0.39338 3.08475   2
  -1  -6   1 4.65727 3.67708   1
  -1  -6   1 10.3145 4.32527   2
   1   6  -1 11.5002 4.09527   2
   1   6  -1 9.96146 4.04143   1
   1   6   0 17.4020 4.89393   2
   1   6   0 15.9166 3.88388   1
  -1  -6   0 16.4847 4.56710   2
  -1  -6   0 14.8159 4.67698   1
   1   6   1 146.551 8.86310   1
  -1  -6  -1 148.581 9.17167   1
  -1  -6  -1 144.811 9.34005   2
   1   6   1 145.134 9.42550   2
  -1  -6  -2 61.1328 6.68531   1
   1   6   2 47.7498 6.51695   1
   1   6   2 59.5631 7.26177   2
  -1  -6  -2 56.0515 6.56821   2
   1   6   3 1.55766 4.44709   1
  -1  -6  -3-1.57759 4.96991   2
  -1  -6  -3 8.33681 4.88393   1
   1   6   4 22.6119 6.39242   1
  -1  -6  -4 10.1724 5.87770   2
  -1  -6  -4 23.3296 5.86578   1
   1   6   5 30.9557 7.37549   1
  -1  -6  -5 23.1416 6.51371   1
  -1  -6  -5 24.6980 7.28733   2
  -1  -6  -6-12.3528 7.68306   2
  -1  -6  -6-5.11521 5.66586   1
   1   6   6 6.33092 5.75551   1
   1   6   7 5.93164 6.61840   1
  -1  -6  -7 0.39891 6.89496   1
  -1  -6  -7-5.28264 7.10935   2
   1   6   8 63.9030 9.93908   1
  -1  -6  -8 34.3633 10.2056   2
  -1  -6  -8 53.9053 10.5998   1
   1   6   9 11.8304 10.0173   1
  -1  -6  -9-10.1392 10.7119   2
  -1  -6 -10 7.33863 10.6191   1
  -1  -6 -10-18.3260 11.9312   2
   1   6  10 1.15236 11.3159   1
  -1  -7  16-6.86153 5.53808   1
  -1  -7  16-2.69090 5.40154   1
  -1  -7  15 31.7201 7.10254   1
  -1  -7  15 36.8261 6.85903   1
   1   7 -15 50.2660 9.96071   2
   1   7 -14 24.0090 8.62161   2
  -1  -7  14 34.2764 6.68127   1
  -1  -7  14 16.8568 6.11276   1
  -1  -7  13 35.9860 6.00303   1
   1   7 -13 36.4510 7.93799   2
  -1  -7  13 48.2430 6.17137   1
  -1  -7  12 3.01357 4.95239   1
   1   7 -12 10.2320 6.77876   2
  -1  -7  12 5.94376 6.27498   2
  -1  -7  12 4.69220 4.43120   1
  -1  -7  11 2.98948 4.32631   1
   1   7 -11-5.35697 6.02010   2
  -1  -7  11-1.85940 5.07695   2
  -1  -7  11 1.70272 4.49655   1
  -1  -7  10-4.64301 4.05563   1
  -1  -7  10 2.02275 4.79751   2
   1   7 -10 2.45555 4.82856   2
   1   7 -10 1.92191 4.10941   1
   1   7  -9 8.47208 4.74024   2
   1   7  -9 10.6583 4.48496   1
  -1  -7   9 11.4760 4.20904   1
  -1  -7   9 6.64623 4.71312   2
  -1  -7   8 14.7412 4.43865   1
  -1  -7   8 15.9255 5.52171   2
   1   7  -8 26.1531 5.69261   2
   1   7  -8 19.3104 4.63379   1
   1   7  -7 36.4058 5.72773   2
   1   7  -7 38.8995 5.28601   1
  -1  -7   7 34.5581 5.91557   2
  -1  -7   7 34.6964 5.10512   1
  -1  -7   6 9.35749 4.06478   2
   1   7  -6 8.77546 4.44839   2
   1   7  -6 2.45630 3.38388   1
  -1  -7   6 10.4920 3.87625   1
  -1  -7   5 83.2502 7.25535   2
  -1  -7   5 93.1170 7.33434   1
   1   7  -5 80.3314 6.88327   1
   1   7  -5 86.3659 7.93243   2
  -1  -7   4 73.0361 7.56563   2
  -1  -7   4 80.7847 6.82746   1
   1   7  -4 79.1993 7.41032   2
   1   7  -4 73.6188 6.73529   1
  -1  -7   3 40.8702 5.76748   2
  -1  -7   3 40.2884 5.87384   1
   1   7  -3 52.5558 6.33082   2
   1   7  -3 51.3824 6.10665   1
   1   7  -2 13.5840 4.57856   1
  -1  -7   2 8.35308 4.73358   2
   1   7  -2 6.09728 4.85167   2
  -1  -7   2 14.8995 5.11309   1
  -1  -7   1 11.0385 4.86924   2
   1   7  -1 13.2988 5.54734   2
   1   7  -1 6.92950 4.30699   1
  -1  -7   1 8.51569 4.12656   1
   1   7   0 53.6071 7.34262   2
  -1  -7   0 56.9954 7.02425   1
  -1  -7   0 57.3956 6.73203   2
   1   7   0 49.8829 6.35868   1
  -1  -7  -1 53.5213 7.58209   1
   1   7   1 47.8091 7.30039   1
  -1  -7  -1 52.1772 7.64121   2
   1   7   1 56.2532 7.94933   2
  -1  -7  -2 202.067 12.1554   2
   1   7   2 204.936 12.1423   2
  -1  -7  -2 200.276 12.1761   1
   1   7   2 186.530 11.9320   1
  -1  -7  -3 40.1668 8.20159   2
   1   7   3 28.6398 6.22419   1
  -1  -7  -3 24.3092 6.60739   1
  -1  -7  -4 0.76017 6.93149   2
   1   7   4-4.14563 6.05161   1
  -1  -7  -4-0.63649 6.77459   1
  -1  -7  -5 10.5441 7.63833   2
   1   7   5 0.94068 6.55776   1
  -1  -7  -5 6.83822 6.37859   1
   1   7   6 12.3447 7.89534   1
  -1  -7  -6 10.9033 7.62194   2
  -1  -7  -6 15.3060 8.15426   1
  -1  -7  -7 99.0359 13.4932   2
   1   7   7 116.047 13.6034   1
  -1  -7  -7 111.683 12.6414   1
  -1  -7  -8-5.05384 10.5201   2
   1   7   8 2.21283 9.42057   1
  -1  -7  -8-9.14982 10.5273   1
  -1  -7  -9 28.7490 9.05430   2
  -1  -7  -9 38.2815 8.98895   1
   1   7   9 27.7402 8.64680   1
  -1  -8  15 8.47835 6.96069   1
   1   8 -15-15.9394 10.1213   2
  -1  -8  15-13.1564 7.11296   1
  -1  -8  14-8.30272 6.12581   1
   1   8 -14 10.6383 9.11718   2
  -1  -8  14 1.90800 5.86636   1
  -1  -8  13 69.5344 10.1244   2
  -1  -8  13 78.8647 8.44995   1
  -1  -8  13 55.1335 7.63231   1
   1   8 -13 78.3247 11.1308   2
   1   8 -12-3.28377 7.73045   2
  -1  -8  12 3.00090 5.30918   1
  -1  -8  12 15.3381 5.77415   1
   1   8 -11 8.02562 7.06647   2
  -1  -8  11 7.13680 5.09803   1
  -1  -8  11-2.87087 6.04437   2
   1   8 -10 16.0751 6.46484   2
  -1  -8  10-3.75784 5.03314   1
  -1  -8  10 3.77843 6.28731   2
   1   8 -10 7.39441 4.95630   1
   1   8  -9 7.81050 4.91767   1
   1   8  -9-2.95991 6.20990   2
  -1  -8   9-4.67142 5.66878   2
  -1  -8   8 31.5508 6.76051   2
  -1  -8   8 27.0049 5.68264   1
   1   8  -8 25.0689 5.57629   1
   1   8  -8 36.2993 7.28940   2
  -1  -8   7 63.7518 7.20123   1
   1   8  -7 60.3063 7.02778   1
  -1  -8   7 57.1156 7.78397   2
   1   8  -7 59.5335 7.37038   2
   1   8  -6 145.559 9.59196   1
  -1  -8   6 165.509 9.92469   1
   1   8  -6 161.101 10.9383   2
  -1  -8   6 167.098 11.0447   2
  -1  -8   5-2.97276 4.39406   1
   1   8  -5-2.25239 5.70894   2
   1   8  -5 6.75875 4.41148   1
  -1  -8   5-0.10522 4.99129   2
  -1  -8   4 35.9137 5.89021   1
   1   8  -4 22.2766 6.24588   2
   1   8  -4 23.3045 5.71481   1
  -1  -8   4 20.6060 6.49958   2
  -1  -8   3 70.0049 8.14522   2
  -1  -8   3 63.8574 7.13066   1
   1   8  -3 58.1580 7.36010   2
   1   8  -3 66.6011 7.26489   1
  -1  -8   2 118.574 10.2264   2
  -1  -8   2 118.454 9.67697   1
   1   8  -2 118.774 10.1221   2
   1   8  -2 111.703 9.49455   1
   1   8  -1-2.88568 6.10762   2
  -1  -8   1 5.96452 5.35802   2
  -1  -8   1 10.8189 6.41360   1
   1   8  -1 3.76200 5.05434   1
  -1  -8   0 2.87878 6.60337   2
   1   8   0-3.95529 5.61789   2
  -1  -8   0 12.8383 6.51638   1
   1   8   0-5.95254 6.58919   1
  -1  -8  -1 7.01083 5.49362   1
   1   8   1 11.2648 7.48707   2
  -1  -8  -1 16.8278 7.30116   2
   1   8   1 11.4474 7.04196   1
  -1  -8  -2-13.7547 7.90118   2
   1   8   2 7.24199 6.48473   2
  -1  -8  -2-11.8448 7.58655   1
   1   8   2 10.4932 6.96274   1
  -1  -8  -3 1.45584 7.43028   2
  -1  -8  -3 9.14988 8.26982   1
   1   8   3 6.01406 7.89279   1
  -1  -8  -4 5.99901 7.38048   1
   1   8   4-0.50846 8.48894   1
  -1  -8  -5-19.8544 10.0523   2
  -1  -8  -5-2.16752 8.79381   1
   1   8   5 4.16860 8.75864   1
   1   8   6 31.1500 11.3902   1
  -1  -8  -6 29.9643 11.8730   1
  -1  -8  -7 10.4246 13.0966   2
   1   8   7-0.61213 12.1138   1
  -1  -8  -7-6.64233 11.2834   1
  -1  -9  14 3.93215 7.12349   1
   1   9 -14-3.83787 10.6804   2
  -1  -9  14-15.8004 10.5845   2
  -1  -9  14-12.0564 7.13407   1
  -1  -9  13 11.6954 6.37621   1
   1   9 -13 4.76381 8.99044   2
  -1  -9  13-5.78935 9.82655   2
  -1  -9  13 12.7114 7.41366   1
  -1  -9  12 5.33197 6.31171   1
   1   9 -12 24.5909 9.56096   2
  -1  -9  12 8.15832 9.22838   2
  -1  -9  11 0.76742 6.10770   1
   1   9 -11 6.64368 5.87766   1
   1   9 -11-1.95966 8.01134   2
  -1  -9  11-8.31501 7.80743   2
  -1  -9  10 9.02532 5.55626   1
   1   9 -10 8.33139 6.70004   2
  -1  -9  10 3.46877 6.72678   2
   1   9 -10 6.20743 5.99442   1
  -1  -9   9 116.484 10.9467   2
  -1  -9   9 107.984 9.24962   1
   1   9  -9 121.073 11.8256   2
   1   9  -9 123.150 10.0213   1
  -1  -9   8 22.8705 6.39562   1
  -1  -9   8 19.2989 6.61725   2
   1   9  -8 21.7532 6.70467   1
   1   9  -8 16.9807 7.81276   2
   1   9  -7 38.7579 7.21851   1
   1   9  -7 52.7479 9.17050   2
  -1  -9   7 39.1660 6.78250   1
  -1  -9   7 40.8872 7.71479   2
   1   9  -6 52.7606 7.96195   1
  -1  -9   6 46.4565 7.33716   1
   1   9  -6 39.7635 7.45696   2
  -1  -9   6 32.0476 7.80425   2
  -1  -9   5 51.2827 7.84219   1
  -1  -9   5 57.4201 8.39316   2
   1   9  -5 65.0616 8.46141   1
   1   9  -5 39.5970 8.42986   2
  -1  -9   4 81.6751 10.0919   2
  -1  -9   4 77.1105 8.78169   1
   1   9  -4 76.9950 9.54784   2
   1   9  -4 72.9390 8.79861   1
   1   9  -3-4.30030 5.89409   2
   1   9  -3 6.13574 6.29661   1
  -1  -9   3-1.41363 6.84552   2
  -1  -9   3-5.36642 5.62152   1
   1   9  -2 6.50129 6.66884   1
  -1  -9   2 3.08745 6.35876   2
   1   9  -2-4.33201 6.05599   2
  -1  -9   2-12.0900 7.28078   1
   1   9  -1 4.98341 7.02901   1
  -1  -9   1 5.49645 6.56110   2
   1   9  -1 20.7632 7.26565   2
  -1  -9   1 9.77210 7.78763   1
   1   9   0 15.5054 7.51420   2
  -1  -9   0 18.1766 7.47193   2
  -1  -9   0 15.1537 8.44466   1
   1   9   0 21.3691 8.53173   1
   1   9   1 16.0059 8.20527   2
  -1  -9  -1-4.65786 8.07241   1
   1   9   1 4.88753 8.64161   1
  -1  -9  -2 3.36352 8.84802   1
   1   9   2 6.56640 6.85293   1
  -1  -9  -2-11.1173 9.53605   2
  -1  -9  -3-2.31775 10.0464   1
  -1  -9  -3 13.8042 10.9223   2
   1   9   3-1.73349 8.27807   1
  -1  -9  -4-13.4307 10.9200   1
  -1  -9  -4-1.59170 9.54807   2
   1   9   4-11.0859 9.23499   1
   1   9   5 81.9783 14.8302   1
  -1  -9  -5 79.7133 14.8615   1
  -1 -10  13 10.6107 9.95885   2
  -1 -10  13-1.17460 6.89870   1
  -1 -10  13 0.47190 6.90381   1
   1  10 -13 1.21328 8.97764   2
   1  10 -12 7.69008 11.0948   2
  -1 -10  12 3.48039 7.42528   1
  -1 -10  12 1.39225 9.79102   2
   1  10 -12-0.84995 7.61276   1
   1  10 -11-9.55320 10.8648   2
  -1 -10  11 12.3371 7.48240   1
  -1 -10  11-4.90046 10.3018   2
   1  10 -11 3.63711 7.70007   1
  -1 -10  10 58.5657 9.29279   1
   1  10 -10 51.5928 11.2782   2
  -1 -10  10 32.9816 10.6814   2
   1  10 -10 36.5393 8.63671   1
  -1 -10   9 8.72896 7.08901   1
   1  10  -9 22.8329 7.94860   1
  -1 -10   9 22.4094 8.38509   2
   1  10  -9 9.55988 8.60570   2
   1  10  -8 7.65681 7.87791   2
   1  10  -8 12.2012 6.78179   1
  -1 -10   8-3.00954 9.48351   2
  -1 -10   8 6.11616 6.64406   1
   1  10  -7 16.1305 8.55291   2
  -1 -10   7 2.94631 7.35102   2
   1  10  -7-1.15731 7.32322   1
  -1 -10   7-7.72987 7.35440   1
  -1 -10   6 13.4904 7.61976   2
   1  10  -6 7.19954 6.51003   1
  -1 -10   6 19.8212 7.47186   1
   1  10  -5 40.2300 9.26097   2
   1  10  -5 34.6996 8.33771   1
  -1 -10   5 35.1214 8.39988   2
  -1 -10   5 17.7997 7.76387   1
  -1 -10   4 47.6278 8.57664   1
   1  10  -4 39.6138 10.2682   2
  -1 -10   4 51.4784 10.4060   2
   1  10  -4 48.0015 8.52665   1
   1  10  -3 37.4665 9.14660   1
  -1 -10   3 33.4808 8.92597   2
  -1 -10   3 56.1964 10.0579   1
   1  10  -3 52.2175 9.58626   2
  -1 -10   2 70.6933 11.4597   2
   1  10  -2 54.0235 10.9719   2
   1  10  -2 66.8788 9.94761   1
  -1 -10   2 61.1137 10.0035   1
  -1 -10   1 1.49040 8.11890   2
   1  10  -1 15.0717 9.74954   1
  -1 -10   1 27.5796 10.4113   1
   1  10  -1-4.94554 9.94539   2
  -1 -10   0 1.78941 10.1472   2
   1  10   0-14.0344 10.5304   1
   1  10   0 13.2895 9.92421   2
  -1 -10   0-8.56101 7.67108   1
   1  10   1-5.14188 8.97056   2
  -1 -10  -1 0.67512 10.6768   2
  -1 -10  -1 5.67062 10.6559   1
   1  10   1 22.4415 10.6940   1
  -1 -10  -2 0.17415 11.8111   1
  -1 -10  -2-9.03382 12.7724   2
   1  10   2 30.7252 12.3412   1
  -1 -10  -3 47.5340 14.1416   1
   1  10   3 42.9566 14.3213   1
   1  11 -11 7.31486 5.52286   1
  -1 -11  11 15.4818 6.89275   2
   1  11 -11 7.60076 6.01159   2
  -1 -11  11-3.70833 5.11244   1
  -1 -11  10-7.57049 10.0576   2
   1  11 -10 18.8911 12.6306   2
   1  11 -10 6.00756 9.27414   1
  -1 -11  10-1.15267 9.00095   1
   1  11  -9 13.4664 8.74492   1
   1  11  -9-12.4129 12.9782   2
  -1 -11   9 14.7938 11.3447   2
  -1 -11   9 20.5715 9.86530   1
   1  11  -8 14.2485 8.53439   1
  -1 -11   8-12.5890 11.7289   2
   1  11  -8 3.61582 9.79046   2
  -1 -11   8-6.44577 9.43227   1
  -1 -11   7 35.4605 11.2362   2
   1  11  -7 34.1471 11.9906   2
   1  11  -7 25.6410 9.56712   1
  -1 -11   7 30.5159 9.34631   1
  -1 -11   6 2.97648 9.01986   2
   1  11  -6-2.08719 9.42272   1
  -1 -11   6-5.93552 8.56069   1
   1  11  -6-14.2432 11.2323   2
   1  11  -5 26.2084 10.0896   1
  -1 -11   5 38.8752 11.9792   2
  -1 -11   5 59.1548 11.4221   1
   1  11  -5 38.2767 11.9996   2
   1  11  -4 2.87821 10.3995   2
   1  11  -4-0.07687 9.28946   1
  -1 -11   4-4.34277 10.8002   2
  -1 -11   4-13.8546 10.1581   1
   1  11  -3 2.94514 10.1666   1
  -1 -11   3 16.6198 11.3349   2
   1  11  -3 0.86169 9.70993   2
  -1 -11   3 16.1608 10.5451   1
   1  11  -2 6.69127 12.9332   2
  -1 -11   2 26.1690 12.5517   2
   1  11  -2 26.9311 11.2692   1
  -1 -11   2 22.4623 9.97740   1
   1  11  -1 1.45213 10.6023   2
  -1 -11   1-11.6388 10.1398   2
  -1 -11   1 0.87654 11.1038   1
   1  11  -1 3.36308 12.0430   1
  -1 -11   0 21.8992 12.2172   1
   1  11   0 22.1585 11.6283   1
  -2  11   0 3.62975 12.6627   2
   2 -11   0 1.36823 10.9522   1
  -2  11   0-24.1129 11.0341   1
   2 -11   0 4.28906 10.5593   2
  -2  11  -1-3.20996 11.4075   2
   2 -11   1-6.78203 9.60423   1
  -2  11  -1 22.2884 10.2047   1
   2 -11   1-15.6223 11.6905   2
  -2  11  -2-18.4481 10.1716   1
  -2  11  -2-5.83346 11.5545   2
   2 -11   2-14.6128 9.96849   1
   2 -11   2 15.3577 10.3954   2
  -2  11  -3 15.7836 11.4979   2
   2 -11   3-4.18365 9.18281   1
   2 -11   3 9.29486 11.5650   2
  -2  11  -3 4.61351 8.84506   1
   2 -11   4-1.93492 8.58908   1
  -2  11  -4 9.95193 11.8342   2
   2 -11   4-3.90527 11.1583   2
  -2  11  -4-2.54675 7.85243   1
   2 -11   5 15.8484 7.53966   1
  -2  11  -5 32.4125 11.5997   2
   2 -11   5 10.0026 11.9356   2
  -2  11  -5 14.6667 7.78968   1
   2 -11   6 5.81530 7.08187   1
  -2  11  -6 6.30090 9.86396   2
   2 -11   6-15.3812 13.0099   2
  -2  11  -6 2.78018 7.41199   1
  -2  11  -7-6.25370 10.8619   2
   2 -11   7-5.32168 7.13818   1
  -2  11  -7-1.84479 7.41687   1
   2 -11   7 7.06656 11.8443   2
   2 -11   8 58.8719 13.0443   2
   2 -11   8 38.3263 6.90343   1
  -2  11  -8 37.2451 7.30103   1
  -2  11  -8 19.5286 13.8362   2
   2 -11   9 31.3754 5.26042   1
  -2  10   3 39.7398 11.5289   1
   2 -10  -3 83.4287 12.9767   2
   2 -10  -3 45.0790 11.5605   1
  -2  10   3 67.4293 12.3121   2
  -2  10   2 42.0334 11.7355   1
   2 -10  -2 49.9579 11.6641   1
  -2  10   2 27.8645 9.84527   2
   2 -10  -2 35.4486 9.82429   2
   2 -10  -1-8.39780 9.64628   1
  -2  10   1-0.29655 9.47275   2
   2 -10  -1-10.8063 9.25831   2
  -2  10   0-5.39569 9.28165   2
   2 -10   0-11.0440 8.22878   1
   2 -10   0-6.14240 8.92085   2
   2 -10   1-11.2400 8.60207   1
  -2  10  -1 19.4059 8.70733   1
  -2  10  -1-4.13142 8.25773   2
   2 -10   1 15.7656 9.77594   2
   2 -10   2 18.6521 7.31753   1
  -2  10  -2 3.15423 9.01610   2
  -2  10  -2 18.0686 7.37914   1
   2 -10   2 20.2335 9.18667   2
  -2  10  -3-9.83589 7.06993   1
   2 -10   3 0.55824 7.07362   1
   2 -10   3 10.3785 8.57884   2
  -2  10  -3 1.02398 9.42448   2
   2 -10   4 6.20372 6.12623   1
  -2  10  -4-5.82428 8.94673   2
   2 -10   4-1.88465 8.74815   2
  -2  10  -4-2.62320 6.13213   1
  -2  10  -5 3.81584 8.01030   2
   2 -10   5 5.26254 5.53260   1
   2 -10   5 16.8346 9.38185   2
  -2  10  -5 11.4872 6.00837   1
  -2  10  -6 25.3275 6.24871   1
   2 -10   6 22.7758 6.26349   1
  -2  10  -6 12.3910 9.58341   2
   2 -10   6 20.7659 8.83037   2
   2 -10   7-9.58952 10.4394   2
   2 -10   7-5.85916 5.39004   1
  -2  10  -7 4.91636 5.15926   1
  -2  10  -7-4.30132 9.84183   2
  -2  10  -8-2.01618 9.46115   2
   2 -10   8-0.55422 4.56953   1
   2 -10   8-5.33697 9.23054   2
  -2  10  -8-1.45405 4.31239   1
  -2  10  -9 21.7241 11.1165   2
   2 -10   9 2.61589 3.06868   1
  -2  10  -9 4.87208 3.33420   1
   2 -10   9 6.84103 10.5979   2
  -2  10 -10 7.91496 11.4044   2
   2 -10  10-8.59194 12.3469   2
  -2  10 -11-18.3122 12.7279   2
   2 -10  11-9.75588 10.3028   2
   2  -9  -6 38.5768 12.0970   1
  -2   9   6 54.0151 14.6621   1
   2  -9  -6 34.7769 11.2740   2
  -2   9   5 24.7533 12.4710   1
   2  -9  -5-1.41336 9.42327   2
   2  -9  -5 31.3729 11.5665   1
  -2   9   4 26.5017 11.3072   1
  -2   9   4 16.0245 9.64436   2
   2  -9  -4 21.5339 9.56699   2
  -2   9   3 49.9618 9.96042   2
  -2   9   3 55.9116 9.77741   1
   2  -9  -3 62.7999 10.4598   1
   2  -9  -3 54.2301 9.80421   2
  -2   9   2 8.35822 7.61389   1
   2  -9  -2-11.6844 8.27229   1
   2  -9  -2-1.27715 7.63809   2
  -2   9   2-6.09996 7.42834   2
  -2   9   1 2.22906 6.35840   1
  -2   9   1 4.68037 7.45965   2
   2  -9  -1-9.21247 7.94803   1
   2  -9  -1 16.8850 7.39663   2
  -2   9   0 15.9652 7.20001   1
   2  -9   0 32.5281 8.36914   2
   2  -9   0 31.6164 8.12830   1
  -2   9   0 38.5281 8.98140   2
  -2   9  -1 38.3933 9.02376   2
  -2   9  -1 53.3550 7.75177   1
   2  -9   1 48.7806 8.05703   1
  -2   9  -2 8.18439 7.09149   2
  -2   9  -2-1.52555 5.47481   1
   2  -9   2 0.12403 5.71783   2
   2  -9   2 6.56094 5.70098   1
   2  -9   3 18.5757 5.88640   1
  -2   9  -3 6.85008 7.21491   2
  -2   9  -3 2.71572 4.98479   1
  -2   9  -4 29.3157 7.54612   2
   2  -9   4 20.9404 6.86760   2
  -2   9  -4 21.8523 5.35280   1
   2  -9   4 30.6981 5.92858   1
   2  -9   5 39.3991 5.72103   1
   2  -9   5 38.4613 8.62933   2
  -2   9  -5 37.8965 8.47409   2
  -2   9  -5 36.9854 5.66241   1
  -2   9  -6 1.27988 7.17790   2
   2  -9   6 0.03370 4.06577   1
   2  -9   6 17.5634 8.34646   2
  -2   9  -6-0.26754 3.99510   1
  -2   9  -7 9.12451 8.56773   2
   2  -9   7 4.79785 3.83062   1
  -2   9  -7-0.22395 3.63708   1
   2  -9   7-2.40201 6.79868   2
  -2   9  -8 33.9052 4.03066   1
   2  -9   8 50.8869 9.04232   2
  -2   9  -8 32.8378 9.57586   2
   2  -9   8 31.3486 3.98103   1
   2  -9   9 10.5716 8.60759   2
  -2   9  -9 18.2542 9.28276   2
   2  -9   9 1.74193 1.25863   1
   2  -9  10 17.6270 10.7313   2
  -2   9 -10-9.09328 10.2354   2
  -2   9 -11 27.8336 11.9371   2
   2  -9  11 23.5309 11.7081   2
  -2   9 -12 38.3820 11.8233   2
   2  -8  -8 19.9270 8.20290   2
  -2   8   7 18.6600 11.0524   1
   2  -8  -7-5.93440 12.5019   1
   2  -8  -7 20.4362 9.03460   2
  -2   8   6 4.80082 9.71191   1
   2  -8  -6 1.19072 8.14035   2
   2  -8  -6 12.1359 10.5356   1
  -2   8   5 43.3596 8.80240   2
  -2   8   5 43.8339 10.2739   1
   2  -8  -5 68.7511 10.2163   1
   2  -8  -5 52.5915 9.05088   2
   2  -8  -4-2.54624 7.60484   1
  -2   8   4 9.38267 7.41205   2
   2  -8  -4 6.83411 6.71358   2
  -2   8   4 0.62325 7.62949   1
  -2   8   3-3.59138 5.45245   1
   2  -8  -3 2.25361 5.96458   2
   2  -8  -3 3.07930 6.60345   1
  -2   8   3-11.7443 7.13373   2
  -2   8   2 37.3726 7.52241   2
   2  -8  -2 35.1196 7.74211   1
  -2   8   2 34.5068 7.40812   1
   2  -8  -2 34.5640 7.32218   2
  -2   8   1 86.8992 9.00231   2
   2  -8  -1 87.6429 9.07710   2
  -2   8   1 80.7738 8.51168   1
   2  -8  -1 69.4395 8.46472   1
  -2   8   0 13.5361 5.69575   1
  -2   8   0 9.89173 5.85690   2
   2  -8   0 4.57233 5.32897   1
   2  -8   0 3.08182 4.90370   2
  -2   8  -1 30.2154 6.86775   2
  -2   8  -1 29.3775 5.84021   1
   2  -8   1 34.3485 7.23259   2
   2  -8   1 27.1822 6.20247   1
  -2   8  -2 2.51304 4.30108   1
  -2   8  -2 11.3036 6.39377   2
   2  -8   2 8.87006 5.94560   2
   2  -8   2 10.7265 4.56825   1
  -2   8  -3 5.93117 5.69516   2
  -2   8  -3 8.62390 4.22496   1
   2  -8   3 15.0608 6.07293   2
   2  -8   3 18.1293 4.63338   1
   2  -8   4 15.9588 4.40478   1
  -2   8  -4 12.0759 5.46810   2
  -2   8  -4 20.1684 4.60900   1
   2  -8   4 9.95731 6.01015   2
  -2   8  -5 24.9046 6.29281   2
   2  -8   5 8.10094 6.38589   2
  -2   8  -5 21.7465 4.15602   1
   2  -8   5 18.9576 4.09927   1
   2  -8   6 5.04646 3.31385   1
  -2   8  -6 1.78791 6.36085   2
  -2   8  -6 5.07486 3.26134   1
   2  -8   6 5.05384 6.51793   2
  -2   8  -7 39.1481 3.84733   1
  -2   8  -7 40.9589 7.91948   2
   2  -8   7 34.8881 3.81758   1
   2  -8   8 0.01135 1.51170   1
  -2   8  -8 8.13506 7.11747   2
  -2   8  -8 2.00090 1.63583   1
   2  -8   8 7.36173 7.13836   2
  -2   8  -9-5.71274 6.37109   2
   2  -8   9 9.37499 7.89648   2
  -2   8 -10 2.28890 6.81225   2
   2  -8  10 8.72394 8.43913   2
  -2   8 -11-6.08769 10.2400   2
  -2   8 -12 12.7207 10.4231   2
  -2   8 -13 42.8801 12.5749   2
   2  -7  -9-14.4941 13.0851   1
   2  -7  -9 11.1953 9.00529   2
  -2   7   9 16.0106 9.82466   1
   2  -7  -8 51.9079 12.1338   1
  -2   7   8 51.7277 10.8493   1
   2  -7  -8 48.9852 9.49477   2
   2  -7  -7 15.3439 7.08475   2
  -2   7   7 10.2615 8.23559   1
   2  -7  -6 11.3191 7.36638   1
   2  -7  -6-5.18175 6.20086   2
  -2   7   6 6.42705 8.46620   1
  -2   7   5-1.17174 5.91970   2
   2  -7  -5 1.88428 5.40120   2
   2  -7  -5 9.19642 6.32916   1
  -2   7   5-7.06888 7.08952   1
   2  -7  -4 38.4622 6.54126   2
  -2   7   4 49.0195 8.12931   1
  -2   7   4 41.6295 7.14059   2
   2  -7  -4 36.0277 8.28442   1
   2  -7  -3 8.90527 5.20354   1
  -2   7   3-1.61162 4.61618   2
   2  -7  -3 0.57254 4.79459   2
  -2   7   3-3.04169 6.25019   1
  -2   7   2-5.60325 5.08446   2
   2  -7  -2-9.06364 5.64698   1
   2  -7  -2 4.54566 4.76826   2
  -2   7   2 9.60458 5.06460   1
  -2   7   1 252.452 12.2878   1
  -2   7   1 284.932 12.7355   2
   2  -7  -1 261.141 12.0564   2
   2  -7  -1 254.908 12.4158   1
  -2   7   0 121.782 8.47617   1
  -2   7   0 130.370 9.27702   2
   2  -7   0 135.197 9.06269   2
   2  -7   0 120.887 8.54071   1
   2  -7   1 37.1091 6.11049   2
   2  -7   1 25.8446 4.92486   1
  -2   7  -1 28.4664 5.81449   2
  -2   7  -1 20.0856 4.56618   1
  -2   7  -2 3.78270 3.59094   1
   2  -7   2 2.10792 3.37646   1
  -2   7  -2 4.09129 4.79092   2
   2  -7   2 6.77759 4.61019   2
  -2   7  -3 159.172 8.05766   1
   2  -7   3 157.462 9.73328   2
  -2   7  -3 162.021 10.1479   2
   2  -7   3 158.989 8.02652   1
   2  -7   4 13.4890 3.48065   1
  -2   7  -4 24.7828 3.85319   1
  -2   7  -4 21.5777 5.72634   2
   2  -7   4 19.2374 5.74965   2
  -2   7  -5 18.1257 3.20303   1
  -2   7  -5 19.8463 5.43269   2
   2  -7   5 13.5485 4.81450   2
   2  -7   5 21.1635 3.45203   1
   2  -7   6 86.0812 8.71572   2
  -2   7  -6 110.517 9.54750   2
  -2   7  -6 96.4517 4.98433   1
   2  -7   6 100.028 5.04277   1
  -2   7  -7 19.7265 5.94065   2
   2  -7   7 18.7777 5.90049   2
  -2   7  -7 18.1871 2.08400   1
   2  -7   7 16.3956 2.01155   1
  -2   7  -8 93.9392 9.83638   2
   2  -7   8 104.679 9.47049   2
  -2   7  -9 3.34280 6.23531   2
   2  -7   9 8.45269 6.55845   2
  -2   7 -10 1.23408 7.78744   2
  -2   7 -11 27.2726 8.27921   2
  -2   7 -12 7.57526 7.95562   2
  -2   7 -13 62.5195 12.7247   2
  -2   7 -14 13.2052 10.1301   2
   2  -6 -10 15.1754 11.4458   1
   2  -6 -10-0.33951 8.05526   2
  -2   6  10-16.8854 11.9136   1
   2  -6  -9 11.7052 10.0892   1
   2  -6  -9-6.17572 6.76470   2
  -2   6   9 14.5063 8.45986   1
   2  -6  -8 18.1306 8.87257   1
   2  -6  -8 11.9208 6.03209   2
   2  -6  -7 2.55141 5.15869   2
   2  -6  -7-1.15647 7.72648   1
  -2   6   7 16.8626 7.62485   1
   2  -6  -6 4.07529 6.52528   1
   2  -6  -6 4.02718 4.83475   2
  -2   6   6 20.5050 5.97678   1
  -2   6   5 3.13030 4.48521   2
   2  -6  -5 3.48110 4.71646   1
   2  -6  -5 6.83840 4.70048   2
  -2   6   5 8.20330 6.45837   1
  -2   6   4 38.7165 5.69885   2
   2  -6  -4 29.3917 5.25846   2
  -2   6   4 31.9965 6.36775   1
   2  -6  -4 34.1714 6.93502   1
   2  -6  -3 63.5310 6.45866   2
   2  -6  -3 60.3812 6.97789   1
  -2   6   3 61.4695 7.35843   1
  -2   6   3 58.4373 6.26314   2
   2  -6  -2 4.73394 3.71304   1
  -2   6   2 1.77880 3.70086   2
   2  -6  -2 0.90544 3.48050   2
  -2   6   2 2.04172 3.73875   1
   2  -6  -1 1.45879 3.45315   1
  -2   6   1 2.38693 3.84252   2
   2  -6  -1-0.77528 3.61084   2
  -2   6   1-2.70440 3.29907   1
  -2   6   0 28.7060 4.66856   2
  -2   6   0 39.5095 5.18271   1
   2  -6   0 31.3471 4.84307   2
   2  -6   0 30.6643 4.88737   1
  -2   6  -1 144.573 8.38089   2
  -2   6  -1 134.499 7.59086   1
   2  -6   1 116.506 7.56747   2
   2  -6   1 129.415 7.50383   1
  -2   6  -2 17.3068 3.61520   1
  -2   6  -2 15.6791 4.31692   2
   2  -6   2 21.3689 4.43478   2
   2  -6   2 18.7983 3.63574   1
  -2   6  -3 218.798 8.11420   1
   2  -6   3 225.155 10.3381   2
  -2   6  -3 238.345 10.7651   2
   2  -6   3 217.592 8.19274   1
   2  -6   4 4.60250 2.52015   1
  -2   6  -4 7.41977 4.26358   2
   2  -6   4 9.83273 3.87117   2
  -2   6  -4 10.2488 2.71375   1
   2  -6   5 59.9820 6.34870   2
  -2   6  -5 49.5786 6.46692   2
  -2   6  -5 51.5144 3.53159   1
   2  -6   5 60.8393 3.78145   1
  -2   6  -6 15.2293 5.43227   2
   2  -6   6 14.8261 5.37483   2
   2  -6   6 15.3661 1.82104   1
  -2   6  -6 11.8182 1.69675   1
   2  -6   7 37.0802 6.38049   2
  -2   6  -7 23.9743 5.99988   2
  -2   6  -8 20.1245 5.42864   2
   2  -6   8 33.0864 6.77450   2
  -2   6  -9 6.27876 5.04651   2
  -2   6 -10 0.54734 6.70010   2
  -2   6 -11-9.48202 8.22967   2
  -2   6 -12 1.12730 8.08680   2
  -2   6 -13 6.89814 9.39460   2
  -2   6 -14-0.32681 11.2541   2
   2  -5 -12 33.2858 8.62009   2
   2  -5 -12 55.2730 11.6139   1
  -2   5  12 36.2884 10.6898   1
   2  -5 -11 7.81620 8.88133   1
   2  -5 -11 1.19774 7.13421   2
  -2   5  11-13.5049 9.72633   1
   2  -5 -10 45.8083 8.10529   2
   2  -5 -10 31.8721 9.68841   1
  -2   5  10 40.5725 11.0832   1
   2  -5  -9-2.27291 7.51381   1
   2  -5  -9-1.75180 5.74201   2
  -2   5   9-3.06010 7.32192   1
   2  -5  -8 5.21536 6.50090   1
   2  -5  -8 8.73233 4.99401   2
  -2   5   8 8.96773 6.83915   1
   2  -5  -7 12.1719 5.48072   1
   2  -5  -7 3.71062 4.36808   2
  -2   5   7 10.6883 5.55109   1
   2  -5  -6 120.678 7.81015   2
  -2   5   6 108.772 9.05309   1
   2  -5  -6 105.759 9.57088   1
  -2   5   5 63.8437 7.19520   1
  -2   5   5 72.8883 6.17768   2
   2  -5  -5 70.2489 6.13646   2
   2  -5  -5 59.1763 7.04839   1
   2  -5  -4 9.86928 4.96614   1
  -2   5   4 5.83175 3.34405   2
   2  -5  -4 1.83019 3.25338   2
  -2   5   4 2.24871 4.38328   1
  -2   5   3 201.419 10.3616   1
   2  -5  -3 217.647 9.11357   2
  -2   5   3 209.161 8.96469   2
   2  -5  -3 189.322 10.0978   1
  -2   5   2 17.1909 3.86346   2
   2  -5  -2 8.53971 3.99474   1
   2  -5  -2 9.18859 3.42171   2
  -2   5   2 14.1196 4.23795   1
   2  -5  -1 21.6325 3.73576   2
  -2   5   1 24.1119 4.04929   2
  -2   5   1 13.9565 3.93477   1
   2  -5  -1 21.0138 3.92969   1
  -2   5   0 611.415 14.4261   1
  -2   5   0 590.649 14.3991   2
   2  -5   0 598.674 14.3828   1
   2  -5   0 578.160 14.1397   2
  -2   5  -1 101.810 6.00870   1
  -2   5  -1 111.917 6.85825   2
   2  -5   1 111.719 6.81623   2
   2  -5   1 101.598 6.04048   1
  -2   5  -2 202.449 7.43458   1
   2  -5   2 189.640 8.66821   2
  -2   5  -2 203.431 9.10393   2
   2  -5   2 208.635 7.59963   1
  -2   5  -3 39.6909 4.96534   2
  -2   5  -3 38.2718 3.45837   1
   2  -5   3 36.5905 4.62209   2
   2  -5   3 34.7080 3.34698   1
  -2   5  -4 42.0732 3.08138   1
  -2   5  -4 40.3790 4.82798   2
   2  -5   4 33.7849 4.87775   2
   2  -5   4 36.5784 2.92246   1
   2  -5   5 106.079 7.63185   2
   2  -5   5 111.280 3.66503   1
  -2   5  -5 114.182 3.68128   1
  -2   5  -5 110.231 7.72769   2
  -2   5  -6 11.1448 3.83324   2
   2  -5   6 14.3874 4.62287   2
  -2   5  -7 22.2402 5.28334   2
   2  -5   7 16.4380 4.82541   2
  -2   5  -8 5.08870 3.82712   2
  -2   5  -9 52.4234 7.50401   2
  -2   5 -10 120.793 10.3717   2
  -2   5 -11 115.865 10.8900   2
  -2   5 -12 20.4897 8.27554   2
  -2   5 -13 2.25941 8.15273   2
  -2   5 -14 6.79427 10.2624   2
  -2   5 -15-1.11192 10.0287   2
   2  -4 -13 20.2786 8.00172   2
  -2   4  13 10.3721 10.6881   1
   2  -4 -12 40.3316 10.3903   1
   2  -4 -12 42.6708 8.49802   2
   2  -4 -11-6.20089 6.55163   2
   2  -4 -11-0.60164 8.28256   1
  -2   4  11 5.25593 7.33807   1
   2  -4 -10 12.6714 5.51954   2
  -2   4  10 15.3844 7.02019   1
   2  -4 -10 22.8057 8.15876   1
   2  -4  -9-7.37724 6.42316   1
   2  -4  -9 2.63033 4.43573   2
  -2   4   9-0.18993 5.72976   1
   2  -4  -8 3.82437 4.77447   1
   2  -4  -8 9.40783 4.24927   2
  -2   4   8 13.0239 6.53865   1
   2  -4  -7 7.04228 3.58053   2
   2  -4  -7 5.59899 5.55858   1
  -2   4   7 7.86510 5.17833   1
   2  -4  -6 5.08911 3.30959   2
   2  -4  -6-2.59919 3.62312   1
  -2   4   6 5.97500 4.63789   1
  -2   4   5 30.2942 4.94138   1
   2  -4  -5 37.3301 4.22379   2
  -2   4   5 40.8353 4.36036   2
   2  -4  -5 41.9754 5.85639   1
   2  -4  -4 3.68774 3.95251   1
   2  -4  -4 1.99764 2.55671   2
  -2   4   4 3.78619 2.72058   2
  -2   4   4-1.79655 3.00373   1
   2  -4  -3 99.8332 5.63970   2
   2  -4  -3 101.012 6.86957   1
  -2   4   3 106.798 5.85184   2
  -2   4   3 93.8152 6.84963   1
   2  -4  -2 51.7858 4.24442   2
  -2   4   2 60.5956 4.56548   2
   2  -4  -2 50.2259 5.10525   1
  -2   4   2 54.4984 4.91348   1
  -2   4   1 282.004 8.87053   2
   2  -4  -1 280.755 8.77193   2
   2  -4  -1 286.621 9.77033   1
  -2   4   1 293.476 9.76895   1
  -2   4   0 78.9501 5.19006   2
   2  -4   0 74.5673 5.04812   2
   2  -4   0 77.6332 5.13533   1
  -2   4   0 79.4493 5.08206   1
  -2   4  -1 633.130 13.5666   2
   2  -4   1 627.402 13.3129   2
  -2   4  -1 614.680 12.0625   1
   2  -4   1 606.577 12.0404   1
   2  -4   2 3.55201 1.98209   1
  -2   4  -2 4.37627 2.88936   2
   2  -4   2 6.33047 2.90757   2
  -2   4  -2 2.27524 1.89848   1
  -2   4  -3 255.108 6.42864   1
  -2   4  -3 254.400 9.29110   2
   2  -4   3 252.396 9.34410   2
   2  -4   3 250.109 6.36785   1
  -2   4  -4 196.527 4.60618   1
   2  -4   4 196.864 8.84022   2
   2  -4   4 199.748 4.71121   1
  -2   4  -4 189.708 8.65067   2
  -2   4  -5 55.6084 5.62512   2
   2  -4   5 54.7070 5.63959   2
  -2   4  -6 54.0621 5.93625   2
  -2   4  -7 434.793 14.4780   2
  -2   4  -8-2.21867 4.42027   2
  -2   4  -9-3.28222 4.94282   2
  -2   4 -10 50.8966 7.01290   2
  -2   4 -11 0.59527 6.32810   2
  -2   4 -12 4.22647 7.05182   2
  -2   4 -13-14.3984 8.74515   2
  -2   4 -14-12.3396 8.73149   2
  -2   4 -15 17.0780 11.7001   2
  -2   3  13 6.93879 10.5846   1
   2  -3 -13 16.6012 10.4302   1
   2  -3 -13 6.14427 6.75843   2
   2  -3 -12 6.93433 5.96477   2
   2  -3 -12 23.1475 9.68594   1
  -2   3  12 9.98712 7.51938   1
   2  -3 -11 6.22168 7.66628   1
   2  -3 -11-5.00201 4.97633   2
  -2   3  11 14.8540 8.17964   1
   2  -3 -10 1.79972 6.40040   1
   2  -3 -10 2.20456 4.13575   2
  -2   3  10 0.73738 6.39112   1
   2  -3  -9 2.77186 4.95632   1
   2  -3  -9 1.73088 3.54482   2
  -2   3   9 2.78956 4.58716   1
   2  -3  -8 52.9852 4.92559   2
   2  -3  -8 44.5989 7.08043   1
  -2   3   8 50.0700 6.90091   1
   2  -3  -7 78.8794 5.32401   2
   2  -3  -7 80.6840 7.17315   1
  -2   3   7 79.4622 7.47790   1
   2  -3  -6 138.380 8.67571   1
   2  -3  -6 136.597 6.16621   2
  -2   3   6 142.151 8.68920   1
   2  -3  -5-4.10326 2.86812   1
   2  -3  -5 2.19253 2.02074   2
  -2   3   5 1.09502 2.56204   1
   2  -3  -4 30.1948 3.13022   2
   2  -3  -4 25.8500 4.50519   1
  -2   3   4 26.4230 4.42807   1
  -2   3   4 25.3889 2.83873   2
   2  -3  -3 6.19418 3.16223   1
  -2   3   3 6.64010 2.09726   2
  -2   3   3 10.3744 3.06691   1
   2  -3  -3 8.71532 2.14983   2
   2  -3  -2 26.3497 2.73647   2
  -2   3   2 25.7522 2.80391   2
   2  -3  -2 26.2404 3.48621   1
  -2   3   2 26.8144 3.83371   1
   2  -3  -1 44.0874 3.35395   2
  -2   3   1 45.5048 3.47501   2
   2  -3  -1 46.7724 4.06109   1
  -2   3   1 39.5720 3.89540   1
  -2   3   0 17.6774 2.71626   2
   2  -3   0 19.9648 2.66259   2
   2  -3   0 18.4848 2.73938   1
  -2   3   0 13.1244 2.56905   1
   2  -3   1 46.8009 3.79392   2
  -2   3  -1 45.4834 3.71264   2
   2  -3   1 47.5068 3.40229   1
  -2   3  -1 43.4858 3.26844   1
  -2   3  -2 35.0757 3.65458   2
   2  -3   2 26.1623 3.43782   2
   2  -3   2 33.1234 2.66740   1
  -2   3  -2 29.2847 2.49990   1
  -2   3  -3 213.711 8.15789   2
   2  -3   3 199.113 7.89046   2
  -2   3  -3 212.784 4.88397   1
  -2   3  -3 203.168 4.78892   1
  -2   3  -4 747.535 15.3914   2
  -2   3  -4 720.740 6.39292   1
  -2   3  -4 733.021 6.56794   1
  -2   3  -5 3.54888 3.21299   2
  -2   3  -6-2.11644 3.58274   2
  -2   3  -7 201.743 9.84071   2
  -2   3  -8 10.4871 3.88716   2
  -2   3  -9 18.0169 5.66823   2
  -2   3 -10 54.6505 7.68365   2
  -2   3 -11 20.9049 6.16924   2
  -2   3 -12 17.5013 8.10624   2
  -2   3 -13-3.55205 8.75364   2
  -2   3 -14 39.4073 11.2678   2
  -2   3 -15-19.3965 11.3256   2
   2  -2 -14 10.5540 6.75912   2
   2  -2 -14 19.3440 6.84165   2
  -2   2  14-7.23176 9.72738   1
   2  -2 -14 17.4182 10.2800   1
   2  -2 -13 29.8288 6.69200   2
  -2   2  13 35.1848 10.5154   1
   2  -2 -13 15.5794 6.22075   2
   2  -2 -13 28.0332 9.36887   1
   2  -2 -12 4.58268 6.66045   1
   2  -2 -12 7.01156 4.67362   2
  -2   2  12 12.5980 7.72445   1
   2  -2 -11 18.8607 4.69007   2
   2  -2 -11 10.8723 5.89483   1
  -2   2  11 0.30017 6.24442   1
   2  -2 -10 57.8655 5.43624   2
   2  -2 -10 59.9035 8.51893   1
  -2   2  10 66.6481 7.70457   1
   2  -2  -9 101.297 6.08131   2
   2  -2  -9 109.487 8.85135   1
  -2   2   9 106.980 8.91003   1
   2  -2  -8 7.26637 4.14989   1
  -2   2   8 5.83355 4.45362   1
   2  -2  -8 5.92826 2.54416   2
   2  -2  -7 5.78670 2.34454   2
  -2   2   7 5.13276 3.14225   1
   2  -2  -7 1.55222 3.04445   1
  -2   2   6-1.67603 3.41981   1
   2  -2  -6 4.19967 3.76576   1
   2  -2  -6 0.87224 1.73057   2
   2  -2  -5 175.189 8.49507   1
  -2   2   5 182.590 8.72422   1
   2  -2  -5 178.435 5.28329   2
   2  -2  -4 3.63663 3.03506   1
  -2   2   4 5.11100 1.54591   2
  -2   2   4 3.73489 2.31410   1
   2  -2  -4 6.13436 1.52225   2
   2  -2  -3 1.10051 2.70615   1
  -2   2   3 3.63703 1.38415   2
  -2   2   3 4.71351 2.82472   1
   2  -2  -3 2.88370 1.32248   2
  -2   2   2 56.6417 2.93886   2
   2  -2  -2 55.8271 2.88618   2
   2  -2  -2 56.3344 4.41062   1
  -2   2   2 54.6117 4.40247   1
  -2   2   1 686.050 9.90182   2
   2  -2  -1 681.205 9.77020   2
   2  -2  -1 702.927 12.7051   1
  -2   2   1 697.178 12.5555   1
   2  -2   0 58.9517 3.44440   2
   2  -2   0 57.7046 3.72456   1
  -2   2   0 52.0948 3.47223   1
  -2   2   0 53.5450 3.31657   2
   2  -2   1 275.251 7.39220   2
  -2   2  -1 267.656 7.30257   2
  -2   2  -1 296.469 6.92450   1
  -2   2  -2 5.28439 1.43435   1
  -2   2  -2 5.18465 1.39338   1
  -2   2  -2 8.79356 2.43872   2
  -2   2  -3 51.4055 2.41742   1
  -2   2  -3 47.6740 4.18241   2
  -2   2  -3 50.6102 2.42627   1
  -2   2  -4 362.120 10.5706   2
  -2   2  -4 334.291 4.70987   1
  -2   2  -4 326.480 4.74030   1
  -2   2  -5 5.39548 2.81009   2
  -2   2  -6 2.61425 2.78543   2
  -2   2  -7 2.15285 3.78129   2
   2  -2   8 255.690 3.47037   1
  -2   2  -8 240.508 3.38449   1
  -2   2  -8 260.537 11.9217   2
   2  -2   9 13.5455 1.25384   1
  -2   2  -9 12.5419 1.22408   1
  -2   2  -9 11.6567 5.18404   2
  -2   2 -10 3.81997 5.62160   2
  -2   2 -11 123.932 10.7432   2
   2  -2  12 53.4687 2.87588   1
  -2   2 -12 64.0792 9.87990   2
   2  -2  12 60.4792 3.03058   1
   2  -2  13 9.52301 1.83771   1
  -2   2 -13 5.57640 8.15383   2
   2  -2  14 20.3859 1.48424   1
  -2   2 -14 58.8935 11.7707   2
  -2   2 -15 8.39213 10.9477   2
   2  -1 -15 18.4481 7.87924   2
   2  -1 -15-4.90499 6.91261   2
  -2   1  15 8.26450 11.3150   1
   2  -1 -15 4.63535 10.3058   1
  -2   1  14-0.35765 8.38420   1
   2  -1 -14 11.9863 5.90121   2
   2  -1 -14-1.69356 5.84478   2
   2  -1 -14-6.53747 8.83404   1
   2  -1 -13 1.80296 4.90415   2
  -2   1  13-4.69308 7.09571   1
   2  -1 -13-3.84903 5.02227   2
   2  -1 -13-0.86988 6.60132   1
   2  -1 -12 148.655 8.21091   2
   2  -1 -12 140.928 11.7177   1
   2  -1 -12 136.353 7.86399   2
  -2   1  12 158.272 11.9018   1
  -2   1  11 0.76631 5.62403   1
   2  -1 -11 3.57269 3.50140   2
   2  -1 -11 1.66805 3.12428   2
   2  -1 -11-1.18325 5.10170   1
   2  -1 -10 5.58895 2.93637   2
  -2   1  10 12.0062 5.23241   1
   2  -1 -10 9.98770 5.38779   1
   2  -1  -9 124.243 5.70134   2
   2  -1  -9 113.290 8.71463   1
  -2   1   9 117.735 8.39926   1
   2  -1  -8 157.135 5.65676   2
   2  -1  -8 158.693 9.14128   1
  -2   1   8 155.195 9.10546   1
   2  -1  -7 138.553 4.70947   2
   2  -1  -7 135.194 8.24776   1
  -2   1   7 138.871 8.27992   1
   2  -1  -6 186.098 4.56018   2
   2  -1  -6 195.433 9.08896   1
  -2   1   6 182.083 8.75575   1
   2  -1  -5 170.379 3.55103   2
   2  -1  -5 156.769 7.80156   1
  -2   1   5 162.433 7.62939   1
   2  -1  -4 72.3452 1.87834   2
   2  -1  -4 83.5821 5.41139   1
  -2   1   4 78.9796 5.22851   1
  -2   1   3 73.1336 1.92253   2
   2  -1  -3 73.3326 1.88809   2
   2  -1  -3 77.4015 5.11119   1
  -2   1   3 78.0612 4.97271   1
   2  -1  -2 196.169 7.05794   1
  -2   1   2 197.000 3.84508   2
  -2   1   2 197.208 6.94631   1
  -2   1   1-2.46805 1.64404   1
  -2   1   1 0.72580 1.15571   2
  -2   1   0 201.781 5.41340   2
  -2   1   0 200.485 6.13368   1
  -2   1   0 194.830 6.01572   1
  -2   1  -1 12.6055 2.12992   2
  -2   1  -1 13.9924 2.00066   1
  -2   1  -1 12.4074 1.92162   1
  -2   1  -2 0.42566 1.23742   1
   2  -1   2-1.73081 1.40313   1
  -2   1  -2 0.50417 1.98109   2
   2  -1   3 142.377 4.32525   1
  -2   1  -3 128.139 4.09459   1
  -2   1  -4 813.529 9.80140   1
   2  -1   4 834.012 9.90799   1
  -2   1  -5 94.8767 3.64565   1
   2  -1   5 87.6881 3.50181   1
   2  -1   6 91.0469 3.75032   1
  -2   1  -6 87.5999 3.66396   1
  -2   1  -7 22.6550 2.37748   1
   2  -1   7 24.9890 2.51119   1
   2  -1   8 99.3864 4.49578   1
  -2   1  -8 97.5600 4.48521   1
   2  -1   9 9.96597 2.46077   1
  -2   1  -9 15.5441 5.75902   2
  -2   1  -9 11.4473 2.61372   1
  -2   1 -10 124.052 10.0823   2
   2  -1  10 115.241 5.53800   1
  -2   1 -10 118.459 5.62867   1
  -2   1 -11 3.21100 3.01679   1
  -2   1 -11 4.25284 6.13130   2
   2  -1  11-0.15482 2.84650   1
  -2   1 -12 2.39537 3.45078   1
  -2   1 -12-3.48799 7.05712   2
   2  -1  12-1.08091 3.35880   1
  -2   1 -13 11.7201 9.58316   2
   2  -1  13 8.38258 4.23660   1
  -2   1 -13 3.83816 4.15197   1
  -2   1 -14-24.4289 12.4706   2
  -2   1 -14 5.63173 4.58510   1
   2   0 -15 10.3105 6.31115   2
   2   0 -15-1.52120 6.36911   2
  -2   0  15 3.90089 10.0163   1
  -2   0  15 0.14142 9.63991   1
  -2   0  14 11.5758 7.79999   1
   2   0 -14 6.03444 5.36290   2
  -2   0  13 3.47886 6.57965   1
   2   0 -13 2.92484 4.45995   2
   2   0 -13-3.01980 4.42987   2
  -2   0  12 0.16610 6.08964   1
   2   0 -12 0.34605 3.76945   2
   2   0 -12-0.76675 3.36312   2
   2   0 -12-0.84694 5.79079   1
   2   0 -11 39.5170 4.30264   2
   2   0 -11 43.7868 6.91904   1
  -2   0  11 47.3193 6.84790   1
   2   0 -11 33.3849 4.17445   2
   2   0 -10 24.2086 3.30436   2
   2   0 -10 33.4828 5.63472   1
   2   0 -10 26.1172 3.40940   2
  -2   0  10 30.5610 5.39096   1
   2   0  -9-1.53263 2.05153   2
  -2   0   9 4.09781 3.73105   1
   2   0  -9 1.63930 2.00471   2
   2   0  -9 2.57046 4.28143   1
   2   0  -8 112.672 4.30449   2
   2   0  -8 117.159 4.33880   2
   2   0  -8 111.934 7.76511   1
  -2   0   8 113.801 7.48194   1
   2   0  -7 384.816 12.3710   1
   2   0  -7 372.939 6.20839   2
   2   0  -7 391.851 6.36966   2
  -2   0   7 391.183 12.5716   1
   2   0  -6 12.3170 1.02239   2
   2   0  -6 11.9450 1.01551   2
  -2   0   6 12.6911 3.26547   1
   2   0  -6 16.7843 3.50404   1
   2   0  -5 600.920 13.9140   1
  -2   0   5 651.780 14.3393   1
  -2   0   4 7.78814 2.65088   1
  -2   0   3 5.12322 2.36870   1
  -2   0   3 4.81733 1.96780   1
  -2   0   2 150.986 3.05341   2
  -2   0   2 163.804 6.31635   1
  -2   0   2 158.216 6.24404   1
  -2   0   1 100.872 4.87109   1
  -2   0   0 1465.85 16.4415   1
   2   0   0 1500.12 16.5947   1
  -2   0  -1 1227.64 14.5922   1
   2   0   1 1236.30 14.6205   1
   2   0   2 72.8437 3.80109   1
  -2   0  -2 81.2489 3.97207   1
   2   0   3 233.929 6.47073   1
  -2   0  -3 234.637 6.46989   1
   2   0   4 332.356 7.85629   1
  -2   0  -4 320.468 7.67741   1
   2   0   5 0.01760 1.66057   1
  -2   0  -5-1.31456 1.83666   1
  -2   0  -6 48.5652 3.81453   1
   2   0   6 46.6409 3.57111   1
   2   0   7 28.3874 3.31875   1
  -2   0  -7 27.5290 3.20073   1
  -2   0  -8 2.51027 2.68191   1
   2   0   8 4.75217 2.54165   1
   2   0   9 13.6634 3.31200   1
  -2   0  -9 15.8002 3.60627   1
   2   0  10 192.028 8.38774   1
  -2   0 -10 189.924 8.44358   1
   2   0  11 24.0829 4.77177   1
  -2   0 -11 20.1524 4.67825   1
  -2   0 -12 8.54601 4.52027   1
   2   0  12 5.39998 4.33378   1
  -2   0 -13-0.43935 5.00895   1
   2   0  13-5.64066 5.23384   1
  -2   0 -14-8.96877 9.52953   2
  -2   0 -14 7.86920 6.68514   1
   2   0  14-1.15223 6.23785   1
   2   1 -16-3.13960 6.97489   2
   2   1 -16 3.18088 6.83351   2
  -2  -1  16-1.91117 9.75109   1
  -2  -1  16-6.62494 10.2668   1
   2   1 -15 15.2311 6.23132   2
  -2  -1  15 36.1151 9.09635   1
  -2  -1  15 9.94686 8.64629   1
   2   1 -15 18.8245 6.01916   2
   2   1 -14 37.3686 5.96411   2
   2   1 -14 31.0818 5.92824   2
  -2  -1  14 39.9573 8.33859   1
  -2  -1  14 40.2398 8.84770   1
  -2  -1  13 31.1250 7.36696   1
   2   1 -13 25.5548 4.74790   2
  -2  -1  13 33.1951 7.33341   1
   2   1 -12 22.7632 3.94427   2
  -2  -1  12 26.1155 6.12638   1
  -2  -1  12 18.8078 6.07448   1
  -2  -1  11 3.62336 4.54444   1
   2   1 -11 8.06370 3.02216   2
  -2  -1  11 4.70163 4.71351   1
   2   1 -10 31.5797 3.42899   2
  -2  -1  10 23.9932 5.32272   1
  -2  -1  10 36.2472 5.79362   1
  -2  -1   9 107.142 7.53082   1
   2   1  -9 111.662 4.77256   2
  -2  -1   9 100.922 7.51696   1
  -2  -1   8 1.76862 3.21287   1
   2   1  -8 2.52514 1.54109   2
  -2  -1   8-1.07152 3.25954   1
   2   1  -7 235.831 4.96559   2
  -2  -1   7 253.644 10.0387   1
  -2  -1   7 233.672 9.38778   1
  -2  -1   6 167.012 7.80488   1
  -2  -1   6 165.577 7.65658   1
   2   1  -6 170.038 3.46663   2
   2   1  -5 157.708 2.64200   2
  -2  -1   5 162.752 7.46622   1
  -2  -1   5 158.272 7.23735   1
  -2  -1   4 4.79569 2.64695   1
  -2  -1   4 4.51392 0.66200   2
  -2  -1   4 5.72218 2.21281   1
  -2  -1   3 261.729 4.38680   2
  -2  -1   3 249.928 8.11583   1
   2   1  -3 259.400 8.19001   1
  -2  -1   2 232.867 7.59535   1
  -2  -1   2 232.766 5.07559   2
   2   1  -2 242.959 7.77977   1
  -2  -1   1 1260.02 13.3994   2
  -2  -1   1 1307.31 17.0811   1
   2   1  -1 1307.39 17.0478   1
   2   1   0 65.7449 4.01500   1
  -2  -1   0 69.9853 4.23470   1
   2   1   1 1093.51 15.3253   1
  -2  -1  -1 1104.50 15.3233   1
   2   1   2 28.1067 3.09582   1
  -2  -1  -2 27.3154 3.03572   1
  -2  -1  -3 47.0158 3.75471   1
   2   1   3 51.9032 3.94573   1
  -2  -1  -4 163.502 6.61253   1
   2   1   4 175.544 6.82460   1
  -2  -1  -5 4.66736 2.51836   1
   2   1   5 4.21641 2.41572   1
  -2  -1  -6 131.981 6.65464   1
   2   1   6 123.631 6.39344   1
   2   1   7 193.449 8.20130   1
  -2  -1  -7 198.932 8.31806   1
   2   1   8 602.364 14.6397   1
  -2  -1  -8 592.294 14.4871   1
   2   1   9 26.6929 4.70126   1
  -2  -1  -9 29.1427 4.84338   1
  -2  -1 -10-2.61440 4.43728   1
   2   1  10 2.89717 3.97171   1
   2   1  11 12.1856 5.30412   1
  -2  -1 -11 20.1304 5.56919   1
  -2  -1 -12 13.6378 6.23769   1
   2   1  12 8.18306 6.01890   1
  -2  -1 -13-5.10362 6.63603   1
   2   1  13 5.73467 6.66437   1
  -2  -2  16 27.1649 10.2365   1
  -2  -2  16 11.0276 9.46090   1
   2   2 -16 28.9985 7.55845   2
  -2  -2  15 19.6234 8.53193   1
  -2  -2  15 2.17178 7.29600   1
   2   2 -15 5.93340 6.12900   2
   2   2 -14 7.21456 4.74664   2
  -2  -2  14-3.96607 7.22420   1
  -2  -2  14 4.15039 6.38340   1
  -2  -2  13 8.66743 5.79999   1
  -2  -2  13 2.31245 5.96584   1
   2   2 -13 3.84577 4.00462   2
  -2  -2  12 0.49468 5.20255   1
  -2  -2  12 2.37861 4.56629   1
   2   2 -12 0.96580 3.40332   2
   2   2 -11 50.8069 4.59165   2
  -2  -2  11 46.7256 6.08305   1
  -2  -2  11 49.3417 6.72714   1
   2   2 -10 142.237 6.09460   2
  -2  -2  10 155.970 9.28152   1
  -2  -2  10 152.062 9.26892   1
  -2  -2   9 202.674 9.86215   1
   2   2  -9 206.466 6.60398   2
  -2  -2   9 184.708 9.27376   1
   2   2  -8 168.618 5.52617   2
  -2  -2   8 176.556 8.72117   1
  -2  -2   8 167.940 8.59409   1
   2   2  -7 200.052 5.51386   2
  -2  -2   7 201.436 8.79415   1
  -2  -2   7 192.320 8.71189   1
   2   2  -6 468.187 7.72118   2
  -2  -2   6 469.679 7.60140   2
  -2  -2   6 454.887 12.4066   1
  -2  -2   6 482.615 13.0110   1
  -2  -2   5 117.612 6.36172   1
  -2  -2   5 113.130 3.79435   2
   2   2  -5 115.798 3.90041   2
   2   2  -4 123.407 4.13670   2
  -2  -2   4 117.794 3.99944   2
  -2  -2   4 117.787 6.12274   1
   2   2  -4 113.586 6.23702   1
   2   2  -3 2.63371 1.52291   2
  -2  -2   3 5.49245 1.58500   2
  -2  -2   3 2.95105 2.20566   1
   2   2  -3 4.96888 2.08122   1
  -2  -2   2 139.165 6.42504   1
   2   2  -2 142.225 6.53480   1
  -2  -2   2 137.309 5.04911   2
  -2  -2   1 52.0217 3.67203   2
   2   2  -1 52.4332 4.05062   1
  -2  -2   1 54.5361 4.30575   1
   2   2   0 88.5753 5.16655   1
  -2  -2   0 86.1163 4.78726   2
  -2  -2   0 93.1338 5.28412   1
  -2  -2  -1 347.224 9.83146   2
  -2  -2  -1 341.794 9.71667   1
   2   2   1 343.915 9.81155   1
  -2  -2  -2 25.3999 3.84647   2
  -2  -2  -2 23.6455 3.53344   1
   2   2   2 25.3420 3.45985   1
  -2  -2  -3 2.92143 3.16730   2
  -2  -2  -3 2.52460 2.30735   1
  -2  -2  -4 36.6959 4.13521   1
   2   2   4 34.3504 4.05604   1
  -2  -2  -5 166.665 8.05526   1
   2   2   5 169.481 7.99401   1
  -2  -2  -6 220.426 9.52611   1
   2   2   6 231.768 9.58122   1
  -2  -2  -7 45.8140 5.42722   1
   2   2   7 52.2385 5.54697   1
  -2  -2  -8-0.61996 3.90632   1
   2   2   8 0.31087 3.93671   1
  -2  -2  -9 6.10262 4.68237   1
   2   2   9 11.2221 4.88480   1
  -2  -2  -9 20.1673 6.58811   2
  -2  -2 -10 8.65400 5.31218   1
  -2  -2 -10 14.7125 7.73815   2
   2   2  10 6.38368 5.07197   1
  -2  -2 -11-7.20728 9.82902   2
   2   2  11 3.09710 5.97030   1
  -2  -2 -11-1.58985 6.04990   1
  -2  -2 -12 1.27716 8.91494   2
  -2  -2 -12-1.02368 6.98266   1
   2   2  12 1.21138 6.78725   1
  -2  -2 -13 2.78891 8.10549   1
  -2  -2 -13-12.3611 12.6865   2
   2   2  13 7.23895 8.18096   1
  -2  -3  16-3.59519 9.47485   1
   2   3 -16 9.36500 7.15757   2
  -2  -3  16-8.78636 8.41311   1
  -2  -3  15-1.00185 7.18527   1
   2   3 -15 5.36997 5.88439   2
  -2  -3  15-1.29848 7.08346   1
  -2  -3  14-4.89994 6.23661   1
   2   3 -14 3.29829 4.59327   2
  -2  -3  14 3.18791 6.30598   1
   2   3 -13 28.7395 5.16476   2
  -2  -3  13 19.7486 6.57332   1
  -2  -3  13 19.6355 6.43111   1
  -2  -3  12 16.8337 5.71712   1
   2   3 -12 21.3248 4.33580   2
  -2  -3  12 27.7478 6.01861   1
   2   3 -11 106.900 6.39709   2
  -2  -3  11 102.805 7.90604   1
  -2  -3  11 100.438 8.08238   1
  -2  -3  10 5.16658 3.74998   1
   2   3 -10 10.1672 3.04569   2
  -2  -3  10 4.55776 3.65111   1
   2   3  -9 95.8790 5.28416   2
  -2  -3   9 94.3524 7.16106   1
  -2  -3   9 82.5230 6.70164   1
   2   3  -8 129.829 5.66496   2
  -2  -3   8 129.998 5.55476   2
  -2  -3   8 126.488 7.61257   1
  -2  -3   8 121.839 7.61161   1
  -2  -3   7-1.29011 3.06053   1
  -2  -3   7 2.53111 1.99364   2
   2   3  -7-0.25190 1.82111   2
  -2  -3   7-1.69236 2.95042   1
   2   3  -6 34.6714 3.14711   2
   2   3  -6 20.4636 3.89632   1
  -2  -3   6 22.6959 2.69826   2
  -2  -3   6 23.9896 3.99792   1
  -2  -3   5 501.230 13.0660   1
  -2  -3   5 522.390 9.93504   2
   2   3  -5 562.870 10.4998   2
   2   3  -5 538.704 13.5705   1
   2   3  -4 57.7430 3.82768   2
  -2  -3   4 57.1064 3.75661   2
  -2  -3   4 60.2607 4.90759   1
   2   3  -4 54.9674 4.78177   1
   2   3  -3 1363.95 17.1697   2
   2   3  -3 1378.62 20.5926   1
  -2  -3   3 1309.44 16.8131   2
  -2  -3   3 1363.73 20.5346   1
  -2  -3   2 82.8361 4.89317   2
   2   3  -2 92.3875 5.83907   1
  -2  -3   2 82.8312 5.63167   1
   2   3  -2 91.6584 5.02022   2
  -2  -3   1 109.624 5.74139   2
   2   3  -1 125.074 6.66252   1
  -2  -3   1 123.056 6.56407   1
   2   3   0 227.126 8.70968   1
  -2  -3   0 202.047 8.08459   2
  -2  -3   0 212.713 8.57885   1
   2   3   1 4.04118 2.77629   1
  -2  -3  -1 3.29560 2.92061   2
  -2  -3  -1-2.43599 2.82903   1
  -2  -3  -2 6.30299 3.08430   1
   2   3   2 11.4540 3.37556   1
  -2  -3  -2 7.61950 3.14761   2
  -2  -3  -3 34.1503 5.05746   2
  -2  -3  -3 39.6169 4.82587   1
   2   3   3 37.4330 4.64444   1
  -2  -3  -4 72.0263 6.33325   2
  -2  -3  -4 68.3671 6.04732   1
   2   3   4 72.4273 5.93562   1
  -2  -3  -5 46.8832 5.73227   2
   2   3   5 44.8704 5.41170   1
  -2  -3  -5 40.9202 5.43271   1
  -2  -3  -6 128.151 9.65967   2
   2   3   6 122.616 8.18199   1
  -2  -3  -6 123.329 8.31628   1
   2   3   7 1.65294 4.12171   1
  -2  -3  -7-0.44120 4.43422   1
  -2  -3  -7 2.24252 5.49222   2
  -2  -3  -8 6.24383 6.20961   2
  -2  -3  -8-5.01623 4.59760   1
   2   3   8 0.89138 4.85130   1
  -2  -3  -9 72.1301 10.1098   2
   2   3   9 54.0602 7.68625   1
  -2  -3  -9 62.4109 7.76637   1
  -2  -3 -10 12.0291 7.10558   2
  -2  -3 -10 2.79573 6.54414   1
   2   3  10 10.0679 6.16390   1
  -2  -3 -11-0.58909 7.27916   1
  -2  -3 -11 14.2291 8.93075   2
   2   3  11 9.33161 7.35190   1
  -2  -3 -12-14.7304 11.8910   2
  -2  -3 -12 7.69031 9.26489   1
   2   3  12-11.9617 9.31422   1
  -2  -4  16 15.2842 8.35869   1
   2   4 -16 31.3786 8.14471   2
  -2  -4  16 21.7156 8.69117   1
  -2  -4  15 2.96568 7.21987   1
  -2  -4  15 8.00928 7.60771   1
   2   4 -15 28.0289 6.89369   2
  -2  -4  14 2.94322 6.08701   1
  -2  -4  14 17.3150 6.82807   1
   2   4 -14 12.6052 5.25020   2
  -2  -4  13 7.46934 5.54223   1
   2   4 -13 2.69239 4.64107   2
  -2  -4  13 4.59055 5.57322   1
  -2  -4  12 16.1411 5.76771   1
   2   4 -12 19.1233 4.48078   2
  -2  -4  12 20.8420 5.89817   1
  -2  -4  11 2.40820 4.41374   1
   2   4 -11 3.65064 3.29512   2
  -2  -4  11 4.00840 4.52326   1
   2   4 -10 5.98973 3.43871   2
  -2  -4  10 6.02142 4.23430   1
  -2  -4  10 5.34812 4.00551   1
  -2  -4   9 18.6114 3.47055   2
  -2  -4   9 18.0754 4.30457   1
   2   4  -9 20.7309 3.73788   2
  -2  -4   9 19.5452 4.61880   1
   2   4  -8 0.52341 2.55815   2
  -2  -4   8 1.55606 3.66926   1
  -2  -4   8 2.02697 2.57148   2
   2   4  -7 69.9206 6.16852   1
   2   4  -7 70.7431 4.92956   2
  -2  -4   7 74.7096 6.12070   1
  -2  -4   7 65.1093 4.67057   2
   2   4  -6 399.025 10.4274   2
  -2  -4   6 381.731 12.2534   1
  -2  -4   6 383.909 10.1498   2
   2   4  -6 388.475 12.4891   1
   2   4  -5 22.7024 3.36806   2
  -2  -4   5 26.6695 3.44582   2
   2   4  -5 25.6011 3.99995   1
  -2  -4   5 25.1491 3.87071   1
  -2  -4   4 81.1000 5.21063   2
   2   4  -4 88.5299 5.43681   2
   2   4  -4 92.4886 6.44674   1
  -2  -4   4 88.3324 6.01100   1
   2   4  -3 69.1869 5.44872   1
  -2  -4   3 73.8173 5.15525   2
   2   4  -3 77.2376 5.33398   2
  -2  -4   3 63.7821 5.60500   1
   2   4  -2 71.9842 5.29750   2
  -2  -4   2 72.8477 5.31671   2
  -2  -4   2 69.1935 5.57904   1
   2   4  -2 72.7158 5.57499   1
   2   4  -1 0.45849 3.01294   2
  -2  -4   1-0.96659 2.37657   2
   2   4  -1 0.33467 3.09306   1
  -2  -4   1 2.73035 2.65031   1
  -2  -4   0 136.678 7.66309   2
  -2  -4   0 126.821 7.32329   1
   2   4   0 122.876 7.36651   1
  -2  -4  -1 87.1955 6.75403   2
  -2  -4  -1 96.8290 6.59533   1
   2   4   1 84.7531 6.62689   1
  -2  -4  -2 200.535 9.45389   1
  -2  -4  -2 201.603 9.72803   2
   2   4   2 177.177 9.10713   1
  -2  -4  -3 28.6955 4.96643   1
  -2  -4  -3 20.6149 5.06013   2
   2   4   3 27.4533 4.91835   1
  -2  -4  -4 446.774 15.6596   2
  -2  -4  -4 440.379 14.9561   1
   2   4   4 447.475 14.8058   1
  -2  -4  -5 12.4405 5.81859   2
  -2  -4  -5 12.8377 4.70187   1
   2   4   5 4.54463 4.46717   1
  -2  -4  -6-4.44344 4.90084   1
   2   4   6 7.22890 5.02252   1
  -2  -4  -6 1.50548 5.22824   2
  -2  -4  -7 12.3697 6.99898   2
  -2  -4  -7 8.74402 5.65625   1
   2   4   7 7.33912 5.63259   1
  -2  -4  -8 3.22198 6.04564   1
  -2  -4  -8-7.64857 7.43606   2
   2   4   8 12.9362 6.76075   1
  -2  -4  -9 34.4329 8.82183   2
   2   4   9 59.9079 8.93104   1
  -2  -4  -9 43.8649 8.31438   1
  -2  -4 -10 13.6541 10.9020   2
  -2  -4 -10 11.5868 7.95846   1
   2   4  10 12.6785 8.17956   1
  -2  -4 -11 6.85923 11.8328   2
  -2  -4 -11 7.84279 9.53790   1
   2   4  11-7.62120 9.93120   1
  -2  -5  16 16.2505 8.30519   1
   2   5 -16 32.9011 8.64078   2
  -2  -5  16 18.2130 8.88595   1
  -2  -5  15 32.1191 8.33258   1
   2   5 -15 22.5180 7.01344   2
  -2  -5  14 0.96175 6.40772   1
  -2  -5  14-13.2215 6.77011   1
   2   5 -14-0.69910 5.74657   2
  -2  -5  13 11.6119 5.92522   1
   2   5 -13 13.2229 5.45836   2
  -2  -5  13 4.84168 5.78774   1
  -2  -5  12 3.72408 4.90297   1
   2   5 -12-0.42127 4.49889   2
  -2  -5  12-1.44901 5.14613   1
  -2  -5  11-6.14101 5.07135   1
   2   5 -11 3.98587 3.93915   2
  -2  -5  11 0.45271 4.34661   1
   2   5 -10 1.42292 3.53599   2
  -2  -5  10-1.59517 3.88065   1
  -2  -5  10 2.29363 3.53950   2
  -2  -5  10 8.96418 4.70086   1
   2   5  -9 5.42086 3.34984   2
  -2  -5   9 1.19632 3.78343   1
  -2  -5   9-1.07684 3.20775   2
   2   5  -8 7.63066 3.53005   2
  -2  -5   8 8.12942 3.92515   1
  -2  -5   8 1.54538 3.17095   2
   2   5  -8 8.54316 4.01243   1
   2   5  -7 205.575 8.83673   2
  -2  -5   7 202.325 8.61208   2
   2   5  -7 202.274 10.0217   1
  -2  -5   7 188.838 9.55651   1
  -2  -5   6 11.6957 3.60195   1
  -2  -5   6 21.0741 3.86587   2
   2   5  -6 14.1029 3.60873   2
   2   5  -6 19.1165 4.22348   1
  -2  -5   5 53.0735 5.10536   2
   2   5  -5 50.4612 5.62289   1
   2   5  -5 49.6922 5.07914   2
  -2  -5   5 50.8338 5.35941   1
   2   5  -4 0.54396 2.81343   2
  -2  -5   4-2.71541 3.18603   2
  -2  -5   4 3.90922 3.65184   1
   2   5  -4-0.71289 3.51521   1
   2   5  -3 31.2160 4.68729   2
  -2  -5   3 34.0864 4.65295   2
   2   5  -3 38.7067 5.00354   1
  -2  -5   3 33.1225 5.02177   1
   2   5  -2 262.557 10.4959   2
   2   5  -2 270.562 10.9842   1
  -2  -5   2 258.632 10.5291   2
  -2  -5   2 271.702 11.1935   1
  -2  -5   1 21.7422 4.04258   2
   2   5  -1 17.2602 3.87277   2
   2   5  -1 21.9282 4.77415   1
  -2  -5   1 25.9125 4.75772   1
   2   5   0 7.40154 3.91150   2
   2   5   0 7.92390 4.20749   1
  -2  -5   0 6.04173 3.98057   1
  -2  -5   0-0.43766 3.78016   2
  -2  -5  -1 98.5779 7.81339   1
  -2  -5  -1 94.0909 7.91109   2
   2   5   1 116.011 8.08731   1
  -2  -5  -2 8.22120 4.68305   1
  -2  -5  -2 8.46457 4.92509   2
   2   5   2 0.22461 4.17959   1
  -2  -5  -3 15.5904 5.61479   2
  -2  -5  -3 11.8833 5.18424   1
   2   5   3 5.86975 3.88358   1
  -2  -5  -4 22.7677 6.46629   2
  -2  -5  -4 4.56157 5.43924   1
   2   5   4 9.30348 5.28261   1
  -2  -5  -5 13.3607 6.70410   2
  -2  -5  -5-2.01899 5.39814   1
   2   5   5 5.58542 4.84841   1
  -2  -5  -6-5.70584 7.16271   2
  -2  -5  -6 0.11612 5.22538   1
   2   5   6 1.36144 5.34639   1
  -2  -5  -7 1.99292 6.57760   2
  -2  -5  -7 2.14253 7.01909   1
   2   5   7 5.81541 7.03819   1
  -2  -5  -8 64.8824 10.3170   2
   2   5   8 51.3343 9.54362   1
  -2  -5  -8 66.7790 9.39724   1
   2   5   9 81.8322 11.6705   1
  -2  -5  -9 81.0341 12.2211   2
  -2  -5 -10-9.26132 13.0794   2
   2   5  10 14.5943 10.1002   1
  -2  -6  16 12.7596 8.72187   1
   2   6 -16-1.09496 8.48570   2
  -2  -6  16 15.1175 8.59234   1
  -2  -6  15 3.55195 7.64562   1
  -2  -6  15 13.2797 7.55272   1
   2   6 -15 3.31707 7.45749   2
  -2  -6  14-5.53087 6.44643   1
  -2  -6  14 13.2205 7.15830   1
   2   6 -14 6.41676 6.69877   2
  -2  -6  13 1.56846 5.89062   1
  -2  -6  13 1.02908 5.75192   1
   2   6 -13 0.74028 5.82695   2
  -2  -6  12 3.74974 5.25688   1
   2   6 -12 0.52703 4.89545   2
  -2  -6  12 0.90966 5.63249   1
  -2  -6  12-4.20433 4.74894   2
  -2  -6  11 0.90222 4.95067   1
   2   6 -11 2.13219 4.65459   2
  -2  -6  11 0.57594 4.47649   2
  -2  -6  11 1.07401 4.83387   1
  -2  -6  10 20.0832 5.51117   1
   2   6 -10 18.3343 5.10809   2
  -2  -6  10 20.8310 4.96965   2
  -2  -6   9 4.53459 4.38015   1
   2   6  -9 10.6122 4.37510   2
  -2  -6   9 7.13546 4.11512   2
   2   6  -9 6.61779 4.56919   1
  -2  -6   8 17.5141 4.98745   1
   2   6  -8 24.7533 4.92424   2
  -2  -6   8 22.0932 4.71037   2
   2   6  -8 28.1617 5.33535   1
  -2  -6   7 62.3335 6.05001   2
   2   6  -7 63.2373 6.32302   2
   2   6  -7 58.0226 6.65310   1
  -2  -6   7 57.5395 6.57166   1
   2   6  -6 5.04122 4.11431   1
   2   6  -6 7.57432 3.75691   2
  -2  -6   6 6.51677 3.84556   2
  -2  -6   6 9.57001 3.64822   1
   2   6  -5 69.7345 6.57757   2
  -2  -6   5 60.4132 6.23277   2
   2   6  -5 64.7706 6.63589   1
  -2  -6   5 63.6432 6.67186   1
  -2  -6   4 73.3554 6.82807   2
   2   6  -4 73.2515 6.74110   1
  -2  -6   4 67.3112 6.85711   1
   2   6  -4 76.0482 6.84732   2
   2   6  -3 121.354 8.30868   1
  -2  -6   3 112.128 8.09599   2
  -2  -6   3 117.493 8.42587   1
   2   6  -3 115.554 7.99107   2
   2   6  -2 197.899 10.6950   1
   2   6  -2 198.497 10.1890   2
  -2  -6   2 191.288 10.1949   1
  -2  -6   2 207.107 10.3604   2
   2   6  -1 205.080 11.0147   2
  -2  -6   1 200.101 10.9241   1
  -2  -6   1 203.300 10.9728   2
   2   6  -1 227.817 11.3743   1
  -2  -6   0 293.601 13.1568   2
  -2  -6   0 289.701 12.9704   1
   2   6   0 290.378 13.1844   1
   2   6   0 281.974 12.7235   2
  -2  -6  -1 29.4690 5.71132   2
  -2  -6  -1 28.6176 6.02413   1
   2   6   1 32.7265 6.21825   1
  -2  -6  -2 40.1049 7.26087   2
   2   6   2 32.1027 6.58681   1
  -2  -6  -2 37.9178 6.82575   1
  -2  -6  -3 1.80178 5.35058   2
  -2  -6  -3 2.44121 4.84534   1
   2   6   3 2.22495 5.89458   1
  -2  -6  -4-4.63307 6.72104   2
  -2  -6  -4 0.84295 6.21946   1
   2   6   4 6.87349 5.37515   1
  -2  -6  -5 50.6489 8.69024   1
  -2  -6  -5 47.0833 9.27619   2
   2   6   5 35.6354 7.19988   1
  -2  -6  -6 95.5089 11.8917   2
   2   6   6 90.8860 11.1373   1
  -2  -6  -6 87.8064 10.2835   1
  -2  -6  -7-11.7755 8.85967   2
  -2  -6  -7 4.37957 8.01866   1
   2   6   7 5.90273 7.13136   1
  -2  -6  -8 88.4226 13.8139   2
  -2  -6  -8 94.1386 12.8409   1
  -2  -6  -9-4.43063 11.3835   2
  -2  -6  -9 1.36929 11.3926   1
   2   6   9 19.0879 12.0428   1
  -2  -7  15 24.5641 8.53881   1
  -2  -7  15 39.9902 9.12556   1
   2   7 -15 35.9416 9.28054   2
  -2  -7  14 6.78823 7.08731   1
  -2  -7  14 1.76831 7.00854   1
   2   7 -14-3.18836 7.05874   2
  -2  -7  13 27.1707 7.38516   1
  -2  -7  13 1.87779 6.41666   1
   2   7 -13 17.6534 7.22695   2
  -2  -7  13-6.16423 6.76951   2
  -2  -7  12-3.38704 6.03726   1
   2   7 -12-6.03779 6.01547   2
  -2  -7  12-11.6311 6.06377   2
  -2  -7  12 0.32315 5.86606   1
   2   7 -11 33.7474 6.62746   2
  -2  -7  11 29.4815 6.66839   2
  -2  -7  11 33.5006 6.92951   1
  -2  -7  11 31.9601 6.75289   1
   2   7 -10 9.01416 5.53122   1
   2   7 -10 4.21779 4.98972   2
  -2  -7  10 9.28099 5.43845   2
  -2  -7  10 5.34462 5.18103   1
  -2  -7   9 73.7614 7.65385   2
   2   7  -9 71.7606 7.67251   2
  -2  -7   9 62.6097 7.46454   1
   2   7  -9 64.5998 7.44350   1
   2   7  -8 11.3275 5.19187   2
  -2  -7   8 4.21241 4.57482   2
  -2  -7   8 2.45428 4.28960   1
   2   7  -8 3.68822 4.71960   1
   2   7  -7 24.1106 5.56838   2
  -2  -7   7 28.2624 5.49673   2
  -2  -7   7 26.7877 5.58528   1
   2   7  -7 28.5937 6.10339   1
   2   7  -6 4.19250 4.55946   1
   2   7  -6 6.01501 4.44910   2
  -2  -7   6 2.25071 4.53105   2
  -2  -7   6 1.74881 4.32895   1
   2   7  -5 4.39523 4.42994   2
  -2  -7   5 10.2452 4.84938   1
  -2  -7   5 11.6779 5.32573   2
   2   7  -5 3.16619 4.47045   1
   2   7  -4 37.6691 6.50934   2
   2   7  -4 37.2181 6.54837   1
  -2  -7   4 44.3777 6.84365   1
  -2  -7   4 36.3215 5.99648   2
   2   7  -3-2.30110 5.02181   2
  -2  -7   3 0.10143 4.62302   1
  -2  -7   3 7.37825 4.76591   2
   2   7  -3 7.01279 5.06070   1
  -2  -7   2 4.44690 3.89506   1
   2   7  -2 2.44340 4.88422   2
   2   7  -2 1.78797 5.11652   1
  -2  -7   2-3.36223 5.41274   2
  -2  -7   1 161.845 11.0812   2
   2   7  -1 181.969 11.1893   2
  -2  -7   1 173.653 11.1390   1
   2   7  -1 187.628 11.6124   1
   2   7   0 30.8596 6.43503   2
   2   7   0 30.0774 6.90451   1
  -2  -7   0 44.3682 7.34828   1
  -2  -7   0 32.2879 6.62439   2
  -2  -7  -1 33.3083 7.01558   2
   2   7   1 43.3356 6.99184   1
  -2  -7  -1 30.2445 7.49419   1
  -2  -7  -2-4.13177 6.71044   2
   2   7   2-3.08722 5.30546   1
  -2  -7  -2 8.60452 6.78055   1
  -2  -7  -3 22.6956 8.52192   2
  -2  -7  -3 24.9961 8.47471   1
   2   7   3 16.0930 7.64467   1
  -2  -7  -4-1.56384 6.50805   2
  -2  -7  -4 20.6155 8.26026   1
   2   7   4 12.5083 7.97079   1
  -2  -7  -5 70.6611 11.1334   1
  -2  -7  -5 77.4646 11.5562   2
   2   7   5 84.2153 11.8204   1
  -2  -7  -6 96.4527 13.1590   1
   2   7   6 2.29341 7.94254   1
  -2  -7  -7 102.925 14.8769   2
  -2  -7  -7 54.2349 11.5875   1
  -2  -8  15 2.08181 4.43394   1
   2   8 -15 6.97972 4.90366   2
  -2  -8  15 6.83272 4.59444   1
  -2  -8  14 16.2308 8.37980   1
   2   8 -14 13.1891 8.75213   2
  -2  -8  14 23.1271 8.62217   1
   2   8 -13 9.35658 7.69807   2
  -2  -8  13 5.72026 7.77061   2
  -2  -8  13 4.18967 7.01253   1
  -2  -8  13-1.17942 7.70610   1
   2   8 -12 0.63860 7.19583   2
  -2  -8  12 0.17062 7.37443   2
  -2  -8  12-2.28716 6.60490   1
  -2  -8  12-7.16996 6.89482   1
   2   8 -11 43.7556 8.10147   2
   2   8 -11 58.6817 8.38825   1
  -2  -8  11 39.9778 8.43714   2
  -2  -8  11 48.9925 7.96710   1
   2   8 -10-5.48640 6.23253   2
  -2  -8  10 2.67823 6.06416   1
  -2  -8  10 5.11893 6.16530   2
   2   8 -10-5.10058 5.68093   1
   2   8  -9 26.1398 6.88286   1
   2   8  -9 27.3671 6.95668   2
  -2  -8   9 21.8853 6.75093   1
  -2  -8   9 32.5111 6.90876   2
   2   8  -8 30.7400 7.19597   2
  -2  -8   8 22.0838 6.64588   1
  -2  -8   8 31.5176 6.64053   2
   2   8  -8 22.6208 6.59586   1
   2   8  -7 14.8785 6.18612   1
   2   8  -7 5.35181 6.24827   2
  -2  -8   7 2.68731 5.18874   1
  -2  -8   7 13.2534 6.04382   2
   2   8  -6 14.6600 6.06033   2
  -2  -8   6 20.0544 5.98334   1
  -2  -8   6 6.37919 5.75892   2
   2   8  -6 14.8256 6.31055   1
   2   8  -5 72.7343 8.66107   2
  -2  -8   5 83.1196 9.14652   2
   2   8  -5 79.9983 8.97601   1
  -2  -8   5 89.5844 8.98299   1
   2   8  -4 19.8131 6.92018   2
  -2  -8   4 24.4292 6.87595   2
   2   8  -4 13.0025 5.88532   1
  -2  -8   4 20.9811 6.15946   1
   2   8  -3 96.2232 9.87504   1
  -2  -8   3 89.8618 9.63502   2
  -2  -8   3 87.6528 8.83241   1
   2   8  -3 92.4353 9.50206   2
   2   8  -2 211.307 12.8005   2
  -2  -8   2 206.535 13.2851   1
  -2  -8   2 197.627 13.2055   2
   2   8  -2 212.176 13.1387   1
   2   8  -1 3.76565 5.78665   2
  -2  -8   1-2.21989 6.07636   1
   2   8  -1 7.11810 6.42892   1
  -2  -8   1 1.87421 5.47757   2
   2   8   0 5.76747 7.04011   2
   2   8   0 9.03897 6.25551   1
  -2  -8   0-4.10549 6.03509   2
   2   8   1 5.66734 6.85032   1
  -2  -8  -1 11.4790 8.39905   2
  -2  -8  -1 10.8255 7.59314   1
  -2  -8  -2 51.0743 10.0127   2
  -2  -8  -2 56.9536 10.1629   1
   2   8   2 52.4006 9.43415   1
   2   8   3 8.40985 7.60089   1
  -2  -8  -3 26.7577 10.0243   2
  -2  -8  -3 24.7159 8.23936   1
  -2  -8  -4 54.6151 12.4850   1
   2   8   4 74.8854 11.6235   1
  -2  -8  -5-2.66913 9.37870   2
  -2  -8  -5 12.9470 9.20319   1
   2   8   5-1.91511 10.4978   1
  -2  -8  -6 17.5659 12.8003   1
  -2  -8  -6-15.6601 11.7993   2
   2   8   6-3.07724 10.8181   1
   2   9 -13 21.3189 10.4515   2
  -2  -9  13 9.10092 9.07190   2
  -2  -9  13 22.0705 9.61709   1
  -2  -9  12-1.35057 7.77890   1
  -2  -9  12 10.1821 8.41412   2
   2   9 -11 61.3389 10.4111   2
  -2  -9  11 49.7063 9.48996   1
  -2  -9  11 31.2839 9.26262   2
   2   9 -11 54.0648 9.84979   1
   2   9 -10-2.57501 8.22224   2
  -2  -9  10-10.4379 7.97772   1
   2   9 -10 15.4462 7.44954   1
  -2  -9  10-6.29638 7.39120   2
   2   9  -9 38.1347 8.22233   2
  -2  -9   9 51.7673 8.85008   1
  -2  -9   9 37.1911 8.70105   2
   2   9  -9 42.3510 8.76220   1
   2   9  -8 9.13343 7.14356   2
  -2  -9   8-13.2193 7.47887   1
   2   9  -8 12.1118 7.45295   1
  -2  -9   8 2.06354 7.28761   2
   2   9  -7 2.06167 6.72908   1
   2   9  -7 3.38700 7.26198   2
  -2  -9   7 7.24026 6.63870   1
  -2  -9   7 3.68747 7.32694   2
   2   9  -6-4.99239 6.29056   2
  -2  -9   6-5.92031 7.26517   2
  -2  -9   6-0.50307 6.09900   1
   2   9  -6-0.82821 6.96862   1
   2   9  -5 54.0929 9.41381   2
  -2  -9   5 51.5620 8.58775   2
   2   9  -5 39.9164 8.89378   1
  -2  -9   5 48.1777 8.72806   1
  -2  -9   4 12.3448 7.98950   1
   2   9  -4-1.32113 7.57120   2
  -2  -9   4 11.7540 7.77759   2
   2   9  -4 7.63464 7.38675   1
  -2  -9   3 5.97919 7.72857   1
   2   9  -3 2.16923 6.77113   2
  -2  -9   3-3.59518 6.50505   2
   2   9  -3 4.15421 7.56864   1
   2   9  -2-2.24887 7.75735   2
  -2  -9   2 8.29216 8.10739   2
   2   9  -2 15.1616 8.08368   1
  -2  -9   2-2.69069 7.54945   1
   2   9  -1 6.05051 8.64882   2
   2   9  -1 7.76919 6.69250   1
  -2  -9   1 13.2313 9.18243   2
  -2  -9   1 0.36809 8.38369   1
  -2  -9   0 7.94743 8.38819   2
   2   9   0 11.5563 7.43137   1
  -2  -9   0 1.07204 9.52982   1
   2   9   1-3.77725 7.78499   1
  -2  -9  -1 6.94734 10.5643   2
  -2  -9  -1 2.64422 9.73510   1
   2   9   2 4.68817 9.96515   1
  -2  -9  -2-20.3016 10.7711   2
  -2  -9  -2 13.5678 9.19515   1
   2   9   3 17.4937 12.1689   1
  -2  -9  -3 14.5531 9.72850   2
  -2  -9  -3-13.9605 11.6954   1
   2   9   4-12.7635 11.9965   1
  -2  -9  -4 7.48191 12.6432   2
  -2  -9  -4-0.27471 13.2451   1
  -2 -10  12 2.07855 8.82661   1
   2  10 -12 17.8859 9.83840   1
  -2 -10  12 17.9374 10.5222   2
  -2 -10  11 8.40195 9.28513   1
   2  10 -11 4.57937 10.4546   2
  -2 -10  11 6.99607 9.91764   2
   2  10 -11-8.58844 9.45027   1
   2  10 -10 18.4049 9.02298   1
  -2 -10  10 22.1875 9.07153   1
   2  10 -10 8.48211 9.98827   2
  -2 -10  10 15.6445 8.95968   2
  -2 -10   9 8.47358 8.01326   1
   2  10  -9 9.55117 9.85539   2
  -2 -10   9 4.89851 8.86874   2
   2  10  -9 18.2091 9.30159   1
  -2 -10   8 31.6795 9.23431   1
   2  10  -8 35.1245 10.8096   2
   2  10  -8 26.4149 9.23527   1
  -2 -10   8 27.0635 10.2479   2
   2  10  -7 31.4836 10.1466   1
  -2 -10   7 19.6155 9.18857   1
   2  10  -7 20.1775 9.21283   2
  -2 -10   7 44.3214 10.4637   2
  -2 -10   6 12.8237 7.94049   1
   2  10  -6 4.21771 8.57859   2
  -2 -10   6-10.8600 9.08345   2
   2  10  -6 4.20639 8.67733   1
  -2 -10   5 10.6010 8.74276   1
   2  10  -5 31.0425 9.23878   2
  -2 -10   5 34.7500 10.7073   2
   2  10  -5 10.4450 8.16853   1
   2  10  -4 12.2730 8.57673   2
  -2 -10   4 12.5917 8.57299   2
   2  10  -4-0.75925 8.57345   1
  -2 -10   4-3.35473 9.05588   1
   2  10  -3 0.94457 9.69907   2
  -2 -10   3 4.15665 9.91778   2
   2  10  -3 3.74527 8.38935   1
  -2 -10   3 13.6288 9.89121   1
   2  10  -2 19.8562 11.3870   2
   2  10  -2 5.71814 9.92494   1
  -2 -10   2-0.08096 10.0721   2
  -2 -10   2 22.1312 9.26400   1
   2  10  -1 12.9091 9.14977   1
   2  10  -1 14.8703 9.62670   2
  -2 -10   1 19.4596 9.27988   2
  -2 -10   1 10.4825 10.6884   1
   2  10   0 9.16950 10.5773   1
  -2 -10   0-22.9600 12.8345   1
  -2 -10   0-14.3906 13.0156   2
  -2 -10  -1 51.1950 15.0540   2
  -2 -10  -1 50.3759 14.5974   1
  -2 -11   9 13.3410 8.05051   1
   2  11  -9-19.2563 9.62407   2
  -2 -11   8 2.89871 11.2701   1
   2  11  -8 29.0910 11.8942   1
   2  11  -8 17.1740 12.7210   2
  -2 -11   8 33.3393 11.5197   2
  -2 -11   7 6.72341 11.5229   1
   2  11  -7-13.0806 10.5214   1
   2  11  -7 5.64918 10.8735   2
  -2 -11   7 13.2354 11.3501   2
   2  11  -6 12.6229 11.1983   2
  -2 -11   6 3.36778 10.2625   2
   2  11  -6-5.83763 11.1787   1
  -2 -11   6-7.41225 11.0959   1
   2  11  -5 28.2360 12.6920   2
  -2 -11   5-3.24237 11.8262   2
   2  11  -5 6.14486 12.3158   1
  -2 -11   5 22.6107 12.4998   1
   2  11  -4-11.7570 12.6561   2
  -2 -11   4 21.3188 13.6741   2
   2  11  -4-8.12297 11.8573   1
  -2 -11   4 14.0063 12.2976   1
   2  11  -3 9.82172 12.4466   2
  -2 -11   3 1.62543 12.7737   2
   2  11  -3 9.50634 10.9179   1
  -2 -11   3-15.0835 10.0838   1
   3 -11   3 15.3096 6.34949   1
  -3  11  -3 22.1533 7.44209   2
  -3  11  -3 3.50978 5.81708   1
   3 -11   3 12.5422 7.88935   2
   3 -11   4 25.8963 7.14908   1
  -3  11  -4 23.6476 9.08216   2
  -3  11  -4 22.4627 7.20198   1
   3 -11   5 16.6843 5.55566   1
  -3  11  -5 35.7800 8.88851   2
   3 -11   5 27.9118 8.66258   2
  -3  11  -5 4.75177 4.91671   1
  -3  10   2 22.9395 11.9433   1
  -3  10   2 3.17590 10.8724   2
   3 -10  -2 11.8624 9.86711   1
   3 -10  -2 10.1358 11.0505   2
  -3  10   1 13.4170 10.2863   1
  -3  10   1 4.95226 9.78366   2
   3 -10  -1 0.53441 10.5890   1
   3 -10  -1 21.3836 10.8449   2
   3 -10   0-5.03520 10.0747   1
  -3  10   0-0.34767 8.82523   1
  -3  10   0 9.54114 10.3217   2
   3 -10   0-3.04184 9.42321   2
  -3  10  -1 6.24330 8.20793   1
  -3  10  -1 16.8230 10.1302   2
   3 -10   1 4.19268 10.1291   2
   3 -10   1-3.08313 8.92577   1
   3 -10   2 22.8758 8.19059   1
  -3  10  -2 21.4100 9.26203   2
  -3  10  -2 4.39205 8.02434   1
   3 -10   2 16.0976 8.57776   2
   3 -10   3 6.96646 6.97732   1
  -3  10  -3 2.65150 8.87835   2
  -3  10  -3 9.10923 7.53428   1
   3 -10   3-9.04527 9.43009   2
   3 -10   4-8.33949 6.66499   1
  -3  10  -4 8.33712 9.17283   2
  -3  10  -4 1.70233 6.65851   1
   3 -10   4-8.13983 9.93588   2
   3 -10   5-7.70213 6.08719   1
  -3  10  -5-5.30317 10.4130   2
   3 -10   5-5.90651 10.7553   2
  -3  10  -5 5.66731 6.36940   1
  -3  10  -6-3.90768 5.44684   1
   3 -10   6-1.66434 5.31986   1
  -3  10  -6-2.83931 9.73386   2
   3 -10   6 12.8340 10.3445   2
  -3  10  -7 8.91116 4.38440   1
  -3  10  -7 9.80809 10.2836   2
   3 -10   7 12.2283 10.1755   2
   3 -10   7 8.69844 4.41652   1
  -3  10  -8 7.73703 1.72798   1
  -3  10  -8 0.86981 13.0631   2
   3 -10   8 10.1326 10.1717   2
  -3  10  -9 13.4279 12.9278   2
   3 -10   9-19.0833 11.4167   2
  -3   9   5-3.42904 8.91484   2
  -3   9   5 23.1499 10.5602   1
   3  -9  -5 24.1958 12.2726   1
   3  -9  -5 0.97933 8.86178   2
  -3   9   4 5.09091 9.07439   1
   3  -9  -4-4.57642 11.8247   1
  -3   9   4 24.0552 9.55998   2
   3  -9  -4 2.83369 9.66272   2
  -3   9   3 8.10856 9.97921   1
   3  -9  -3 4.88023 10.0920   1
  -3   9   3-2.95046 8.55698   2
   3  -9  -3 27.9985 9.39699   2
  -3   9   2-10.0094 7.60077   1
   3  -9  -2 1.65668 7.75610   1
  -3   9   2-4.52576 8.18292   2
  -3   9   1-15.0439 8.16067   1
   3  -9  -1 10.3055 8.79921   1
  -3   9   1 4.06030 7.90761   2
   3  -9  -1 3.37414 7.57702   2
  -3   9   0-1.21475 7.48116   1
   3  -9   0-1.29893 7.45846   1
  -3   9   0 7.82001 7.93575   2
   3  -9   0 1.37687 7.59703   2
  -3   9  -1 12.8720 6.96815   1
   3  -9   1 14.1979 6.64162   1
   3  -9   1 13.1200 8.09083   2
  -3   9  -1 12.2561 7.72000   2
   3  -9   2 10.1676 5.96866   1
  -3   9  -2 4.53908 6.02647   1
  -3   9  -2-4.63162 7.76743   2
   3  -9   2 6.86679 7.53214   2
   3  -9   3 16.5876 5.94486   1
  -3   9  -3 24.3490 6.23820   1
  -3   9  -3 18.8620 8.20941   2
   3  -9   3 12.1821 7.73625   2
   3  -9   4 0.08302 5.15049   1
  -3   9  -4-5.16562 7.97535   2
  -3   9  -4 1.19026 4.71812   1
   3  -9   4-1.00522 7.73289   2
   3  -9   5 9.95791 4.98421   1
  -3   9  -5 0.84237 8.35044   2
  -3   9  -5 6.44148 4.57496   1
   3  -9   5-2.62233 7.46651   2
   3  -9   6-3.38798 4.14541   1
  -3   9  -6-8.58023 8.13257   2
   3  -9   6-10.4022 9.12154   2
  -3   9  -6 8.36497 4.21404   1
  -3   9  -7 1.43508 2.87807   1
  -3   9  -7 0.15124 8.17995   2
   3  -9   7-11.3976 9.71552   2
   3  -9   7-1.58367 2.82941   1
  -3   9  -8 17.6806 11.0088   2
   3  -9   8 20.2283 9.10874   2
  -3   9  -9 22.5001 11.8819   2
   3  -9   9 14.0147 10.9272   2
  -3   9 -10 18.4797 12.1211   2
  -3   9 -11-5.92070 10.7964   2
   3  -8  -7-10.2389 10.3518   1
   3  -8  -7-10.1907 8.66523   2
  -3   8   7 20.0249 13.4632   1
   3  -8  -6 30.3570 11.0536   1
   3  -8  -6 19.9611 7.81311   2
  -3   8   6-1.95732 9.33743   1
   3  -8  -5 21.0579 10.4404   1
  -3   8   5-0.73069 7.75520   2
   3  -8  -5 4.31791 7.01972   2
  -3   8   5-4.19544 9.97580   1
   3  -8  -4 27.1196 10.1232   1
  -3   8   4 28.4805 7.83782   2
   3  -8  -4 23.4730 7.69434   2
  -3   8   4 9.92527 9.16009   1
   3  -8  -3 0.20487 6.54326   1
  -3   8   3 3.71073 6.60169   2
   3  -8  -3 10.5931 6.55602   2
  -3   8   3 3.06958 8.13482   1
   3  -8  -2-0.56851 7.06397   1
  -3   8   2-0.38390 6.09011   2
  -3   8   2-9.28214 6.81814   1
  -3   8   1 45.9657 8.11285   2
   3  -8  -1 31.1356 7.43791   2
  -3   8   1 50.6889 8.29241   1
   3  -8  -1 36.3155 7.99634   1
   3  -8   0 4.17779 6.10923   1
  -3   8   0 1.20909 5.74914   2
   3  -8   0-0.10729 6.07514   2
  -3   8   0 6.06491 5.89903   1
   3  -8   1 40.0927 7.74001   2
  -3   8  -1 59.0195 7.42022   1
  -3   8  -1 40.0678 7.34292   2
   3  -8   1 39.6943 6.75353   1
  -3   8  -2-5.79036 5.04388   1
   3  -8   2-4.91954 5.04125   1
  -3   8  -2 3.81327 5.58733   2
   3  -8   2-1.49196 5.54544   2
   3  -8   3 22.8419 5.24768   1
  -3   8  -3 24.4362 5.63324   1
  -3   8  -3 22.8344 6.93026   2
   3  -8   3 28.5782 7.35625   2
   3  -8   4 8.58439 4.12963   1
  -3   8  -4 12.6490 4.24186   1
  -3   8  -4 1.20336 6.05517   2
   3  -8   4-2.95322 6.32575   2
   3  -8   5 53.1131 8.84998   2
  -3   8  -5 31.7078 7.20898   2
  -3   8  -5 40.4676 4.90379   1
   3  -8   5 33.0911 4.72089   1
  -3   8  -6-4.74248 7.59067   2
   3  -8   6 8.79274 6.37981   2
  -3   8  -6 2.82378 2.92287   1
   3  -8   6 3.33745 3.09389   1
  -3   8  -7 13.1867 8.36155   2
  -3   8  -7 4.24970 1.30615   1
   3  -8   7 9.63270 8.28864   2
  -3   8  -8 8.32088 7.25756   2
   3  -8   8 8.87431 7.54121   2
  -3   8  -9 0.45035 7.84417   2
  -3   8 -10 8.83674 10.5287   2
  -3   8 -11-6.50545 9.14898   2
  -3   8 -12 34.9729 11.1462   2
   3  -7  -8 36.6053 10.6360   1
   3  -7  -8 23.9439 8.01836   2
  -3   7   8 8.96991 10.4950   1
   3  -7  -7-8.98393 9.67597   1
   3  -7  -7-0.96813 6.35184   2
  -3   7   7 19.1281 9.93874   1
   3  -7  -6 19.5162 9.25840   1
   3  -7  -6 23.7383 7.11810   2
  -3   7   6 43.3525 10.8076   1
  -3   7   5 29.4343 6.92953   2
   3  -7  -5 35.1718 9.25224   1
   3  -7  -5 22.7081 6.20041   2
  -3   7   5 17.5849 7.99405   1
   3  -7  -4-12.7823 6.96283   1
  -3   7   4 5.21855 5.53737   2
   3  -7  -4-0.54679 5.32405   2
  -3   7   4-11.5294 7.76566   1
   3  -7  -3 25.4398 6.15643   2
   3  -7  -3 15.9282 6.24028   1
  -3   7   3 18.2923 5.79901   2
  -3   7   3 5.35252 6.45142   1
  -3   7   2 53.6655 7.46023   1
   3  -7  -2 60.4929 7.12790   2
  -3   7   2 57.0086 7.22882   2
   3  -7  -2 53.1934 7.52895   1
  -3   7   1 39.2582 6.39872   2
   3  -7  -1 37.1622 6.47175   2
   3  -7  -1 33.3131 6.39692   1
  -3   7   1 26.9775 6.34907   1
   3  -7   0 5.88492 5.11907   1
  -3   7   0-8.51377 5.09320   2
   3  -7   0-1.31509 4.35224   2
  -3   7   0-4.34761 4.82464   1
   3  -7   1 4.44842 4.45996   1
  -3   7  -1 0.57462 4.95023   2
   3  -7   1-0.13919 4.75155   2
  -3   7  -1 5.61035 4.30173   1
  -3   7  -2 194.416 11.3970   2
   3  -7   2 198.236 11.2272   2
  -3   7  -2 211.617 10.0641   1
   3  -7   2 179.139 9.33401   1
  -3   7  -3 169.648 10.9670   2
   3  -7   3 145.127 9.91811   2
  -3   7  -3 137.239 7.71372   1
   3  -7   3 160.693 8.28708   1
   3  -7   4 13.5009 3.76334   1
  -3   7  -4 17.2677 3.86214   1
  -3   7  -4 10.9778 5.28162   2
   3  -7   4 24.7723 5.94710   2
  -3   7  -5 59.3702 7.65841   2
   3  -7   5 59.8650 8.46705   2
  -3   7  -5 61.7045 4.68712   1
   3  -7   5 57.9073 4.65413   1
  -3   7  -6 1.75775 1.77302   1
  -3   7  -6-5.25651 6.53169   2
   3  -7   6 4.92206 6.20692   2
  -3   7  -6 2.61759 1.87971   1
  -3   7  -7 7.27306 6.42005   2
   3  -7   7 11.0809 5.93208   2
  -3   7  -8 20.3027 8.08216   2
  -3   7  -9-14.7530 8.30350   2
  -3   7 -10 25.7510 8.37630   2
  -3   7 -11 9.11951 8.66256   2
  -3   7 -12-6.48852 9.64989   2
  -3   7 -13 22.6240 13.7269   2
   3  -6 -10-2.40199 11.6208   1
   3  -6 -10 10.5545 7.49078   2
  -3   6  10-9.29954 12.8226   1
   3  -6  -9-0.78350 6.21824   2
   3  -6  -9-1.11598 10.9784   1
  -3   6   9-4.18582 8.99995   1
   3  -6  -8 2.53793 8.96324   1
   3  -6  -8 3.91008 6.13255   2
  -3   6   8 5.70013 9.99859   1
   3  -6  -7 26.7566 7.92929   1
   3  -6  -7 19.2612 5.65722   2
  -3   6   7 19.1777 8.75678   1
   3  -6  -6-0.13503 5.90593   1
   3  -6  -6 0.42153 4.28166   2
  -3   6   6-11.0178 7.69449   1
  -3   6   5 37.8161 5.75889   2
   3  -6  -5 29.7450 7.10186   1
   3  -6  -5 37.0967 5.62671   2
  -3   6   5 47.2148 8.33075   1
  -3   6   4 35.5708 5.67280   2
  -3   6   4 41.6736 6.93716   1
   3  -6  -4 37.1874 5.52039   2
   3  -6  -4 44.3492 7.85788   1
  -3   6   3 65.8050 7.76575   1
  -3   6   3 65.8272 6.43199   2
   3  -6  -3 63.8899 6.38145   2
   3  -6  -3 68.3477 7.86032   1
   3  -6  -2 0.62935 4.65809   1
  -3   6   2-3.93736 4.13048   2
   3  -6  -2 3.06678 3.85651   2
  -3   6   2 1.40260 4.10936   1
   3  -6  -1 18.9068 4.87858   1
  -3   6   1 10.9383 4.41606   2
   3  -6  -1 12.4906 4.37322   2
  -3   6   1 14.9456 5.19647   1
  -3   6   0 180.274 9.66492   1
  -3   6   0 162.394 9.12906   2
   3  -6   0 182.526 9.58179   1
   3  -6   0 178.734 9.37966   2
  -3   6  -1 193.553 9.34585   1
   3  -6   1 210.447 10.2030   2
  -3   6  -1 186.046 9.89470   2
   3  -6   1 193.217 9.33902   1
  -3   6  -2 67.6722 6.79685   2
  -3   6  -2 69.6587 5.73022   1
   3  -6   2 66.9694 6.62708   2
   3  -6   2 70.4343 5.82318   1
  -3   6  -3 23.4087 3.84154   1
   3  -6   3 32.1759 5.55654   2
  -3   6  -3 25.6570 5.29511   2
   3  -6   3 21.3454 3.74730   1
  -3   6  -4 32.1007 5.95041   2
  -3   6  -4 42.8578 3.99860   1
   3  -6   4 35.6690 5.85715   2
   3  -6   4 39.8188 4.02868   1
  -3   6  -5 114.070 9.20426   2
  -3   6  -5 113.134 4.74778   1
  -3   6  -5 117.882 4.87652   1
   3  -6   5 117.900 8.98556   2
  -3   6  -6 35.7060 6.22151   2
   3  -6   6 42.2527 6.88171   2
  -3   6  -7-5.29661 6.00969   2
  -3   6  -8 26.2455 7.43816   2
  -3   6  -9 71.3822 9.79293   2
  -3   6 -10 23.9194 9.33635   2
  -3   6 -11 35.7144 9.98677   2
  -3   6 -12 11.6314 9.04598   2
  -3   6 -13 13.9804 10.8309   2
   3  -5 -11 3.28531 6.61676   2
  -3   5  11 8.53592 10.3421   1
   3  -5 -10 10.8899 10.2297   1
   3  -5 -10-2.38001 5.63527   2
  -3   5  10-0.08320 8.94133   1
   3  -5  -9 5.80305 9.27830   1
   3  -5  -9 1.50684 4.76065   2
  -3   5   9 3.61971 9.56702   1
   3  -5  -8-7.01187 6.54049   1
   3  -5  -8-1.03203 4.29854   2
  -3   5   8-2.69830 7.35402   1
   3  -5  -7 8.31606 5.98723   1
   3  -5  -7 11.0668 4.29415   2
  -3   5   7 13.8773 7.06777   1
   3  -5  -6 13.1516 6.59533   1
   3  -5  -6 5.26687 3.54276   2
  -3   5   6 3.70740 4.90231   1
   3  -5  -5 1.83901 5.72148   1
  -3   5   5 8.96110 3.76155   2
   3  -5  -5 1.51220 3.40466   2
  -3   5   5 4.38131 5.11095   1
   3  -5  -4 17.6110 5.77731   1
  -3   5   4 6.60979 3.56032   2
   3  -5  -4 5.74560 3.22758   2
  -3   5   4 10.5669 4.50310   1
   3  -5  -3 5.72562 4.95001   1
  -3   5   3 4.67066 3.36788   2
   3  -5  -3 1.76280 3.27083   2
  -3   5   3-2.14585 4.37863   1
   3  -5  -2 13.4131 4.10765   1
  -3   5   2 9.57340 3.42867   2
  -3   5   2 13.7594 4.10547   1
   3  -5  -2 12.6492 3.47205   2
  -3   5   1 92.7751 6.53547   2
   3  -5  -1 90.5003 6.23247   2
   3  -5  -1 95.3546 7.08955   1
  -3   5   1 89.0704 6.85357   1
  -3   5   0 204.159 9.14243   2
   3  -5   0 206.496 9.07868   2
   3  -5   0 223.309 9.73140   1
  -3   5   0 210.927 9.34575   1
  -3   5  -1 125.356 6.99266   1
   3  -5   1 124.413 7.45069   2
  -3   5  -1 127.290 7.62276   2
   3  -5   1 142.861 7.51520   1
  -3   5  -2 3.95527 3.81135   2
  -3   5  -2 2.80235 2.64531   1
   3  -5   2-1.04670 3.81742   2
   3  -5   2 1.60367 2.74459   1
  -3   5  -3 4.86704 3.69096   2
   3  -5   3 4.42833 4.09594   2
  -3   5  -3 4.98601 2.57945   1
   3  -5   3 3.91747 2.44150   1
  -3   5  -4 6.63243 4.55158   2
   3  -5   4-3.03414 4.07323   2
  -3   5  -4 4.28772 2.13270   1
  -3   5  -4 5.67541 2.22482   1
  -3   5  -5 12.6806 1.71912   1
  -3   5  -5 16.0521 1.80175   1
  -3   5  -5 5.77646 4.21546   2
  -3   5  -6 25.1467 5.56317   2
  -3   5  -7 38.9988 6.96949   2
  -3   5  -8-4.86111 5.39432   2
  -3   5  -9 37.2734 8.16823   2
  -3   5 -10 9.14376 7.81809   2
  -3   5 -11 15.7472 8.64741   2
  -3   5 -12 7.82345 8.20481   2
  -3   5 -13 9.38182 10.1938   2
   3  -4 -12 28.8559 6.29003   2
   3  -4 -12 22.2368 11.0011   1
   3  -4 -11 18.2150 5.47958   2
  -3   4  11 6.53535 10.8333   1
   3  -4 -11 18.6724 10.6573   1
  -3   4  10 91.3835 11.8757   1
   3  -4 -10 79.4440 6.31523   2
   3  -4 -10 70.4576 10.1766   1
   3  -4  -9-1.07214 3.73026   2
  -3   4   9-4.11544 7.43251   1
   3  -4  -9-7.51797 6.66858   1
   3  -4  -8 14.9378 6.72205   1
   3  -4  -8 8.28331 3.45689   2
  -3   4   8 0.62929 6.91200   1
   3  -4  -7 24.5458 3.79474   2
  -3   4   7 26.1496 7.17994   1
   3  -4  -7 28.9259 6.26283   1
   3  -4  -6 36.2047 3.88339   2
   3  -4  -6 39.9685 7.27128   1
  -3   4   6 41.8085 6.26961   1
   3  -4  -5 22.4359 5.47635   1
   3  -4  -5 14.6581 3.11326   2
  -3   4   5 16.8838 3.20731   2
  -3   4   5 12.2248 5.42997   1
  -3   4   4 51.5874 4.36841   2
   3  -4  -4 51.7264 4.21395   2
   3  -4  -4 47.4955 6.45467   1
  -3   4   4 48.8156 5.89239   1
  -3   4   3 152.792 6.63776   2
   3  -4  -3 139.886 6.30020   2
   3  -4  -3 147.409 8.76940   1
  -3   4   3 145.420 8.69851   1
   3  -4  -2 0.75543 3.07837   1
  -3   4   2 1.84126 2.48143   2
  -3   4   2 4.48497 3.21148   1
   3  -4  -2 3.68886 2.48895   2
  -3   4   1 128.426 6.51982   2
   3  -4  -1 134.224 6.54372   2
   3  -4  -1 130.276 7.49084   1
  -3   4   1 132.323 7.56752   1
  -3   4   0 4.27647 2.85590   1
  -3   4   0 2.58354 2.77193   2
   3  -4   0 1.95709 2.71226   2
   3  -4   0 0.36905 2.75650   1
  -3   4  -1 18.8840 3.67575   2
   3  -4   1 18.2035 3.73748   2
   3  -4   1 25.2564 3.65439   1
  -3   4  -1 19.5130 3.31826   1
  -3   4  -2 6.62792 2.52561   1
  -3   4  -2 6.16850 3.45457   2
   3  -4   2 6.26760 3.28532   2
  -3   4  -3 12.0057 2.42087   1
  -3   4  -3 5.42678 3.66637   2
  -3   4  -3 11.0933 2.40186   1
  -3   4  -4 0.20754 1.56708   1
  -3   4  -4 2.05292 3.12470   2
  -3   4  -4 0.43070 1.61220   1
  -3   4  -5 14.3341 1.40867   1
  -3   4  -5 13.5462 4.60814   2
  -3   4  -5 13.9016 1.36053   1
  -3   4  -6 221.370 11.2669   2
  -3   4  -7 190.950 11.2958   2
  -3   4  -8 34.7430 6.62721   2
  -3   4  -9 5.29235 6.42164   2
  -3   4 -10 13.9048 6.39439   2
  -3   4 -11 13.5332 6.85556   2
  -3   4 -12 11.0750 9.18236   2
  -3   4 -13 14.0721 10.6412   2
  -3   4 -14 32.1193 13.0081   2
   3  -3 -13 5.73719 4.91831   2
   3  -3 -13-0.51805 4.81461   2
   3  -3 -13 4.51956 11.6397   1
   3  -3 -12 3.77433 4.32209   2
  -3   3  12-1.99879 10.1913   1
   3  -3 -12-3.72413 4.18741   2
   3  -3 -12-0.49287 10.3522   1
   3  -3 -11 8.16216 3.60161   2
  -3   3  11 1.39491 7.23655   1
   3  -3 -11 7.46134 9.14043   1
   3  -3 -10-1.91949 2.92900   2
  -3   3  10 2.23106 7.73913   1
   3  -3 -10 2.60234 6.50728   1
   3  -3  -9 2.64223 5.87303   1
   3  -3  -9 0.35635 2.55780   2
  -3   3   9 1.74773 5.39940   1
   3  -3  -8 3.77738 6.09972   1
  -3   3   8-2.65195 5.21480   1
   3  -3  -8 0.27050 2.20737   2
   3  -3  -7 1.57129 4.30023   1
  -3   3   7 5.89029 5.30208   1
   3  -3  -7 0.65711 1.97187   2
  -3   3   6-1.74682 4.79918   1
   3  -3  -6 1.23120 1.83228   2
   3  -3  -6-2.97876 4.60657   1
   3  -3  -5 23.7464 2.55996   2
   3  -3  -5 28.7309 4.97816   1
  -3   3   5 27.4140 5.30847   1
  -3   3   4 72.6081 3.91728   2
   3  -3  -4 68.5493 3.73757   2
   3  -3  -4 74.7890 6.86384   1
  -3   3   4 61.6929 6.22651   1
  -3   3   3 20.2035 2.68428   2
   3  -3  -3 16.2776 2.47638   2
  -3   3   3 13.9281 3.99460   1
   3  -3  -3 17.4148 3.92749   1
  -3   3   2 8.37864 3.66883   1
  -3   3   2 4.46014 2.22149   2
   3  -3  -2 4.35070 2.05728   2
   3  -3  -2 2.46294 2.83947   1
  -3   3   1 171.903 6.53280   2
   3  -3  -1 187.384 8.30751   1
  -3   3   1 184.032 8.13825   1
   3  -3  -1 179.951 6.60376   2
  -3   3   0 10.7603 3.07932   1
  -3   3   0 9.88412 2.68512   2
   3  -3   0 7.14407 2.56727   2
  -3   3  -1 318.522 9.78144   2
  -3   3  -1 306.016 9.04687   1
  -3   3  -1 318.922 9.32798   1
  -3   3  -2 121.150 6.68001   2
  -3   3  -2 129.689 5.72818   1
  -3   3  -2 128.317 5.71182   1
  -3   3  -3 131.719 7.32086   2
  -3   3  -3 136.442 5.28289   1
  -3   3  -3 133.832 5.26569   1
  -3   3  -4 35.6030 2.68255   1
  -3   3  -4 33.6601 4.95719   2
  -3   3  -4 35.6187 2.73895   1
  -3   3  -5 4.02811 1.15153   1
  -3   3  -5 5.59972 1.19176   1
  -3   3  -5 5.14758 3.56527   2
  -3   3  -6-3.28386 4.34618   2
  -3   3  -7 41.9520 6.52955   2
  -3   3  -8 30.1694 6.72308   2
  -3   3  -9 15.0145 6.89452   2
  -3   3 -10-3.12316 7.51502   2
  -3   3 -11 7.59337 6.75091   2
  -3   3 -12 1.59653 9.66224   2
  -3   3 -13 12.0155 11.1079   2
  -3   3 -14 18.9390 11.9427   2
   3  -2 -14 24.0491 4.21676   2
   3  -2 -14 20.5048 4.12292   2
  -3   2  14 28.1742 12.1006   1
  -3   2  13 3.09359 9.90018   1
   3  -2 -13 2.71097 3.43624   2
   3  -2 -13 9.47684 10.6817   1
   3  -2 -12 9.20617 3.13358   2
  -3   2  12 5.93143 7.91190   1
   3  -2 -12 2.74049 2.90356   2
   3  -2 -12 19.1190 9.02082   1
   3  -2 -11 1.65562 2.29528   2
  -3   2  11 8.96354 6.13913   1
   3  -2 -11 4.70261 2.39302   2
   3  -2 -11-3.27840 6.46815   1
   3  -2 -10 105.173 4.20940   2
   3  -2 -10 107.955 4.22966   2
   3  -2 -10 116.436 10.6793   1
  -3   2  10 121.980 10.7220   1
   3  -2  -9 11.4461 1.75131   2
   3  -2  -9 8.37894 1.64606   2
  -3   2   9 5.14002 6.08444   1
   3  -2  -9 15.8177 6.65490   1
  -3   2   8-5.66717 5.38581   1
   3  -2  -8 0.53075 1.00638   2
   3  -2  -8-0.92517 3.99154   1
   3  -2  -7 10.8118 1.05712   2
  -3   2   7 10.0274 4.75280   1
   3  -2  -7 11.2818 4.23494   1
   3  -2  -6 12.5237 0.98561   2
  -3   2   6 17.9744 4.32843   1
   3  -2  -6 18.8338 5.14715   1
   3  -2  -5 6.83455 0.91915   2
  -3   2   5 3.46128 3.88185   1
  -3   2   4-3.53649 3.81850   1
  -3   2   4 0.40481 0.94472   2
   3  -2  -4-4.82771 3.85078   1
  -3   2   3 67.3664 3.10801   2
   3  -2  -3 65.7663 5.88243   1
  -3   2   3 60.7133 5.65076   1
  -3   2   2 21.7110 2.40356   2
  -3   2   2 25.1431 3.93201   1
  -3   2   1 144.845 6.95066   1
  -3   2   1 134.364 5.24385   2
  -3   2   1 136.348 6.80288   1
  -3   2   0 225.139 7.26710   2
  -3   2   0 246.614 8.49298   1
  -3   2   0 239.238 8.37725   1
  -3   2  -1 127.569 6.09846   2
  -3   2  -1 128.072 5.94516   1
  -3   2  -1 127.842 5.93472   1
  -3   2  -2 267.180 9.18413   2
  -3   2  -2 256.272 7.62986   1
  -3   2  -2 261.102 7.73927   1
  -3   2  -3 597.042 10.7433   1
  -3   2  -3 552.903 13.8989   2
  -3   2  -3 597.543 10.8250   1
  -3   2  -4 28.3664 4.44621   2
  -3   2  -4 36.5140 2.90587   1
  -3   2  -4 34.6599 2.89572   1
  -3   2  -5 138.138 8.42449   2
  -3   2  -5 154.902 4.85754   1
  -3   2  -5 163.481 5.02369   1
  -3   2  -6 39.1455 2.46681   1
  -3   2  -6 30.6827 5.72359   2
  -3   2  -6 39.5047 2.50931   1
  -3   2  -7 34.3665 5.84407   2
  -3   2  -7 38.4720 2.09980   1
  -3   2  -7 35.4731 1.95662   1
  -3   2  -8 334.320 14.6378   2
  -3   2  -9 5.72661 6.37289   2
  -3   2 -10 93.5907 10.2173   2
  -3   2 -11-2.45748 6.96445   2
  -3   2 -12 0.53634 8.17106   2
  -3   2 -13-11.5399 12.1367   2
  -3   1  14-10.4299 11.7578   1
   3  -1 -14 10.5722 2.92730   2
   3  -1 -13 18.5172 2.78141   2
   3  -1 -13 12.4319 2.72164   2
  -3   1  12 7.85636 6.40248   1
   3  -1 -12 0.96897 1.80148   2
   3  -1 -12 2.31455 7.81834   1
  -3   1  11 2.98119 6.58259   1
   3  -1 -11-0.12157 1.11844   2
  -3   1  10 3.68283 6.34996   1
   3  -1 -10-1.55155 4.87298   1
  -3   1   9 7.45005 5.72726   1
   3  -1  -9 16.8041 6.17938   1
   3  -1  -8 54.4187 7.15659   1
  -3   1   8 49.1641 6.24372   1
  -3   1   7-6.22823 4.60469   1
   3  -1  -7-0.55633 3.91422   1
  -3   1   6 2.63799 3.64457   1
  -3   1   5 9.44218 4.06764   1
   3  -1  -5 271.274 11.2275   1
  -3   1   4 137.138 7.75641   1
  -3   1   4 125.041 7.39987   1
  -3   1   3 5.64988 1.00286   2
  -3   1   3 5.59114 3.23221   1
  -3   1   3 6.51636 2.77122   1
  -3   1   2 315.351 6.33672   2
  -3   1   2 328.753 10.6679   1
  -3   1   2 325.720 10.4502   1
  -3   1   1 14.7354 3.25630   1
  -3   1   1 12.1062 3.19905   1
  -3   1   1 11.8247 2.13266   2
  -3   1   0 3.04273 2.42581   1
  -3   1   0 1.21020 1.90140   2
  -3   1   0 2.42202 2.20518   1
  -3   1  -1 29.1882 3.39035   1
  -3   1  -1 24.8436 3.27584   2
  -3   1  -1 26.3750 3.33382   1
  -3   1  -2 6.73547 2.28544   1
  -3   1  -2 5.23316 2.69561   2
   3  -1   3 76.4346 4.41015   1
  -3   1  -3 76.4782 5.78244   2
  -3   1  -3 73.6422 4.43736   1
   3  -1   4 0.66606 1.88847   1
  -3   1  -4 3.81459 2.03037   1
  -3   1  -4 6.93450 3.49988   2
  -3   1  -5 419.026 9.24646   1
   3  -1   5 396.871 9.11278   1
  -3   1  -6 341.896 8.41917   1
   3  -1   6 340.389 8.35336   1
  -3   1  -7 125.921 5.37418   1
  -3   1  -7 119.791 9.21736   2
   3  -1   7 124.237 5.34074   1
   3  -1   8 37.7612 3.44006   1
  -3   1  -8 30.5250 6.45444   2
  -3   1  -8 41.7529 3.50672   1
   3  -1   9 193.596 6.62836   1
  -3   1  -9 202.091 12.6890   2
  -3   1  -9 189.146 6.55096   1
   3  -1  10 16.3744 3.07730   1
  -3   1 -10 20.4097 3.23338   1
   3  -1  11-0.97148 2.66949   1
  -3   1 -11 2.43739 2.61853   1
  -3   1 -11-5.91891 8.84290   2
  -3   1 -12 3.09187 2.72362   1
   3  -1  12 3.08585 2.67209   1
  -3   1 -12 2.44949 8.43408   2
  -3   1 -13 12.0602 12.2117   2
  -3   1 -13 1.57240 2.38445   1
   3   0 -15 0.98862 2.33889   2
  -3   0  15-7.96987 11.1761   1
  -3   0  14-9.43521 9.14359   1
   3   0 -14-0.76052 2.09950   2
  -3   0  14-1.35185 8.86144   1
  -3   0  13 3.82551 7.59648   1
  -3   0  13 10.4192 8.86651   1
   3   0 -13 2.68270 1.61783   2
  -3   0  12 107.154 11.2481   1
   3   0 -12 91.2784 2.38227   2
  -3   0  12 114.738 10.8501   1
  -3   0  11 30.1148 6.99730   1
  -3   0  11 34.2524 7.97739   1
  -3   0  10-0.05568 5.82272   1
  -3   0  10 5.20622 5.78055   1
  -3   0   9-1.65029 4.15391   1
  -3   0   9 5.96256 4.75227   1
  -3   0   8 408.193 15.0967   1
  -3   0   8 427.602 15.2464   1
  -3   0   7 115.918 8.30585   1
  -3   0   7 128.940 8.45368   1
  -3   0   6 44.3220 5.10032   1
  -3   0   6 42.1420 5.05156   1
  -3   0   5 7.48631 3.58817   1
  -3   0   5 10.2409 3.81600   1
  -3   0   4-0.06905 3.22720   1
  -3   0   4-2.16347 3.35917   1
  -3   0   3 30.9637 1.66544   2
  -3   0   3 33.8840 1.79055   2
  -3   0   3 40.1716 4.66607   1
  -3   0   3 31.2962 4.32475   1
  -3   0   2 2.66465 2.74472   1
  -3   0   2 3.64878 1.50279   2
  -3   0   2 4.19488 2.60490   1
  -3   0   1 2.68498 2.68709   1
  -3   0   0 0.91109 2.22806   1
   3   0   0 3.26062 2.30368   1
  -3   0  -1 423.610 10.9332   1
   3   0   1 435.749 11.0570   1
   3   0   2 4.74374 2.50480   1
  -3   0  -2 0.21491 2.30210   1
   3   0   3 79.6715 5.02715   1
  -3   0  -3 87.2548 5.23159   1
   3   0   4 41.8437 4.01448   1
  -3   0  -4 41.0413 3.97516   1
   3   0   5 116.815 5.97620   1
  -3   0  -5 122.245 6.10490   1
  -3   0  -6 121.368 6.31852   1
   3   0   6 116.760 6.17649   1
  -3   0  -7 67.6197 5.17975   1
   3   0   7 66.6141 5.04384   1
  -3   0  -8 5.13753 3.10335   1
   3   0   8 3.30315 3.24338   1
  -3   0  -9 2.59164 3.38243   1
   3   0   9 4.50894 3.40604   1
   3   0  10 29.5700 4.89214   1
  -3   0 -10 24.9718 4.78092   1
  -3   0 -11 17.0914 4.78028   1
   3   0  11 21.7034 4.95213   1
   3   0  12 47.8984 6.28765   1
  -3   0 -12 39.1794 5.99394   1
  -3   0 -13 4.36704 5.48081   1
   3   0  13 12.7193 5.82107   1
  -3  -1  15 2.15816 10.6733   1
   3   1 -15 10.9387 2.53379   2
  -3  -1  15 17.5129 11.3501   1
  -3  -1  14 3.86134 8.88156   1
   3   1 -14 6.72564 2.15926   2
  -3  -1  14 8.14987 9.06500   1
  -3  -1  13-7.91713 7.66190   1
   3   1 -13 0.27611 1.37246   2
  -3  -1  13-4.41848 8.02926   1
  -3  -1  12 0.49723 6.68613   1
  -3  -1  12-1.11326 5.98942   1
  -3  -1  11 45.2408 7.93611   1
  -3  -1  11 48.4641 7.09626   1
  -3  -1  10 282.569 13.8451   1
  -3  -1  10 273.304 13.5496   1
  -3  -1   9 69.4538 7.72931   1
  -3  -1   9 62.2726 6.89876   1
  -3  -1   8 8.94806 3.85355   1
  -3  -1   8 7.20303 3.87132   1
  -3  -1   7 15.5117 4.72245   1
  -3  -1   7 15.4284 4.67795   1
  -3  -1   6 3.39144 3.15480   1
  -3  -1   6 5.02212 3.61768   1
  -3  -1   5 503.130 14.4773   1
  -3  -1   5 493.468 14.4944   1
  -3  -1   4 249.689 4.15216   2
  -3  -1   4 237.228 9.96270   1
  -3  -1   4 245.369 10.0433   1
  -3  -1   3 18.4578 2.03145   2
  -3  -1   3 22.9111 3.61552   1
   3   1  -2 4.12175 3.11744   1
  -3  -1   2 3.67121 1.79396   2
  -3  -1   2 5.52055 3.23965   1
  -3  -1   1 121.074 5.44416   2
  -3  -1   1 116.207 6.51928   1
   3   1  -1 122.466 6.82194   1
   3   1   0 46.9412 4.43920   1
  -3  -1   0 42.9012 4.44663   1
   3   1   1 182.793 7.81485   1
  -3  -1  -1 176.347 7.78814   1
   3   1   2 21.7833 3.52466   1
  -3  -1  -2 22.9261 3.57280   1
  -3  -1  -3-1.87871 2.68973   1
   3   1   3 2.19339 2.68690   1
   3   1   4 18.0972 3.64528   1
  -3  -1  -4 14.2879 3.37497   1
  -3  -1  -5 6.79612 3.20618   1
   3   1   5 7.66041 3.19556   1
   3   1   6 79.8419 6.11932   1
  -3  -1  -6 72.5054 5.81563   1
   3   1   7 8.35048 3.84636   1
  -3  -1  -7 7.67367 3.84489   1
   3   1   8 4.97826 4.27911   1
  -3  -1  -8 3.44729 3.97926   1
   3   1   9 6.56899 4.62227   1
  -3  -1  -9 9.88592 4.69738   1
   3   1  10 0.59088 4.89906   1
  -3  -1 -10-3.89887 4.97147   1
  -3  -1 -11 6.60288 5.61848   1
   3   1  11 1.32360 5.91064   1
   3   1  12 46.3888 7.77740   1
  -3  -1 -12 38.0414 7.47965   1
  -3  -2  15-1.25206 9.89034   1
   3   2 -15-3.06729 3.09109   2
  -3  -2  15 10.6298 8.85470   1
   3   2 -14-0.75468 2.36352   2
  -3  -2  14-3.17655 8.16321   1
   3   2 -14-3.62001 2.37344   2
  -3  -2  14 5.79789 8.36722   1
  -3  -2  13-2.98582 7.07170   1
   3   2 -13 0.03704 1.93162   2
  -3  -2  13-8.16572 7.15796   1
   3   2 -12 10.3320 1.81462   2
  -3  -2  12-0.96349 6.83561   1
  -3  -2  12 13.7656 6.58591   1
   3   2 -11 7.73670 1.16275   2
   3   2 -11 6.71536 1.28553   2
  -3  -2  11 3.35444 5.19395   1
  -3  -2  11 3.23117 5.01168   1
  -3  -2  10 83.2076 8.47397   1
  -3  -2  10 83.4879 8.66244   1
  -3  -2   9 5.60600 4.62572   1
  -3  -2   9 4.19773 4.47462   1
  -3  -2   8 15.7971 4.37435   1
  -3  -2   8 22.0351 5.33317   1
  -3  -2   7 6.65983 4.34646   1
  -3  -2   7 11.3169 3.99840   1
  -3  -2   6 23.0897 1.51880   2
  -3  -2   6 26.4615 4.79012   1
  -3  -2   6 29.9266 4.64635   1
  -3  -2   5 315.796 5.99586   2
  -3  -2   5 310.048 11.8233   1
   3   2  -4 351.755 12.1833   1
  -3  -2   4 357.235 7.46440   2
  -3  -2   4 366.138 12.4594   1
  -3  -2   3 360.262 8.40193   2
  -3  -2   3 346.585 11.9164   1
   3   2  -3 339.452 11.7141   1
  -3  -2   2 76.1055 5.85121   1
  -3  -2   2 73.0944 4.58235   2
   3   2  -2 70.2421 5.58821   1
  -3  -2   1 32.5090 3.69624   2
   3   2  -1 27.8416 4.14114   1
  -3  -2   1 34.5200 4.62256   1
  -3  -2   0 9.61452 2.95308   1
   3   2   0 5.50226 2.84471   1
  -3  -2   0 5.14506 2.88996   2
   3   2   1 5.92292 3.28096   1
  -3  -2  -1-1.22654 2.82552   2
  -3  -2  -1 1.83857 2.79698   1
  -3  -2  -2 302.091 11.2915   2
   3   2   2 297.544 10.7988   1
  -3  -2  -2 288.098 10.6771   1
  -3  -2  -3 28.2927 5.01312   2
   3   2   3 28.3164 4.53353   1
  -3  -2  -3 31.2496 4.48717   1
   3   2   4 221.607 9.85185   1
  -3  -2  -4 211.597 9.63029   1
  -3  -2  -5 42.1271 5.32293   1
   3   2   5 39.2647 5.38701   1
   3   2   6 7.56614 4.23176   1
  -3  -2  -6 4.95600 3.90330   1
   3   2   7-0.04116 4.24893   1
  -3  -2  -7 0.53991 4.38935   1
  -3  -2  -8 12.6184 7.43838   2
   3   2   8 2.39520 4.87486   1
  -3  -2  -8 2.70306 4.70292   1
  -3  -2  -9 5.41721 6.60219   2
   3   2   9 4.84397 5.38715   1
  -3  -2  -9 2.13590 5.18987   1
  -3  -2 -10-6.31707 7.91158   2
   3   2  10 4.53650 5.95127   1
  -3  -2 -10-5.91938 6.68999   1
   3   2  11-0.82183 7.14778   1
  -3  -2 -11-0.25477 7.26254   1
  -3  -2 -11-3.23512 11.9161   2
  -3  -2 -12 19.3980 4.83826   1
   3   2  12 20.0683 4.97600   1
  -3  -3  15 12.2248 8.79898   1
  -3  -3  15 13.7194 8.60011   1
   3   3 -15 13.0769 3.80304   2
  -3  -3  14 25.4152 9.72103   1
  -3  -3  14 11.8606 8.71046   1
   3   3 -14 15.6738 3.66701   2
  -3  -3  13 9.91311 6.68750   1
  -3  -3  13 13.0485 7.32818   1
   3   3 -13 0.46876 2.71949   2
  -3  -3  12 21.5686 7.01943   1
  -3  -3  12 16.5943 6.74499   1
   3   3 -12 6.19294 2.52247   2
   3   3 -11 33.0375 3.06254   2
  -3  -3  11 30.6118 6.98061   1
  -3  -3  11 29.6560 7.21278   1
   3   3 -10 58.8595 3.49847   2
  -3  -3  10 69.7715 7.98306   1
  -3  -3  10 61.4318 7.84553   1
  -3  -3   9 11.7930 5.42897   1
  -3  -3   9 14.2484 4.72575   1
   3   3  -9 19.0488 2.40820   2
   3   3  -8 19.6002 2.34235   2
  -3  -3   8 19.9728 2.31471   2
  -3  -3   8 18.7582 4.64647   1
  -3  -3   8 29.2513 5.86702   1
   3   3  -7 0.55154 1.74016   2
  -3  -3   7-1.44885 1.80476   2
   3   3  -6 4.02739 1.92683   2
  -3  -3   6 2.45775 1.90753   2
  -3  -3   6 7.29300 4.28437   1
   3   3  -5 4.34082 3.58475   1
  -3  -3   5 2.95116 2.06725   2
  -3  -3   5 0.76026 3.60974   1
  -3  -3   4 14.3310 2.77838   2
   3   3  -4 20.5484 4.71299   1
  -3  -3   4 18.3287 4.57697   1
  -3  -3   3 3.42922 3.52049   1
  -3  -3   3 3.32668 2.38429   2
   3   3  -3 7.08321 3.83103   1
   3   3  -2 93.3621 7.01824   1
  -3  -3   2 101.291 5.99347   2
  -3  -3   2 101.775 7.33595   1
  -3  -3   1 54.2757 4.99723   2
   3   3  -1 56.7221 5.72852   1
  -3  -3   1 51.6134 5.60687   1
  -3  -3   0 8.14217 3.47550   2
  -3  -3   0 4.43213 3.55832   1
   3   3   0 3.11850 3.72023   1
  -3  -3  -1 38.9154 5.24715   2
   3   3   1 31.3217 4.98864   1
  -3  -3  -1 30.9837 5.04298   1
  -3  -3  -2 68.2469 6.56151   2
   3   3   2 77.8068 6.66655   1
  -3  -3  -2 76.2177 6.40750   1
  -3  -3  -3 224.840 11.2053   2
   3   3   3 212.786 10.3967   1
  -3  -3  -3 230.075 10.7583   1
  -3  -3  -4 8.82729 4.12977   1
  -3  -3  -4 11.5911 5.29971   2
   3   3   4 11.6428 4.41882   1
  -3  -3  -5 21.2793 5.97368   2
   3   3   5 14.2779 5.04038   1
  -3  -3  -5 22.3303 5.25159   1
  -3  -3  -6 3.49837 6.39804   2
   3   3   6 4.81019 5.10858   1
  -3  -3  -6 3.06748 5.06078   1
  -3  -3  -7 9.53864 7.34705   2
   3   3   7 3.70323 5.27252   1
  -3  -3  -7 16.9542 6.02580   1
  -3  -3  -8 64.2035 9.89066   2
  -3  -3  -8 65.1624 8.55474   1
   3   3   8 75.9615 8.44404   1
  -3  -3  -9 85.0162 12.7608   2
   3   3   9 73.5457 9.26303   1
  -3  -3  -9 72.4706 8.98151   1
   3   3  10 132.891 11.7690   1
  -3  -3 -10 151.675 12.5767   1
  -3  -3 -11 91.9736 15.5803   2
  -3  -3 -11 77.5832 11.2782   1
   3   3  11 65.1373 10.5418   1
  -3  -4  15 6.57054 8.85902   1
   3   4 -15 5.52229 4.66720   2
  -3  -4  15 6.74101 9.47064   1
  -3  -4  14 8.13487 8.11946   1
   3   4 -14-1.48214 4.04280   2
  -3  -4  14-5.03222 8.08312   1
  -3  -4  13 9.87314 7.00442   1
   3   4 -13-1.14439 3.85658   2
  -3  -4  13 4.24621 6.99293   1
  -3  -4  12-2.31259 6.08213   1
   3   4 -12 3.30606 3.45975   2
  -3  -4  12-4.06522 6.20076   1
  -3  -4  11-4.96994 5.75344   1
   3   4 -11 7.38238 3.14394   2
  -3  -4  11 2.90046 5.82627   1
   3   4 -10 43.6370 4.23417   2
  -3  -4  10 46.3431 7.23794   1
  -3  -4  10 60.5627 7.42527   1
   3   4  -9 113.522 5.83002   2
  -3  -4   9 120.903 9.68027   1
  -3  -4   9 110.985 5.64717   2
  -3  -4   9 104.189 8.93499   1
   3   4  -8-2.53970 2.47044   2
  -3  -4   8-3.92353 2.75048   2
  -3  -4   8-2.25521 4.63191   1
   3   4  -7 202.885 7.52232   2
  -3  -4   7 216.391 11.3411   1
   3   4  -7 213.174 11.2472   1
  -3  -4   7 223.967 7.75603   2
   3   4  -6 10.5580 4.45333   1
  -3  -4   6 16.1338 4.69788   1
  -3  -4   6 8.39720 2.94417   2
   3   4  -6 10.1840 3.04214   2
   3   4  -5-2.02049 3.66401   1
   3   4  -5 6.00950 2.84098   2
  -3  -4   5 3.67187 4.21003   1
  -3  -4   5 2.64755 2.63544   2
  -3  -4   4 15.8937 4.85244   1
   3   4  -4 13.5001 3.40689   2
  -3  -4   4 17.0538 3.57253   2
   3   4  -4 15.5254 4.21472   1
  -3  -4   3 306.217 10.4462   2
   3   4  -3 302.122 12.3939   1
  -3  -4   3 309.236 12.2821   1
  -3  -4   2 43.2718 4.98956   2
   3   4  -2 50.7347 5.79699   1
  -3  -4   2 48.9032 5.51921   1
  -3  -4   1 52.3223 5.82076   2
   3   4  -1 51.3822 6.16258   1
  -3  -4   1 59.0345 6.06913   1
  -3  -4   0 6.33035 3.98178   2
  -3  -4   0 1.55388 4.13996   1
   3   4   0 4.33803 3.77672   1
  -3  -4  -1 108.220 7.91594   1
   3   4   1 102.927 8.21770   1
  -3  -4  -1 110.822 8.34551   2
  -3  -4  -2 101.548 8.07461   2
   3   4   2 96.1455 8.10981   1
  -3  -4  -2 98.1608 8.12362   1
  -3  -4  -3 76.2192 7.64772   2
  -3  -4  -3 79.6241 7.65407   1
   3   4   3 72.4272 7.26494   1
  -3  -4  -4 4.25696 5.81967   2
   3   4   4-3.08561 4.72795   1
  -3  -4  -4-2.99918 5.08106   1
  -3  -4  -5 26.4409 7.16907   2
   3   4   5 23.7224 6.45426   1
  -3  -4  -5 19.9130 6.41872   1
  -3  -4  -6 111.868 11.4322   2
  -3  -4  -6 97.6683 9.36319   1
   3   4   6 92.7996 9.16905   1
   3   4   7-5.23068 6.84937   1
  -3  -4  -7 7.77299 6.90505   2
  -3  -4  -7-9.22646 6.26188   1
   3   4   8-5.03765 7.09421   1
  -3  -4  -8 14.0248 9.38871   2
  -3  -4  -8-4.35975 7.48448   1
   3   4   9 7.59563 8.09695   1
  -3  -4  -9 8.74339 11.1118   2
  -3  -4  -9 7.69799 8.18730   1
   3   4  10 3.83548 9.69268   1
  -3  -4 -10 0.63786 13.0055   2
  -3  -4 -10 20.0096 10.2195   1
  -3  -5  15 3.17086 9.26233   1
   3   5 -15 0.85844 5.62260   2
  -3  -5  14-14.0698 7.77926   1
   3   5 -14 1.54631 4.96801   2
  -3  -5  14-12.1247 7.63042   1
  -3  -5  13 4.83785 7.49319   1
   3   5 -13 5.47336 4.47828   2
  -3  -5  13 5.95252 7.22075   1
  -3  -5  12-1.34565 6.65466   1
   3   5 -12 3.18951 4.11811   2
  -3  -5  12 8.25119 6.45404   1
   3   5 -11 14.2103 4.21687   2
  -3  -5  11 11.7638 6.39444   1
  -3  -5  10 26.3815 4.35864   2
   3   5 -10 20.0748 4.31128   2
  -3  -5  10 15.2071 5.58658   1
  -3  -5  10 19.9738 6.40540   1
   3   5  -9 5.51960 3.44746   2
  -3  -5   9 1.47663 4.60138   1
  -3  -5   9 4.26096 3.26688   2
   3   5  -8 34.3971 4.55291   2
   3   5  -8 43.0002 6.76770   1
  -3  -5   8 44.2864 4.95211   2
  -3  -5   8 42.0325 6.84027   1
  -3  -5   7 14.9108 4.85877   1
   3   5  -7 13.7728 3.90351   2
  -3  -5   7 12.1094 3.64942   2
   3   5  -7 17.0386 5.61059   1
   3   5  -6 34.2077 4.70600   2
  -3  -5   6 31.4045 4.38542   2
   3   5  -6 23.9092 5.73054   1
  -3  -5   6 32.3294 5.98506   1
  -3  -5   5 3.98767 4.13730   1
   3   5  -5-0.53064 3.28816   2
  -3  -5   5 2.57636 3.25328   2
   3   5  -5 5.27332 4.25216   1
   3   5  -4 5.29206 3.72579   2
   3   5  -4-1.27784 4.33023   1
  -3  -5   4 3.51241 3.76474   2
  -3  -5   4-2.15669 4.42487   1
  -3  -5   3 478.824 14.4880   2
   3   5  -3 470.143 16.0153   1
  -3  -5   3 470.156 15.9467   1
  -3  -5   2 227.847 10.6440   2
   3   5  -2 229.325 11.5630   1
  -3  -5   2 243.705 12.1003   1
  -3  -5   1-0.17186 3.75928   2
  -3  -5   1 2.33373 3.76854   1
   3   5  -1 4.05668 4.44132   1
   3   5   0 214.823 11.6202   1
  -3  -5   0 220.292 11.2492   2
  -3  -5   0 226.784 12.0166   1
  -3  -5  -1 6.93137 5.13339   1
  -3  -5  -1 4.42680 4.63219   2
   3   5   1 2.10913 3.98768   1
  -3  -5  -2 0.26485 5.41279   1
  -3  -5  -2-0.38015 5.48964   2
   3   5   2 4.15683 5.34197   1
  -3  -5  -3 18.9504 6.55729   1
  -3  -5  -3 19.6240 7.28445   2
   3   5   3 15.3547 6.46902   1
  -3  -5  -4 37.1485 7.36171   2
  -3  -5  -4 38.5541 7.83422   1
   3   5   4 36.1700 7.61903   1
   3   5   5 6.45364 7.00328   1
  -3  -5  -5-4.00741 6.12892   2
  -3  -5  -5-6.89968 6.57779   1
   3   5   6 37.4745 8.63009   1
  -3  -5  -6 38.3046 10.2367   2
  -3  -5  -6 35.8078 8.45104   1
   3   5   7 1.01327 7.45000   1
  -3  -5  -7 4.35380 9.21360   2
  -3  -5  -7 14.7378 8.25203   1
   3   5   8 5.48814 9.07836   1
  -3  -5  -8 23.6070 11.0642   2
  -3  -5  -8 22.3873 9.21424   1
   3   5   9 42.9171 11.0206   1
  -3  -5  -9 26.1869 10.1363   1
  -3  -6  15 18.6055 10.5929   1
   3   6 -15 26.3164 7.34427   2
  -3  -6  15 17.0418 9.80278   1
  -3  -6  14 18.4468 8.40769   1
   3   6 -14 18.1275 6.74137   2
  -3  -6  14 20.6065 9.26825   1
   3   6 -13 21.4655 6.16201   2
  -3  -6  13 29.2191 8.76470   1
   3   6 -12 32.7709 5.90791   2
  -3  -6  12 27.4149 7.47138   1
  -3  -6  12 43.4547 8.90622   1
  -3  -6  11 4.19769 6.52437   1
   3   6 -11 4.70827 4.82561   2
  -3  -6  11 13.0913 5.34496   2
  -3  -6  11 7.83591 7.05089   1
   3   6 -10 51.0241 6.25841   2
  -3  -6  10 50.3427 6.26167   2
  -3  -6  10 39.6578 7.05649   1
  -3  -6   9 8.43557 5.13899   1
   3   6  -9 4.04676 4.49770   2
  -3  -6   9 1.69262 4.04821   2
   3   6  -9 2.03196 5.03645   1
   3   6  -8 1.38358 4.63849   1
  -3  -6   8-4.38608 5.40880   1
   3   6  -8-0.11287 3.96125   2
  -3  -6   8 0.11013 3.85999   2
  -3  -6   7 11.9369 5.14317   1
   3   6  -7 5.94064 4.54915   1
   3   6  -7 7.46237 4.32027   2
  -3  -6   7 17.9844 4.67002   2
   3   6  -6 4.58082 4.16898   2
  -3  -6   6-5.55887 4.27399   2
   3   6  -6 4.03093 5.38341   1
  -3  -6   6-0.89910 4.43115   1
   3   6  -5 322.633 12.7429   2
  -3  -6   5 348.596 13.1529   2
   3   6  -5 322.968 14.4022   1
  -3  -6   5 326.964 14.6203   1
   3   6  -4 89.1460 7.64933   2
  -3  -6   4 77.5638 7.50549   2
   3   6  -4 90.4094 8.82113   1
  -3  -6   4 86.7746 8.19797   1
   3   6  -3 59.5497 6.87529   2
  -3  -6   3 67.2441 7.06739   2
   3   6  -3 55.7038 7.48647   1
  -3  -6   3 55.3106 7.18925   1
  -3  -6   2-2.39074 4.23710   2
  -3  -6   2 5.06630 4.79734   1
   3   6  -2 5.92396 5.17138   1
   3   6  -1 23.8559 5.87557   1
  -3  -6   1 21.5125 5.31057   1
  -3  -6   1 24.8549 5.92604   2
  -3  -6   0 13.4349 6.06334   1
  -3  -6   0 13.1260 6.18641   2
   3   6   0 13.7738 5.31565   1
  -3  -6  -1-2.35641 6.03298   1
  -3  -6  -1 0.75240 6.24943   2
   3   6   1 5.39830 6.32870   1
  -3  -6  -2 17.0866 5.92409   1
  -3  -6  -2 6.22032 5.77420   2
   3   6   2 15.4411 7.06444   1
  -3  -6  -3 30.1545 8.28526   2
   3   6   3 27.8092 7.81293   1
  -3  -6  -3 29.1397 8.06408   1
   3   6   4 20.1000 8.20322   1
  -3  -6  -4 24.4781 8.49033   2
  -3  -6  -4 24.8911 7.34187   1
   3   6   5 21.5149 8.79566   1
  -3  -6  -5 9.55362 8.58581   2
  -3  -6  -5 8.48581 8.59632   1
   3   6   6 8.79683 9.45289   1
  -3  -6  -6 9.11055 10.1652   2
  -3  -6  -6 13.7000 9.01588   1
   3   6   7 0.23326 10.2272   1
  -3  -6  -7-8.18539 11.9968   2
  -3  -6  -7-11.6494 10.9874   1
  -3  -7  14-8.69619 10.0670   1
   3   7 -14-1.32033 7.66440   2
  -3  -7  13 5.79034 9.20614   1
  -3  -7  13 9.25728 8.93762   1
   3   7 -13 8.81138 6.56645   2
  -3  -7  12-6.15680 8.40095   1
   3   7 -12-1.89353 6.20903   2
  -3  -7  12-6.34744 5.86812   2
  -3  -7  12-1.82601 7.47605   1
  -3  -7  11-0.82780 6.92365   1
   3   7 -11 7.01306 5.67814   2
  -3  -7  11 5.62345 5.45312   2
   3   7 -10-0.06248 6.82572   1
   3   7 -10 13.3559 6.37828   2
  -3  -7  10 10.0584 5.67582   2
  -3  -7  10 8.62275 6.79301   1
   3   7  -9-7.62308 6.89030   1
   3   7  -9 1.64209 5.19407   2
  -3  -7   9 0.53185 5.28421   2
  -3  -7   9-1.57479 6.31807   1
   3   7  -8 3.39045 4.99258   2
   3   7  -8 4.74063 5.35224   1
  -3  -7   8 1.08459 4.93998   2
  -3  -7   8 6.54822 5.62302   1
   3   7  -7 5.27206 5.10359   2
  -3  -7   7 5.86862 4.84705   2
  -3  -7   7 0.41287 6.00529   1
   3   7  -7 12.5732 6.70986   1
   3   7  -6 37.7888 6.58798   2
  -3  -7   6 16.4455 6.06400   2
   3   7  -6 30.1808 6.76848   1
  -3  -7   6 23.8830 7.10535   1
  -3  -7   5 204.787 11.7812   2
   3   7  -5 184.312 11.2389   2
   3   7  -5 189.653 12.0978   1
  -3  -7   5 176.724 12.4389   1
   3   7  -4 5.83913 5.35486   2
  -3  -7   4 4.28326 5.30243   2
  -3  -7   4 6.24644 6.27610   1
   3   7  -4 2.11260 5.60548   1
   3   7  -3 100.817 9.72139   2
  -3  -7   3 104.077 9.34497   2
   3   7  -3 96.8535 9.94988   1
  -3  -7   3 100.521 9.75779   1
  -3  -7   2 8.71326 6.10100   1
  -3  -7   2-0.89938 5.88932   2
   3   7  -2 3.50219 6.62163   1
  -3  -7   1 16.1026 7.36480   1
  -3  -7   1 5.46300 5.73764   2
   3   7  -1-0.96051 7.11089   1
   3   7   0 35.7612 7.80150   1
  -3  -7   0 41.6631 7.67277   2
  -3  -7   0 32.0318 8.26129   1
  -3  -7  -1 15.5688 7.87820   1
  -3  -7  -1 7.85182 7.94163   2
   3   7   1 7.08359 6.18936   1
  -3  -7  -2 121.008 12.2004   2
  -3  -7  -2 108.821 11.8894   1
   3   7   2 116.900 11.9770   1
   3   7   3 22.3051 8.78167   1
  -3  -7  -3 3.39382 9.50639   2
  -3  -7  -3 9.31386 8.60478   1
   3   7   4 3.46098 9.39482   1
  -3  -7  -4 22.0172 10.5873   2
  -3  -7  -4 13.7489 10.1051   1
   3   7   5 9.18905 9.63518   1
  -3  -7  -5 47.1256 12.2525   2
  -3  -7  -5 34.3237 11.2946   1
   3   7   6 1.35354 10.9931   1
  -3  -7  -6 33.5158 14.9024   2
  -3  -7  -6 39.9550 13.5176   1
   3   8 -13-4.46883 8.71707   2
  -3  -8  13 11.1947 8.25597   2
  -3  -8  13 3.33098 9.44458   1
  -3  -8  13 6.05619 10.3692   1
   3   8 -12 9.41996 8.10504   2
  -3  -8  12-15.8001 7.71884   2
  -3  -8  12-1.10922 8.45765   1
  -3  -8  12-3.38760 9.12603   1
   3   8 -11 18.7153 7.71551   2
  -3  -8  11 5.95919 7.12406   2
  -3  -8  11 7.82214 7.84545   1
   3   8 -10-2.44297 7.23709   2
   3   8 -10 19.6602 8.49168   1
  -3  -8  10 6.14571 6.65369   2
  -3  -8  10 5.22976 7.60647   1
   3   8  -9 3.08789 6.59234   2
  -3  -8   9 3.39461 6.29420   2
   3   8  -9 7.16353 8.25175   1
  -3  -8   9 1.46164 7.68708   1
   3   8  -8 0.67376 6.50087   1
   3   8  -8-1.63967 6.37699   2
  -3  -8   8-4.53761 6.38881   2
  -3  -8   8 3.30862 6.13608   1
   3   8  -7 2.89276 6.60559   2
  -3  -8   7 0.43696 6.17576   2
  -3  -8   7-3.11881 7.29799   1
   3   8  -7 8.54523 7.46412   1
   3   8  -6 41.2627 8.25892   2
   3   8  -6 42.8828 8.83089   1
  -3  -8   6 30.6565 7.49333   1
  -3  -8   6 23.4726 6.91473   2
   3   8  -5 3.63191 6.22073   1
   3   8  -5 13.2056 7.06418   2
  -3  -8   5 12.7133 7.75619   1
  -3  -8   5 11.7475 6.85008   2
   3   8  -4 6.02412 7.02800   2
  -3  -8   4-4.13178 6.89396   1
  -3  -8   4 2.43141 6.44956   2
   3   8  -4-8.67024 7.33990   1
   3   8  -3 1.83071 6.48256   2
  -3  -8   3 7.83905 6.34930   1
  -3  -8   3 5.10885 6.67920   2
   3   8  -3 7.79817 7.72623   1
  -3  -8   2 15.0236 7.38091   1
  -3  -8   2 9.53245 8.13758   2
   3   8  -2 18.5860 8.12829   1
  -3  -8   1 0.50621 8.13617   1
  -3  -8   1-1.51165 6.66656   2
   3   8  -1 1.38616 7.12059   1
  -3  -8   0 14.4443 7.55349   1
  -3  -8   0 24.3046 9.02404   2
   3   8   0 11.5098 7.42287   1
  -3  -8  -1 19.4783 8.46335   2
   3   8   1 17.5181 8.65393   1
  -3  -8  -1 18.7289 9.51610   1
  -3  -8  -2 82.1575 12.2719   2
  -3  -8  -2 89.8110 13.4805   1
   3   8   2 106.323 14.0741   1
   3   8   3-9.75528 11.6937   1
  -3  -8  -3-1.62367 11.5959   2
  -3  -8  -3 12.8950 9.04058   1
  -3  -8  -4 100.629 15.6562   1
  -3  -8  -4 57.7019 14.5040   2
   3   9 -12 12.7791 9.89919   2
  -3  -9  12 6.46646 10.4037   1
  -3  -9  12-0.99250 9.44027   2
   3   9 -11-1.07936 9.42374   2
   3   9 -11 3.67302 9.90637   1
  -3  -9  11 7.75393 8.95067   1
  -3  -9  11 2.83261 8.93672   2
   3   9 -10-9.48862 8.85738   2
  -3  -9  10-12.8359 10.4751   1
  -3  -9  10-1.73849 8.25161   2
   3   9 -10 3.13661 9.81060   1
   3   9  -9 9.85544 8.90071   1
   3   9  -9 25.7335 9.16694   2
  -3  -9   9 28.7915 10.3497   1
  -3  -9   9 10.8747 7.93528   2
   3   9  -8-6.94481 8.02848   2
  -3  -9   8-15.6253 9.85211   1
  -3  -9   8-3.24459 7.76890   2
   3   9  -8 2.38065 7.90316   1
   3   9  -7 14.4472 8.63646   2
  -3  -9   7 17.6329 9.85419   1
   3   9  -7-1.85727 8.05963   1
  -3  -9   7-12.3058 7.53602   2
   3   9  -6 27.1896 9.79265   1
   3   9  -6 9.47299 7.85784   2
  -3  -9   6 8.85080 7.49064   1
  -3  -9   6 36.7026 9.09504   2
   3   9  -5 13.5706 7.79373   1
   3   9  -5 4.26116 7.60800   2
  -3  -9   5-3.30313 8.94666   1
  -3  -9   5 3.35380 8.52488   2
  -3  -9   4 14.4545 9.62453   1
   3   9  -4 13.4629 8.32237   2
  -3  -9   4 15.1704 9.56583   2
   3   9  -4 3.16969 8.78142   1
   3   9  -3-9.60241 7.97625   2
  -3  -9   3-5.46336 8.54720   1
  -3  -9   3 3.75021 8.15322   2
   3   9  -3 1.89376 7.78398   1
  -3  -9   2 19.7381 10.0277   1
  -3  -9   2 13.2485 10.0236   2
   3   9  -2 12.2799 10.3052   1
  -3  -9   1-3.17392 9.03146   2
   3   9  -1 2.82032 9.48598   1
  -3  -9   1-11.9749 10.3761   1
  -3  -9   0 11.0177 11.1078   2
   3   9   0 5.30693 11.2738   1
  -3  -9   0 24.2125 11.6600   1
   3   9   1 112.005 15.7397   1
  -3  -9  -1 93.8282 14.8196   2
  -3  -9  -1 93.7295 13.8716   1
  -3  -9  -2 79.9337 15.0715   2
   3   9   2 72.0243 13.8215   1
  -3  -9  -2 61.7246 12.9966   1
   3  10 -10 19.9764 7.98043   2
  -3 -10  10 31.1008 8.42454   1
  -3 -10  10 39.0109 9.16986   2
   3  10 -10 43.3442 10.1007   1
   3  10  -9-9.01546 11.4479   1
   3  10  -9-3.31941 10.4636   2
  -3 -10   9-11.7950 10.8041   1
  -3 -10   9 2.91536 10.5685   2
   3  10  -8 12.3990 10.6655   2
  -3 -10   8 16.1362 12.1475   1
  -3 -10   8-0.66585 11.1259   2
  -3 -10   7-1.97221 11.3609   1
   3  10  -7 2.04604 10.8993   2
   3  10  -7 37.3545 10.4887   1
  -3 -10   7 9.05322 9.82653   2
  -3 -10   6-7.08742 11.3290   1
   3  10  -6-3.60644 12.2545   1
   3  10  -6-3.17889 9.38515   2
  -3 -10   6-0.84142 10.8709   2
   3  10  -5 8.11288 11.7067   1
  -3 -10   5-3.21439 10.1166   1
   3  10  -5 5.57349 11.2370   2
  -3 -10   5 1.74779 9.89598   2
  -3 -10   4 17.5540 11.9329   1
   3  10  -4-8.66921 12.7076   2
  -3 -10   4-6.75002 11.2237   2
   3  10  -4-12.2933 11.8455   1
  -3 -10   3 5.33088 12.1966   1
  -3 -10   3 26.3438 11.5648   2
   3  10  -3 29.9608 11.2808   1
  -3 -10   2 39.8386 12.4205   2
   3  10  -2 8.96630 11.5654   1
  -3 -10   2 22.2137 11.5606   1
  -3 -10   1 20.4649 8.09829   2
   4 -10   2 17.1681 6.92820   1
  -4  10  -2 15.7303 7.01481   1
  -4  10  -2 14.8802 7.58983   2
   4 -10   2 24.4470 8.50161   2
   4 -10   3 2.91288 7.34767   1
  -4  10  -3-4.05747 6.80272   1
  -4  10  -3 4.14711 9.36823   2
   4 -10   3-20.9532 9.53997   2
  -4  10  -4 7.47709 8.62136   2
  -4  10  -4-10.7436 6.21084   1
   4 -10   4 12.3228 9.65518   2
   4 -10   4-10.3945 6.27749   1
  -4  10  -5 6.05358 3.58278   1
   4 -10   5 9.53424 3.74549   1
   4  -9  -3 0.58169 8.59650   1
  -4   9   3 18.7332 7.43360   2
   4  -9  -3 19.2174 6.96659   2
   4  -9  -2 30.2800 11.2975   1
  -4   9   2 13.9828 9.85925   2
   4  -9  -2 8.23040 9.12114   2
  -4   9   2 22.6333 10.8086   1
   4  -9  -1 33.7075 9.83436   1
  -4   9   1 11.3056 9.32677   2
   4  -9  -1 11.3603 8.83998   2
  -4   9   1 25.5512 9.92737   1
  -4   9   0 0.32292 8.09186   1
   4  -9   0 16.8409 8.92285   1
  -4   9   0 7.18020 9.13458   2
   4  -9   0 7.30317 8.69213   2
  -4   9  -1 47.0606 9.13503   1
  -4   9  -1 50.3859 10.0564   2
   4  -9   1 40.2366 9.79040   2
   4  -9   1 50.4846 9.44136   1
   4  -9   2 15.3500 7.41877   1
  -4   9  -2 14.9041 7.66990   1
  -4   9  -2 41.1322 10.4932   2
   4  -9   2 29.2757 9.39960   2
  -4   9  -3 16.8365 7.08150   1
  -4   9  -3 5.12297 8.39621   2
   4  -9   3 5.56226 9.46275   2
   4  -9   3 5.97919 6.40309   1
  -4   9  -4 71.4881 10.9470   2
   4  -9   4 73.1320 12.4111   2
  -4   9  -4 75.8535 8.45442   1
   4  -9   4 78.6765 8.51516   1
  -4   9  -5 4.42707 10.2750   2
  -4   9  -5 9.97989 5.13174   1
   4  -9   5 17.3947 8.90866   2
  -4   9  -6 7.41029 3.55043   1
  -4   9  -6 12.6102 9.76941   2
   4  -9   6 5.51642 9.33117   2
  -4   9  -6 5.81704 3.53383   1
  -4   9  -7 42.1985 13.0004   2
  -4   9  -8 14.3788 11.3847   2
   4  -8  -5 20.9384 12.5207   1
  -4   8   5-4.72138 8.27326   2
   4  -8  -5 12.7801 7.67192   2
  -4   8   5 30.3375 12.3087   1
   4  -8  -4 24.1098 10.9333   1
  -4   8   4-3.33116 7.61913   2
   4  -8  -4-2.22507 7.76695   2
  -4   8   4 25.4604 9.55238   1
   4  -8  -3 11.9071 9.88196   1
  -4   8   3-8.79256 7.00966   2
   4  -8  -3-2.06114 7.45527   2
  -4   8   3 17.5340 8.93910   1
  -4   8   2 62.8624 9.49272   2
  -4   8   2 69.8817 11.2063   1
   4  -8  -2 58.7926 8.92058   2
   4  -8  -2 67.3972 10.9947   1
   4  -8  -1 10.2598 7.89803   1
  -4   8   1 8.55274 6.96444   2
   4  -8  -1 26.7294 8.05096   2
  -4   8   1 6.54325 7.32911   1
   4  -8   0 9.20455 6.88975   1
  -4   8   0 13.0011 7.65886   2
   4  -8   0 2.89085 6.61850   2
  -4   8   0 10.2131 7.21441   1
   4  -8   1 28.6946 7.13387   1
  -4   8  -1 13.5233 7.62533   2
   4  -8   1 29.1018 7.59846   2
  -4   8  -1 22.7938 6.91482   1
  -4   8  -2 10.3136 7.82730   2
   4  -8   2-1.42464 7.29848   2
  -4   8  -2 11.9054 6.04837   1
   4  -8   2 2.65970 6.05729   1
  -4   8  -3 5.84915 5.02760   1
  -4   8  -3 4.29913 7.49389   2
   4  -8   3 3.96407 6.99219   2
   4  -8   3 2.32265 5.35062   1
  -4   8  -4 2.17132 4.83240   1
  -4   8  -4 4.10370 8.25313   2
   4  -8   4 8.27949 7.06007   2
  -4   8  -5 37.3850 8.95230   2
  -4   8  -5 27.0929 4.78729   1
   4  -8   5 31.7183 8.98309   2
  -4   8  -5 31.9686 4.97663   1
  -4   8  -6 2.48667 2.34393   1
  -4   8  -6 0.72084 8.63150   2
  -4   8  -6-1.28278 2.41081   1
  -4   8  -7-0.15219 8.56831   2
  -4   8  -8 7.20253 10.4400   2
  -4   8  -9-1.17599 11.1158   2
  -4   8 -10 29.5353 12.4047   2
   4  -7  -7-3.32639 9.37297   1
   4  -7  -7 1.57520 6.71366   2
  -4   7   7 15.6526 12.9093   1
   4  -7  -6-12.2044 11.7636   1
   4  -7  -6 9.31658 6.17662   2
  -4   7   6 11.9088 9.83284   1
   4  -7  -5-4.19779 7.91436   1
  -4   7   5-0.50996 5.97827   2
   4  -7  -5 0.24660 5.78146   2
  -4   7   5-0.15379 8.60731   1
  -4   7   4 36.7849 7.33308   2
   4  -7  -4 25.6192 8.33281   1
   4  -7  -4 30.0365 6.87767   2
  -4   7   4 7.70670 8.36034   1
   4  -7  -3-1.80494 7.55387   1
  -4   7   3 0.89726 6.00508   2
   4  -7  -3 7.97695 5.76642   2
  -4   7   3-10.3004 7.92173   1
   4  -7  -2 38.2109 8.00832   1
  -4   7   2 63.3791 7.91401   2
  -4   7   2 34.2263 8.38817   1
   4  -7  -2 51.9320 7.17715   2
   4  -7  -1 22.3820 6.84741   1
  -4   7   1 34.2185 6.95962   2
   4  -7  -1 24.2440 6.29998   2
  -4   7   1 27.0920 7.59424   1
  -4   7   0-6.46578 5.85568   2
   4  -7   0 4.30966 5.62439   2
  -4   7   0 8.45359 6.27484   1
   4  -7   0 12.1320 6.40507   1
  -4   7  -1 3.54452 5.64806   2
   4  -7   1 6.91654 5.88138   2
  -4   7  -1 3.57402 5.33546   1
   4  -7   1-2.03837 5.24409   1
  -4   7  -2 46.8296 8.05883   2
   4  -7   2 41.1614 7.75021   2
  -4   7  -2 47.0496 6.55505   1
   4  -7   2 32.2771 6.07271   1
  -4   7  -3 7.66512 6.38265   2
   4  -7   3 7.34950 6.73762   2
  -4   7  -3 4.66190 4.29451   1
  -4   7  -4 18.9793 7.65394   2
  -4   7  -4 11.2407 4.24665   1
  -4   7  -4 12.9722 4.32911   1
   4  -7   4 15.1123 7.25712   2
  -4   7  -5 0.98909 3.27221   1
  -4   7  -5 6.08011 6.28182   2
  -4   7  -5 5.37743 3.21169   1
  -4   7  -6 3.08163 6.52464   2
  -4   7  -6 4.13741 1.18530   1
  -4   7  -7 3.03357 8.34331   2
  -4   7  -8 41.8857 10.1892   2
  -4   7  -9 9.34134 10.3251   2
  -4   7 -10-0.16765 11.1746   2
  -4   7 -11 22.1517 12.6367   2
   4  -6  -8 3.70675 11.4096   1
   4  -6  -8 4.58966 5.26938   2
  -4   6   8 1.21507 10.3548   1
   4  -6  -7 8.04429 10.1107   1
   4  -6  -7 1.24719 4.70204   2
  -4   6   7 7.73234 9.42230   1
   4  -6  -6 31.1373 10.0097   1
   4  -6  -6 15.2512 5.00998   2
  -4   6   6 28.8854 9.54166   1
  -4   6   5 19.0381 5.24720   2
   4  -6  -5 6.12925 6.84176   1
   4  -6  -5 14.7979 4.76080   2
  -4   6   5 18.3515 7.92828   1
   4  -6  -4 23.5526 8.04518   1
  -4   6   4 32.5900 7.70878   1
  -4   6   4 27.6851 5.52748   2
   4  -6  -4 22.5104 5.01171   2
   4  -6  -3 9.32089 6.37549   1
  -4   6   3 5.17399 4.88863   2
  -4   6   3-3.64452 6.57109   1
   4  -6  -3 2.32401 4.31329   2
  -4   6   2 92.6348 9.18520   1
  -4   6   2 102.207 7.84746   2
   4  -6  -2 89.6745 7.18759   2
   4  -6  -2 95.5224 9.15175   1
  -4   6   1 22.4811 5.50956   2
  -4   6   1 14.6282 5.58184   1
   4  -6  -1 16.9798 4.97248   2
   4  -6  -1 16.1567 6.18114   1
  -4   6   0 79.2098 7.83073   1
  -4   6   0 59.8910 6.87634   2
   4  -6   0 65.3143 7.03599   2
   4  -6   0 73.4111 7.64039   1
  -4   6  -1 82.8901 7.48471   1
  -4   6  -1 71.4686 7.63993   2
   4  -6   1 62.4177 7.19024   2
   4  -6   1 72.9948 7.25009   1
  -4   6  -2 33.7347 5.51640   1
  -4   6  -2 30.1339 6.45778   2
   4  -6   2 28.8039 6.01722   2
  -4   6  -3 2.22709 5.40190   2
  -4   6  -3 0.43100 3.45427   1
  -4   6  -3-2.13139 3.38886   1
  -4   6  -4-6.85211 3.29909   1
  -4   6  -4 2.28209 5.18822   2
  -4   6  -4 1.60420 3.18539   1
  -4   6  -5 4.44266 2.40365   1
  -4   6  -5 5.76030 6.17331   2
  -4   6  -5 9.46706 2.59720   1
  -4   6  -6 9.20637 6.98162   2
  -4   6  -7 4.36435 7.51591   2
  -4   6  -8-8.44972 9.16689   2
  -4   6  -9-11.7468 9.11727   2
  -4   6 -10 18.4300 9.37998   2
  -4   6 -11 58.3929 13.9834   2
  -4   5  10-0.54879 12.6694   1
   4  -5 -10-0.27990 10.0054   1
  -4   5   9-16.8165 10.2741   1
   4  -5  -9-1.56447 10.1060   1
   4  -5  -8 19.9101 3.83328   2
  -4   5   8 3.11941 8.76814   1
   4  -5  -8 26.6167 11.1296   1
  -4   5   7 10.6671 8.47429   1
   4  -5  -7 1.81571 3.25046   2
   4  -5  -7 5.55719 7.05417   1
  -4   5   6 17.4295 7.56090   1
   4  -5  -6 2.55517 3.33758   2
   4  -5  -6 7.58974 6.86165   1
  -4   5   5 27.8201 4.28763   2
  -4   5   5 18.9105 6.36923   1
   4  -5  -5 11.7299 3.78264   2
   4  -5  -5 25.6617 7.06717   1
   4  -5  -4 24.5490 4.12538   2
  -4   5   4 20.6968 4.12454   2
  -4   5   4 24.0457 6.41779   1
   4  -5  -4 18.2387 7.01126   1
  -4   5   3 7.37171 3.86275   2
  -4   5   3 6.43890 4.87709   1
   4  -5  -3-1.91705 3.35125   2
   4  -5  -3 1.48185 5.70735   1
  -4   5   2-3.40578 3.67998   2
  -4   5   2 3.01313 5.20899   1
   4  -5  -2 0.03084 3.32108   2
   4  -5  -2 5.28336 4.86787   1
  -4   5   1 39.7697 5.39588   2
   4  -5  -1 46.1932 5.45202   2
   4  -5  -1 43.7781 6.51192   1
  -4   5   1 41.0576 6.08847   1
  -4   5   0-4.32306 4.18400   2
  -4   5   0-3.83260 4.34308   1
   4  -5   0 2.03441 3.92295   2
  -4   5  -1 51.7625 6.16380   2
  -4   5  -1 45.6988 5.39805   1
  -4   5  -2 3.31215 3.41664   1
  -4   5  -2-3.41040 4.55652   2
  -4   5  -2-3.78831 3.70087   1
  -4   5  -3-2.36441 3.29139   1
  -4   5  -3-1.44514 4.57370   2
  -4   5  -3-0.79178 2.93638   1
  -4   5  -4 35.8332 3.96446   1
  -4   5  -4 34.2511 6.22701   2
  -4   5  -4 30.8821 3.80438   1
  -4   5  -5 153.262 5.38322   1
  -4   5  -5 156.595 5.51930   1
  -4   5  -5 143.762 10.6323   2
  -4   5  -6 29.3916 6.94266   2
  -4   5  -7 9.32029 6.64059   2
  -4   5  -8 32.7026 8.60148   2
  -4   5  -9-3.57542 9.36776   2
  -4   5 -10 0.15434 8.20802   2
  -4   5 -11 30.3237 12.1022   2
  -4   5 -12 29.9164 13.7869   2
  -4   4  11-4.56604 10.2863   1
   4  -4 -11-5.71717 12.3699   1
  -4   4  10 20.2282 9.48841   1
   4  -4 -10-4.37476 11.5423   1
  -4   4   9 0.84647 7.89284   1
   4  -4  -9 12.6690 9.49468   1
  -4   4   8 13.0288 6.95802   1
   4  -4  -8 23.3891 8.77835   1
  -4   4   7 3.86636 5.89947   1
   4  -4  -7 2.67623 6.87462   1
  -4   4   6 8.54802 6.34492   1
   4  -4  -6 5.68152 2.16036   2
   4  -4  -6 7.62705 6.56666   1
  -4   4   5 13.6938 2.83929   2
  -4   4   5 7.15310 6.34255   1
   4  -4  -5 10.8561 2.52398   2
   4  -4  -5 13.6868 5.91017   1
  -4   4   4 149.751 6.24446   2
   4  -4  -4 150.199 6.13655   2
   4  -4  -4 146.913 10.4682   1
  -4   4   4 159.791 10.5059   1
  -4   4   3 4.20445 2.86178   2
  -4   4   3 11.3599 5.01808   1
   4  -4  -3 8.74386 2.90333   2
   4  -4  -3 14.4987 5.25871   1
  -4   4   2 51.8750 4.76746   2
  -4   4   2 48.8345 6.48036   1
  -4   4   1 4.56697 3.98408   1
  -4   4   1 0.69690 3.12154   2
  -4   4   0-1.66661 3.46632   1
  -4   4   0-1.89086 3.50626   1
  -4   4   0 1.37860 3.32936   2
  -4   4  -1 28.5650 4.70699   2
  -4   4  -1 25.9036 4.62959   1
  -4   4  -1 26.5848 4.52433   1
  -4   4  -2 154.237 8.91580   2
  -4   4  -2 165.088 7.93942   1
  -4   4  -2 154.193 7.69826   1
  -4   4  -3 128.554 8.61720   2
  -4   4  -3 113.225 6.23981   1
  -4   4  -3 132.783 6.65404   1
  -4   4  -4 2.30560 2.56799   1
  -4   4  -4 1.64353 4.43418   2
  -4   4  -4 1.58253 2.50865   1
  -4   4  -5 52.5948 7.39690   2
  -4   4  -5 66.0242 3.77172   1
  -4   4  -5 61.2061 3.67377   1
  -4   4  -6 48.6222 7.74579   2
  -4   4  -7 52.6971 8.10063   2
  -4   4  -8 74.7518 9.93804   2
  -4   4  -9 14.4951 7.16762   2
  -4   4 -10 27.0819 9.72976   2
  -4   4 -11 13.2863 9.53256   2
  -4   4 -12 8.64454 10.7979   2
  -4   3  12 5.34367 10.3159   1
  -4   3  11 1.24582 10.7134   1
  -4   3  10-5.81355 7.15399   1
   4  -3 -10-3.02054 10.0564   1
  -4   3   9 6.49700 8.19622   1
   4  -3  -9 0.73788 7.02255   1
  -4   3   8 0.33389 7.18672   1
   4  -3  -8 6.22834 6.21928   1
  -4   3   7 24.8415 6.40306   1
   4  -3  -7 29.7556 7.09375   1
   4  -3  -6 46.8926 8.14947   1
  -4   3   6 46.8250 7.32714   1
  -4   3   5-1.69867 4.97190   1
  -4   3   4 74.6908 3.67054   2
  -4   3   4 82.5941 8.10351   1
  -4   3   3 48.0221 3.70727   2
  -4   3   3 54.3719 6.40834   1
  -4   3   2 3.67300 3.65825   1
  -4   3   2-3.36246 4.15540   1
  -4   3   2 4.22741 2.63718   2
  -4   3   1 3.44798 3.84908   1
  -4   3   1 1.33424 2.63072   2
  -4   3   0-1.80043 3.32039   1
  -4   3   0 5.86784 3.53708   1
  -4   3   0 2.62346 2.90075   2
  -4   3  -1 2.49274 3.12834   1
  -4   3  -1 9.33359 3.47217   2
  -4   3  -1 3.50486 3.18822   1
  -4   3  -2 29.6242 4.71583   2
  -4   3  -2 24.8725 3.85720   1
  -4   3  -2 27.3065 3.93958   1
  -4   3  -3 440.395 11.3711   1
  -4   3  -3 416.417 13.8713   2
  -4   3  -3 427.076 11.1889   1
  -4   3  -4 3.22713 2.57162   1
  -4   3  -4 3.70287 2.62969   1
  -4   3  -4-1.56985 3.98183   2
  -4   3  -5 16.6371 5.04243   2
  -4   3  -5 24.6598 2.95540   1
  -4   3  -5 21.7162 2.92227   1
  -4   3  -6 2.77786 1.65175   1
  -4   3  -6 1.41001 1.63375   1
  -4   3  -6 6.43585 5.98241   2
  -4   3  -7 67.5800 8.92340   2
  -4   3  -8 26.8751 7.31578   2
  -4   3  -9 27.4363 8.08682   2
  -4   3 -10 5.65720 7.82857   2
  -4   3 -11-10.7404 11.1169   2
  -4   3 -12 34.2050 12.0688   2
  -4   2  13 24.2921 10.6932   1
  -4   2  13 8.08649 9.90285   1
  -4   2  12-3.11543 11.9033   1
  -4   2  12 20.2670 11.0926   1
  -4   2  11 10.1103 10.0314   1
  -4   2  10 51.1345 9.23031   1
  -4   2   9 111.244 11.1525   1
  -4   2   8 75.1413 9.99104   1
  -4   2   7 5.09648 5.48412   1
  -4   2   6 45.1560 6.89509   1
  -4   2   6 44.1209 7.04207   1
  -4   2   5 23.8383 5.64299   1
  -4   2   5 20.9350 5.96267   1
  -4   2   4 72.6513 2.13086   2
  -4   2   4 95.3827 7.79516   1
  -4   2   4 82.4959 7.51376   1
  -4   2   3 60.9490 3.33776   2
  -4   2   3 60.2331 6.81551   1
  -4   2   3 68.9828 6.86624   1
  -4   2   2 34.5442 3.33671   2
  -4   2   2 34.7035 5.19328   1
  -4   2   2 31.5103 5.06725   1
  -4   2   1 1.15057 3.47673   1
  -4   2   1-1.93480 2.39413   2
  -4   2   1 6.01645 3.87316   1
  -4   2   0 76.1794 5.35896   2
  -4   2   0 82.8196 6.31277   1
  -4   2   0 85.6905 6.54588   1
  -4   2  -1 26.6034 4.13398   2
  -4   2  -1 23.1730 4.05346   1
  -4   2  -1 23.5051 4.14042   1
  -4   2  -2 5.12371 2.92155   1
  -4   2  -2-1.31519 3.48314   2
  -4   2  -2 4.65729 2.93600   1
  -4   2  -3 24.1116 4.62862   2
  -4   2  -3 21.0262 3.67286   1
  -4   2  -3 19.3836 3.51401   1
  -4   2  -4 1.53438 2.67705   1
  -4   2  -4 4.15322 4.06518   2
  -4   2  -4 5.11354 2.93338   1
  -4   2  -5 19.8666 3.21744   1
  -4   2  -5 21.4781 5.68174   2
  -4   2  -5 20.3191 3.28194   1
  -4   2  -6 4.80845 2.63659   1
  -4   2  -6 5.12249 2.50345   1
  -4   2  -6 0.94964 5.12069   2
  -4   2  -7 4.98675 2.17297   1
  -4   2  -7 7.72966 6.32693   2
  -4   2  -7 7.50266 2.30436   1
  -4   2  -8 0.57757 1.33368   1
  -4   2  -8 5.41514 6.96651   2
  -4   2  -9-1.59895 8.16878   2
  -4   2 -10 15.2487 9.98173   2
  -4   2 -11 1.65280 9.53007   2
  -4   2 -12-5.57991 10.9934   2
  -4   1  13-6.15830 10.2391   1
  -4   1  13 10.6369 9.37720   1
  -4   1  12 31.0763 10.5136   1
  -4   1  12 27.7848 10.7751   1
  -4   1  11-4.19829 7.59045   1
  -4   1  11 31.3167 9.61945   1
  -4   1  10-8.01472 6.94073   1
  -4   1  10 1.38234 7.67916   1
  -4   1   9 17.3764 7.94366   1
  -4   1   9 29.1759 6.57710   1
  -4   1   8 1.99314 6.33056   1
  -4   1   8 4.32518 6.41328   1
  -4   1   7 21.1237 6.43383   1
  -4   1   7 16.8873 6.05243   1
  -4   1   6 44.2223 7.15070   1
  -4   1   6 53.9149 7.17137   1
  -4   1   5 20.2100 5.30090   1
  -4   1   5 15.4954 5.14082   1
  -4   1   4 49.0662 6.32983   1
  -4   1   4 40.7664 5.99116   1
  -4   1   3 3.88858 3.66435   1
  -4   1   3 3.64698 1.48297   2
  -4   1   3 8.97837 4.44506   1
  -4   1   2 304.366 7.67152   2
  -4   1   2 297.148 11.8434   1
  -4   1   2 309.824 11.9839   1
  -4   1   1 19.0340 3.00641   2
  -4   1   1 19.0520 4.20700   1
  -4   1   1 22.2884 4.22565   1
  -4   1   0 47.8954 4.54794   2
  -4   1   0 53.3495 5.38077   1
  -4   1   0 50.4008 5.34501   1
  -4   1  -1 129.838 7.42400   1
  -4   1  -1 118.101 6.85786   2
  -4   1  -1 130.019 7.49424   1
  -4   1  -2 4.06098 3.11457   1
  -4   1  -2 5.85278 3.43583   2
  -4   1  -2 10.3603 3.52468   1
  -4   1  -3 133.031 8.35283   2
  -4   1  -3 133.932 7.18994   1
  -4   1  -3 130.827 6.99358   1
  -4   1  -4 85.1260 7.51034   2
  -4   1  -4 88.6228 5.84075   1
  -4   1  -5 179.073 10.9490   2
  -4   1  -5 173.868 7.67845   1
  -4   1  -6 6.76720 3.24759   1
   4  -1   6 4.78093 3.18278   1
  -4   1  -6 6.90983 6.08637   2
   4  -1   7 38.6391 4.23639   1
  -4   1  -7 37.4169 4.27079   1
  -4   1  -7 41.9658 7.73300   2
  -4   1  -8 2.41448 3.17429   1
   4  -1   8 5.20134 3.14185   1
  -4   1  -9 0.67669 2.95462   1
  -4   1  -9 1.71709 7.35791   2
   4  -1   9 3.80799 2.88570   1
  -4   1 -10 34.1550 9.86832   2
  -4   1 -10 27.1490 3.55965   1
  -4   1 -11 0.81638 2.00947   1
  -4   1 -11 27.9133 11.5312   2
  -4   0  14 1.83123 11.8540   1
  -4   0  14-5.55537 9.90937   1
  -4   0  13 12.4650 10.1981   1
  -4   0  13-0.41009 10.7420   1
  -4   0  12 28.1496 8.57985   1
  -4   0  12 27.3873 9.13815   1
  -4   0  11-10.0179 7.95975   1
  -4   0  11-1.06989 7.74365   1
  -4   0  10 5.56238 6.71284   1
  -4   0  10 3.85734 5.82364   1
  -4   0   9 14.1987 6.58417   1
  -4   0   9 4.40500 6.48679   1
  -4   0   8-5.14518 6.36067   1
  -4   0   8-4.07032 5.65519   1
  -4   0   7 1.73494 4.28915   1
  -4   0   7-0.43514 4.96541   1
  -4   0   6 16.2593 5.67453   1
  -4   0   6 11.2914 5.46215   1
  -4   0   5 40.7918 5.78297   1
  -4   0   5 37.2015 5.56465   1
  -4   0   4 10.3391 4.89785   1
  -4   0   4 21.0451 4.62199   1
  -4   0   3-2.44618 3.61531   1
  -4   0   3 0.23111 1.58041   2
  -4   0   3 0.37557 4.14113   1
  -4   0   3-0.43900 1.44750   2
  -4   0   2 11.4871 2.58340   2
  -4   0   2 9.30113 3.57680   1
  -4   0   2 12.0540 2.52871   2
  -4   0   2 16.3163 4.41485   1
  -4   0   1 91.6190 7.04939   1
  -4   0   1 95.2651 5.44979   2
  -4   0   1 101.795 7.42962   1
  -4   0   0 53.8448 5.64188   1
  -4   0   0 2.76993 4.06317   1
  -4   0  -1 178.673 8.81551   1
   4   0   2 1.43781 3.34471   1
  -4   0  -2 3.39852 3.39341   1
  -4   0  -3 49.0183 5.17496   1
   4   0   3 42.6589 4.96049   1
  -4   0  -4 3.73163 3.49225   1
   4   0   4 5.39816 3.44938   1
  -4   0  -5 203.391 9.00799   1
   4   0   5 209.324 9.21088   1
  -4   0  -6 3.11804 3.85204   1
   4   0   6-1.08829 3.56220   1
   4   0   7 1.74890 3.65535   1
  -4   0  -7 3.76506 3.82796   1
   4   0   8 3.95968 3.95569   1
  -4   0  -8 0.83307 4.30018   1
   4   0   9 24.3995 5.21070   1
  -4   0  -9 27.4016 5.20250   1
   4   0  10 28.8181 5.64809   1
  -4   0 -10 18.8582 11.4360   2
  -4   0 -10 40.0179 6.01259   1
  -4   0 -11 53.8785 12.4584   2
   4   0  11 37.5880 6.04807   1
  -4   0 -11 37.6848 6.14142   1
  -4  -1  14-10.6723 11.7495   1
  -4  -1  14-8.26966 11.3592   1
  -4  -1  13 8.63230 9.02030   1
  -4  -1  13 1.10552 9.09253   1
  -4  -1  12 51.8500 9.29394   1
  -4  -1  12 47.8244 10.1059   1
  -4  -1  11 8.43885 8.12704   1
  -4  -1  11 13.2661 8.05874   1
  -4  -1  10 7.44844 6.03303   1
  -4  -1  10 14.7116 7.03137   1
  -4  -1   9 1.21608 5.66080   1
  -4  -1   9 0.24139 6.35628   1
  -4  -1   8 0.51238 5.69057   1
  -4  -1   8-1.30198 4.66488   1
  -4  -1   7 8.69118 5.50004   1
  -4  -1   7 3.66761 5.17354   1
  -4  -1   6 85.7735 7.91956   1
  -4  -1   6 83.5849 8.07558   1
  -4  -1   5 7.38879 4.73197   1
  -4  -1   5 2.25129 3.92904   1
  -4  -1   4 25.6967 2.18483   2
  -4  -1   4 24.3442 2.05112   2
  -4  -1   4 25.5762 4.84176   1
  -4  -1   4 20.2685 4.58437   1
  -4  -1   3 0.73584 2.01816   2
  -4  -1   3 1.43193 3.36469   1
  -4  -1   3-3.53056 3.59189   1
  -4  -1   2 95.5133 5.34276   2
  -4  -1   2 96.1997 7.64956   1
  -4  -1   1 82.6194 5.52923   2
  -4  -1   1 73.2460 6.56509   1
   4   1  -1 72.1402 6.73862   1
  -4  -1   0 103.063 6.68109   2
   4   1   0 99.8369 7.26673   1
  -4  -1   0 93.1405 7.12908   1
   4   1   1 59.6914 6.26290   1
  -4  -1  -1 64.0045 6.33903   1
   4   1   2 4.04475 3.69894   1
  -4  -1  -2-4.15499 3.92665   1
  -4  -1  -3 127.460 8.09470   1
   4   1   3 124.429 8.01568   1
  -4  -1  -4 6.46779 3.85138   1
   4   1   4 3.25642 3.71649   1
  -4  -1  -5 20.9292 4.96875   1
   4   1   5 21.8508 5.04107   1
   4   1   6-0.50428 4.32500   1
  -4  -1  -6 0.11708 4.13823   1
  -4  -1  -7 38.7604 5.99946   1
   4   1   7 44.8459 6.39634   1
  -4  -1  -8 306.957 12.5916   1
   4   1   8 297.434 12.4718   1
   4   1   9-1.20069 5.44655   1
  -4  -1  -9 6.30582 5.75747   1
   4   1  10-9.93861 6.69624   1
  -4  -1 -10 5.64437 6.31079   1
  -4  -2  14-11.4126 12.1629   1
  -4  -2  14-4.39251 10.3610   1
  -4  -2  13-22.3534 9.86219   1
  -4  -2  13 23.2229 10.4764   1
  -4  -2  12 31.0262 9.39722   1
  -4  -2  12 8.82461 7.88009   1
  -4  -2  11 12.7304 8.12095   1
  -4  -2  11 10.7214 7.54616   1
  -4  -2  10 13.0667 6.95359   1
  -4  -2  10 10.8330 5.75945   1
  -4  -2   9 45.0833 8.02314   1
  -4  -2   9 35.4308 7.68805   1
  -4  -2   8 0.46110 6.01583   1
  -4  -2   8 6.72129 5.01536   1
  -4  -2   7 27.5492 5.73595   1
  -4  -2   7 35.9442 7.21033   1
  -4  -2   6 25.1600 6.38660   1
  -4  -2   6 19.2677 5.98891   1
  -4  -2   5 187.317 5.12473   2
  -4  -2   5 177.233 10.9182   1
  -4  -2   5 165.462 10.6041   1
  -4  -2   4 19.0567 2.92251   2
  -4  -2   4 21.5522 4.85780   1
  -4  -2   3 1.24637 2.44165   2
  -4  -2   3 2.91634 4.11648   1
   4   2  -3 9.64414 4.95020   1
  -4  -2   2 73.3217 5.39454   2
   4   2  -2 67.6324 7.08098   1
  -4  -2   2 68.2305 6.96161   1
  -4  -2   1 15.0599 3.82974   2
   4   2  -1 22.5058 4.82444   1
  -4  -2   1 21.0561 4.66907   1
  -4  -2   0 16.9718 4.94755   1
   4   2   0 5.96576 4.36251   1
  -4  -2   0 6.86445 3.75634   2
  -4  -2  -1 27.9388 5.27262   2
   4   2   1 26.5576 5.00567   1
  -4  -2  -1 20.0824 4.98278   1
  -4  -2  -2 16.4983 5.32542   2
   4   2   2 16.3768 4.73732   1
  -4  -2  -2 22.0608 4.95633   1
  -4  -2  -3 1.02718 4.45898   2
   4   2   3 5.23052 4.34642   1
  -4  -2  -3 1.17161 4.35467   1
   4   2   4-2.29688 4.26700   1
  -4  -2  -4-0.37712 5.20333   2
  -4  -2  -4 2.72290 4.64979   1
   4   2   5 14.6820 5.26879   1
  -4  -2  -5 20.1844 5.47518   1
  -4  -2  -5 18.6979 6.69142   2
  -4  -2  -6 12.2495 7.46941   2
   4   2   6 20.1205 5.88079   1
  -4  -2  -6 14.9648 5.86006   1
  -4  -2  -7 16.6452 7.21307   2
  -4  -2  -7 17.0300 6.33270   1
   4   2   7 28.0272 6.54665   1
  -4  -2  -8 8.11162 10.0323   2
  -4  -2  -8 13.4977 7.10678   1
   4   2   8 13.3174 6.87245   1
  -4  -2  -9 9.25559 10.8986   2
  -4  -2  -9 22.9513 7.23048   1
   4   2   9 17.8440 7.47352   1
  -4  -2 -10 6.58829 11.5779   2
  -4  -2 -10 0.25865 7.59501   1
   4   2  10-7.49712 7.96369   1
  -4  -3  14 18.9748 10.8150   1
  -4  -3  13 22.5873 10.2597   1
  -4  -3  13-1.52802 9.00640   1
  -4  -3  12 8.70952 7.17447   1
  -4  -3  12 14.8139 7.51059   1
  -4  -3  11 6.75448 7.59018   1
  -4  -3  11 2.04406 6.21090   1
  -4  -3  10 1.21711 6.72163   1
  -4  -3  10 6.36985 6.65501   1
  -4  -3   9-1.86110 6.45934   1
  -4  -3   9-0.24346 5.73275   1
  -4  -3   8 341.077 15.4371   1
  -4  -3   8 346.161 16.0998   1
  -4  -3   7 15.3151 1.77611   2
  -4  -3   7 17.5239 6.40375   1
  -4  -3   7 27.6551 6.32952   1
  -4  -3   6 57.8314 7.33903   1
  -4  -3   6 67.5109 3.91708   2
  -4  -3   5-0.39082 2.42047   2
  -4  -3   5 1.90612 5.15365   1
   4   3  -5-3.53661 3.87110   1
  -4  -3   4 61.8093 6.84309   1
  -4  -3   4 64.0282 4.97109   2
   4   3  -4 72.8353 7.23265   1
  -4  -3   3 168.961 7.79034   2
   4   3  -3 168.901 10.2480   1
  -4  -3   3 168.452 10.1674   1
  -4  -3   2 204.833 9.21000   2
   4   3  -2 212.485 11.5143   1
  -4  -3   2 207.001 11.4075   1
  -4  -3   1 22.1278 4.75918   2
   4   3  -1 27.4793 5.75108   1
  -4  -3   1 18.4778 5.40068   1
  -4  -3   0 145.488 9.05145   2
   4   3   0 131.553 9.56910   1
  -4  -3   0 131.485 9.46093   1
  -4  -3  -1 8.06481 4.56648   2
   4   3   1 13.7842 5.34150   1
  -4  -3  -1 9.93503 4.92120   1
   4   3   2 8.74882 4.99806   1
  -4  -3  -2 0.29592 4.86268   2
  -4  -3  -2 5.96286 4.60254   1
   4   3   3 11.5583 5.71204   1
  -4  -3  -3-0.91851 5.29161   2
  -4  -3  -3 4.06855 5.05924   1
  -4  -3  -4 24.7295 6.05045   1
  -4  -3  -4 31.3270 6.93912   2
   4   3   4 26.4596 6.33616   1
  -4  -3  -5 10.6254 5.80735   1
  -4  -3  -5 15.1774 7.87352   2
   4   3   5 5.47646 5.67164   1
  -4  -3  -6 30.6080 8.75673   2
   4   3   6 24.3470 7.04342   1
  -4  -3  -6 19.8677 7.04596   1
  -4  -3  -7 40.8736 10.7769   2
   4   3   7 17.4347 7.74028   1
  -4  -3  -7 23.2492 7.92315   1
  -4  -3  -8 12.3900 8.24236   1
   4   3   8 25.0071 8.04094   1
  -4  -3  -9 12.6621 9.08027   1
   4   3   9 19.7900 9.40384   1
  -4  -4  14-8.06543 11.8769   1
  -4  -4  14 91.9970 13.5089   1
  -4  -4  13-1.84031 8.85475   1
  -4  -4  13 29.7419 11.1818   1
  -4  -4  12 11.7689 8.07877   1
  -4  -4  12 6.80985 8.62745   1
  -4  -4  11 0.62815 7.92968   1
  -4  -4  11 12.1942 8.06992   1
  -4  -4  10-2.28742 7.69890   1
  -4  -4  10-1.57754 7.17994   1
  -4  -4   9 6.47717 6.72324   1
  -4  -4   9 11.7340 2.19827   2
  -4  -4   9 15.7253 6.04696   1
  -4  -4   8 4.04225 6.47082   1
  -4  -4   8 2.90388 2.45855   2
  -4  -4   8 2.22354 6.09894   1
  -4  -4   7 42.3750 7.26651   1
  -4  -4   7 44.3874 4.16138   2
  -4  -4   6 0.78985 5.68662   1
  -4  -4   6-3.38565 3.17695   2
   4   4  -6 1.68891 5.88624   1
   4   4  -5-1.04856 5.53776   1
  -4  -4   5 9.23734 5.23087   1
  -4  -4   5 9.52929 3.52458   2
  -4  -4   4 22.2788 6.53525   1
  -4  -4   4 20.0011 4.27456   2
   4   4  -4 22.8984 6.54717   1
  -4  -4   3 29.2472 4.90012   2
   4   4  -3 37.1015 6.56955   1
  -4  -4   3 45.1362 7.29839   1
  -4  -4   2 66.7559 6.67207   2
   4   4  -2 61.2642 7.72551   1
  -4  -4   2 69.3432 7.90138   1
  -4  -4   1 95.4027 8.08600   2
   4   4  -1 97.4660 8.51829   1
  -4  -4   1 91.7729 8.57977   1
   4   4   0-0.75130 4.41576   1
  -4  -4   0-5.06834 4.63679   2
  -4  -4   0 2.62761 4.36535   1
   4   4   1 19.4022 6.49163   1
  -4  -4  -1 19.4565 6.26794   2
  -4  -4  -1 10.3604 5.31763   1
  -4  -4  -2 6.00064 6.19159   2
  -4  -4  -2 2.72199 5.29116   1
   4   4   2-0.61487 4.85042   1
   4   4   3 34.3781 7.12910   1
  -4  -4  -3 39.0915 7.98944   2
  -4  -4  -3 32.2298 7.58801   1
  -4  -4  -4 19.8839 7.07732   1
  -4  -4  -4 15.5394 8.21368   2
   4   4   4 14.3572 6.48197   1
  -4  -4  -5 24.3834 8.70321   2
   4   4   5 15.2274 6.82046   1
  -4  -4  -5 25.3781 7.90679   1
  -4  -4  -6-0.15411 9.59623   2
   4   4   6 16.3879 8.18932   1
  -4  -4  -6 12.5467 8.30986   1
  -4  -4  -7 1.16764 10.3893   2
   4   4   7 16.2948 8.38318   1
  -4  -4  -7 0.73172 8.47457   1
  -4  -4  -8 31.0236 14.3057   2
   4   4   8 24.8649 10.4653   1
  -4  -4  -8 37.1671 10.9177   1
  -4  -5  14 0.73496 9.62925   1
  -4  -5  14 37.3924 12.5705   1
  -4  -5  13 11.2308 10.3512   1
  -4  -5  13 19.4810 9.31012   1
  -4  -5  12-1.88133 7.86051   1
  -4  -5  12 5.39266 8.11770   1
  -4  -5  11 54.8693 10.1228   1
  -4  -5  11 30.8952 8.25991   1
  -4  -5  10 32.2547 4.17738   2
  -4  -5  10 28.6685 8.71096   1
  -4  -5  10 34.7578 9.23420   1
  -4  -5   9-2.95690 7.24545   1
  -4  -5   9 1.56482 3.29943   2
  -4  -5   9 0.60632 5.71671   1
  -4  -5   8 21.0356 7.42632   1
  -4  -5   8 17.2310 4.01810   2
   4   5  -7 84.7318 9.84017   1
  -4  -5   7 89.5227 6.51991   2
  -4  -5   7 92.4847 9.42420   1
  -4  -5   6 17.4670 6.34237   1
  -4  -5   6 18.3545 4.71019   2
   4   5  -6 11.6849 6.73017   1
  -4  -5   5 6.30324 5.05356   1
   4   5  -5 6.87636 5.55685   1
  -4  -5   5 6.80499 4.32155   2
  -4  -5   4 2.76843 4.29999   2
   4   5  -4 8.82020 5.99928   1
  -4  -5   4 3.05205 6.19935   1
  -4  -5   3-3.47623 5.07257   2
   4   5  -3-0.88727 5.78625   1
  -4  -5   3-1.92198 5.29797   1
  -4  -5   2 45.1952 6.68125   2
   4   5  -2 32.6496 7.60530   1
  -4  -5   2 34.1249 7.33534   1
  -4  -5   1 58.0312 7.66893   2
   4   5  -1 50.2460 8.46720   1
  -4  -5   1 43.8696 8.03059   1
   4   5   0 13.3503 6.00121   1
  -4  -5   0-1.25649 5.93848   2
  -4  -5   0 1.20990 5.77041   1
  -4  -5  -1 25.0191 7.77338   1
  -4  -5  -1 14.0393 6.94520   2
   4   5   1 13.2354 7.16222   1
  -4  -5  -2 40.4163 8.90270   2
   4   5   2 49.1314 8.98262   1
  -4  -5  -2 42.4205 7.79692   1
  -4  -5  -3 73.4917 10.7093   2
   4   5   3 64.7205 9.72173   1
  -4  -5  -3 56.8686 8.90458   1
  -4  -5  -4 17.7276 9.39599   2
   4   5   4-2.10684 7.41527   1
  -4  -5  -4-2.04287 8.45839   1
  -4  -5  -5 22.1865 11.6190   2
   4   5   5 37.4789 9.19697   1
  -4  -5  -5 30.6542 10.1275   1
  -4  -5  -6-9.88745 10.1054   2
   4   5   6 15.2927 9.46327   1
  -4  -5  -6 6.19212 9.63907   1
  -4  -5  -7-5.04827 10.0967   2
   4   5   7-1.44623 9.09243   1
  -4  -5  -7 15.8301 9.91790   1
  -4  -6  13-8.59402 10.4395   1
   4   6 -13 0.09969 4.41725   2
  -4  -6  13 7.93893 10.9043   1
   4   6 -12-6.52381 4.96232   2
  -4  -6  12-4.89156 9.58942   1
   4   6 -11-7.88337 4.42230   2
  -4  -6  11 1.62437 7.72861   1
  -4  -6  11-2.37569 4.49448   2
  -4  -6  11-5.40170 8.94385   1
   4   6 -10 0.55740 4.64507   2
  -4  -6  10-3.86361 9.03870   1
  -4  -6  10 5.04837 4.72348   2
  -4  -6  10-2.57564 6.94427   1
   4   6  -9 2.79485 4.54063   2
  -4  -6   9 16.4731 8.28482   1
  -4  -6   9 1.69997 4.51204   2
   4   6  -8 34.5222 9.03037   1
  -4  -6   8 20.0717 8.68512   1
  -4  -6   8 32.9843 5.63329   2
  -4  -6   7 84.9424 7.49491   2
  -4  -6   7 101.446 10.3426   1
   4   6  -7 98.3379 10.7457   1
   4   6  -6 6.52353 6.13930   1
  -4  -6   6 2.93301 4.85918   2
  -4  -6   6 7.57380 6.89714   1
  -4  -6   5 26.9716 5.99878   2
  -4  -6   5 35.0879 8.18472   1
   4   6  -5 39.6413 8.51637   1
  -4  -6   4 42.8398 6.84741   2
   4   6  -4 32.6296 7.31866   1
  -4  -6   4 36.9645 7.12943   1
   4   6  -3 5.69377 7.01610   1
  -4  -6   3 6.54045 5.45371   2
  -4  -6   3 14.0728 7.77067   1
   4   6  -2-10.0341 7.06045   1
  -4  -6   2-1.74156 6.41977   2
  -4  -6   2 5.94679 7.11562   1
   4   6  -1 41.9781 8.20015   1
  -4  -6   1 22.9570 7.73815   2
  -4  -6   1 33.4993 7.97391   1
  -4  -6   0 87.6219 10.4222   2
   4   6   0 77.4889 10.7082   1
  -4  -6   0 104.586 10.7441   1
  -4  -6  -1-0.13937 7.64703   1
  -4  -6  -1 24.1116 8.38853   2
   4   6   1 7.04814 7.82712   1
  -4  -6  -2 5.65961 8.63750   1
  -4  -6  -2 6.24593 8.91966   2
   4   6   2 11.6593 8.39361   1
  -4  -6  -3 1.38761 8.43652   2
   4   6   3-5.90771 8.76354   1
  -4  -6  -3 1.64246 7.98525   1
  -4  -6  -4 20.8375 9.84971   2
   4   6   4 19.3448 8.92644   1
  -4  -6  -5 28.8819 11.3807   2
   4   6   5 10.2711 10.5538   1
  -4  -6  -5 20.3741 10.4922   1
  -4  -7  13-1.19361 8.27795   1
   4   7 -13-3.54997 4.65311   2
  -4  -7  12-20.8944 11.9178   1
   4   7 -12-12.8362 6.78069   2
  -4  -7  12 5.54452 6.19216   2
  -4  -7  12 13.0041 10.2324   1
  -4  -7  11-18.2227 10.8305   1
   4   7 -11 3.81456 6.22283   2
  -4  -7  11 1.26777 6.17547   2
  -4  -7  11-5.14287 10.0108   1
  -4  -7  10 14.8859 9.15428   1
  -4  -7  10 20.5637 6.60530   2
   4   7  -9 48.0156 7.33602   2
   4   7  -9 39.4634 10.2447   1
  -4  -7   9 24.4852 6.67905   2
  -4  -7   9 25.8253 8.70203   1
   4   7  -8 23.3283 6.47003   2
   4   7  -8 16.5015 9.45815   1
  -4  -7   8 39.1214 7.10768   2
  -4  -7   8 39.8629 9.27886   1
   4   7  -7 0.59188 8.64876   1
  -4  -7   7-0.28657 5.96354   2
  -4  -7   7-17.3255 9.23006   1
   4   7  -6-1.02341 6.64905   1
  -4  -7   6 10.8923 6.29015   2
  -4  -7   6-5.86822 7.81715   1
  -4  -7   5 12.9316 6.53880   2
  -4  -7   5 20.4602 7.51139   1
   4   7  -5 18.7913 8.64176   1
   4   7  -4 10.3532 8.57331   1
  -4  -7   4-4.92740 6.33380   2
  -4  -7   4-0.21736 7.41390   1
  -4  -7   3-7.63987 6.89315   2
  -4  -7   3-9.63048 8.62883   1
   4   7  -2 4.15113 7.35465   1
  -4  -7   2 1.62423 7.52613   1
  -4  -7   2 8.49897 7.42708   2
  -4  -7   1 200.537 13.9173   2
   4   7  -1 203.472 15.4620   1
  -4  -7   1 176.415 14.8410   1
  -4  -7   0 24.9490 9.03468   1
  -4  -7   0 18.4195 8.67863   2
   4   7   0 26.4650 10.5527   1
  -4  -7  -1 22.6753 9.20248   1
  -4  -7  -1 31.1829 10.9209   2
   4   7   1 23.9562 10.2768   1
  -4  -7  -2-8.05379 10.4439   2
   4   7   2-0.40978 9.22120   1
  -4  -7  -2 0.40948 8.55315   1
  -4  -7  -3 86.6394 12.7788   1
  -4  -7  -3 81.4075 13.9068   2
  -4  -7  -4 8.25705 5.88316   2
   4   8 -11 22.7311 8.73135   2
  -4  -8  11 19.1025 7.93978   2
  -4  -8  11 10.1443 10.3060   1
   4   8 -10 19.1550 7.62518   2
  -4  -8  10 15.8823 7.73410   2
   4   8 -10 24.4173 11.7161   1
  -4  -8  10 19.2999 11.1360   1
   4   8  -9 43.5829 8.64588   2
   4   8  -9 20.4997 11.6477   1
  -4  -8   9 36.9384 8.29373   2
  -4  -8   9 22.6616 11.0061   1
   4   8  -8 2.13146 7.79107   2
  -4  -8   8 18.4621 8.19587   2
   4   8  -8 22.1072 10.9337   1
  -4  -8   8 17.4913 10.9997   1
   4   8  -7 34.7112 10.4658   1
  -4  -8   7 28.2705 8.41640   2
  -4  -8   7 37.7756 10.4899   1
  -4  -8   6-2.72234 7.69175   2
  -4  -8   6-0.71732 9.69533   1
   4   8  -6-0.88236 9.23801   1
  -4  -8   5-7.26749 8.17554   1
  -4  -8   5 2.33349 7.51737   2
   4   8  -5-7.45922 9.58335   1
   4   8  -4 10.7925 9.89009   1
  -4  -8   4-1.12770 8.29584   2
  -4  -8   3 78.1859 12.0789   2
   4   8  -3 58.8800 11.4595   1
  -4  -8   3 68.0365 11.1949   1
  -4  -8   2 91.4007 12.1283   2
   4   8  -2 89.1608 13.5457   1
  -4  -8   2 83.7277 11.8745   1
  -4  -8   1-4.97588 11.4899   1
  -4  -8   1-4.54244 9.04752   2
   4   8  -1-25.0411 12.1156   1
  -4  -8   0 32.1241 10.8970   1
  -4  -8   0 4.54065 11.6358   2
   4   8   0 21.8463 12.0040   1
  -4  -8  -1-12.7726 11.5197   2
   4   8   1 2.96049 10.1074   1
  -4  -8  -1-13.4457 12.7110   1
   4   9  -9 2.12131 7.65651   2
  -4  -9   9-24.3348 11.1481   1
  -4  -9   9 4.23991 7.55317   2
   4   9  -9-15.5878 10.7223   1
   4   9  -8 0.86051 9.58642   2
   4   9  -8-2.15160 11.0951   1
  -4  -9   8 20.4380 12.4959   1
  -4  -9   8 16.8171 10.1770   2
  -4  -9   7-0.52579 11.6164   1
  -4  -9   7 15.9336 10.4774   2
   4   9  -7 10.4541 12.9735   1
  -4  -9   6 30.1904 10.9743   1
  -4  -9   6-1.05758 10.7046   2
   4   9  -6 18.9433 12.6183   1
  -4  -9   5-1.58753 11.9396   1
   4   9  -5-0.35512 11.9068   1
  -4  -9   5-1.02459 9.72937   2
  -4  -9   4 5.62052 11.9061   1
   4   9  -4 23.2132 12.3044   1
  -4  -9   4 3.36423 10.9697   2
   4   9  -3 21.2830 13.6339   1
  -4  -9   3 46.1406 12.2951   1
  -4  -9   3 30.0965 12.5714   2
  -4  -9   2 8.10187 11.1828   2
  -5   8   2-4.64295 6.50253   2
   5  -8  -2-1.97344 6.19962   2
  -5   8   2-1.13055 8.58361   1
   5  -8  -2 13.2673 8.01302   1
  -5   8   1-7.54927 8.48966   2
   5  -8  -1-12.9559 8.19069   2
  -5   8   1-17.9519 10.6279   1
   5  -8  -1 4.60239 10.0023   1
  -5   8   0 7.48568 8.90023   2
   5  -8   0 16.1406 8.49238   2
  -5   8   0 16.3754 8.95997   1
  -5   8  -1 9.81120 8.99487   2
  -5   8  -1 29.6989 8.28475   1
  -5   8  -1 15.6816 8.17934   1
  -5   8  -2 19.1994 9.71892   2
  -5   8  -2 7.54925 7.32373   1
  -5   8  -2 18.2758 7.55900   1
  -5   8  -3-3.52521 9.28501   2
  -5   8  -3-2.83220 6.88645   1
  -5   8  -3 0.22036 6.82779   1
  -5   8  -4 30.0132 6.54174   1
  -5   8  -4 46.7139 11.8545   2
  -5   8  -4 27.1604 6.29785   1
  -5   8  -5 5.41425 4.50925   1
  -5   8  -5 11.2605 11.3214   2
  -5   8  -5-1.04030 4.25522   1
  -5   8  -6 21.6107 8.91695   2
  -5   7   5 17.0968 4.07096   2
   5  -7  -5 23.6422 4.22521   2
  -5   7   5 15.0725 7.13902   1
   5  -7  -5 20.0424 8.07169   1
  -5   7   4 1.19620 6.44038   2
  -5   7   4 7.50123 10.5461   1
   5  -7  -4 8.66923 6.66986   2
  -5   7   3 21.5885 6.79687   2
  -5   7   3 11.4780 10.2564   1
   5  -7  -3 13.4235 6.30495   2
   5  -7  -3 26.7320 9.40444   1
  -5   7   2 16.7523 7.25732   2
  -5   7   2-1.71808 9.03519   1
  -5   7   1 8.11010 6.86116   2
  -5   7   1 0.19011 7.89251   1
  -5   7   0 16.3354 7.72896   2
  -5   7   0 27.2021 8.38392   1
  -5   7   0 29.7486 8.13694   1
  -5   7  -1-4.07194 6.99968   2
  -5   7  -1 1.60622 6.64271   1
  -5   7  -1-8.92395 6.65574   1
  -5   7  -2 12.5746 8.22017   2
  -5   7  -2 14.5891 7.12568   1
  -5   7  -3 14.1947 8.74821   2
  -5   7  -3 15.9175 6.19536   1
  -5   7  -3 21.9925 6.25915   1
  -5   7  -4 27.0842 5.81051   1
  -5   7  -4 20.9945 5.48625   1
  -5   7  -4 37.1469 10.4660   2
  -5   7  -5 14.5893 3.89978   1
  -5   7  -5 18.1678 9.29882   2
  -5   7  -5 21.5771 4.00145   1
  -5   7  -6 18.9307 9.54203   2
  -5   7  -7 16.8620 11.3239   2
  -5   7  -8 16.6121 7.23075   2
  -5   6   6 12.3344 10.8427   1
   5  -6  -6 25.8515 12.7458   1
  -5   6   5 1.25810 4.41491   2
  -5   6   5-6.66432 9.42755   1
   5  -6  -5 4.72708 9.42017   1
  -5   6   4 13.2876 5.34259   2
  -5   6   4-5.25133 7.75748   1
  -5   6   3 9.19263 5.61274   2
  -5   6   3-1.73547 8.22449   1
  -5   6   2-0.35159 5.40094   2
  -5   6   2-3.46100 7.71898   1
  -5   6   1 9.41910 6.59558   1
  -5   6   1 9.82476 5.92987   2
  -5   6   1-3.41770 7.36866   1
  -5   6   0-0.83472 5.56151   2
  -5   6   0 4.10622 6.10024   1
  -5   6   0 0.15659 6.14661   1
  -5   6  -1 35.8068 7.44162   2
  -5   6  -1 24.7039 6.58853   1
  -5   6  -1 19.0936 6.56049   1
  -5   6  -2 8.99611 6.96166   2
  -5   6  -2 8.75250 5.42679   1
  -5   6  -2 12.5059 5.69981   1
  -5   6  -3 23.8553 5.56318   1
  -5   6  -3 21.6376 7.34514   2
  -5   6  -3 25.8417 5.72504   1
  -5   6  -4 14.8008 7.83412   2
  -5   6  -4 12.4543 4.51964   1
  -5   6  -4 20.0998 5.02300   1
  -5   6  -5 19.7287 3.85853   1
  -5   6  -5 20.2447 8.49823   2
  -5   6  -5 15.6623 3.69040   1
  -5   6  -6 19.8749 9.68049   2
  -5   6  -7 26.6267 10.5400   2
  -5   6  -8 26.6350 12.4974   2
  -5   6  -9 14.2616 6.67933   2
  -5   5   8 38.8870 13.6638   1
  -5   5   7 18.8975 10.6173   1
   5  -5  -6 519.956 22.6538   1
  -5   5   6 70.3590 12.5218   1
  -5   5   5 22.6295 9.13842   1
   5  -5  -5 993.307 29.3478   1
  -5   5   4-1.54177 3.77665   2
  -5   5   4-10.9946 7.61875   1
  -5   5   3 68.7350 6.21996   2
  -5   5   3 57.1950 9.21866   1
  -5   5   3 55.3448 9.10880   1
  -5   5   2 31.0435 5.55381   2
  -5   5   2 21.5008 7.14452   1
  -5   5   2 34.2208 7.91100   1
  -5   5   1 15.2510 6.28214   1
  -5   5   1 14.3011 5.04181   2
  -5   5   1 16.9950 6.87710   1
  -5   5   0 11.9936 5.56465   2
  -5   5   0 25.4348 6.68645   1
  -5   5   0 26.8078 6.51047   1
  -5   5  -1 21.0982 6.03029   1
  -5   5  -1 26.3167 6.44842   2
  -5   5  -1 28.9240 6.27230   1
  -5   5  -2 7.17822 4.86822   1
  -5   5  -2-5.59092 4.56169   1
  -5   5  -2 0.43874 5.64462   2
  -5   5  -3 18.3943 4.82294   1
  -5   5  -3 26.9231 7.28923   2
  -5   5  -3 21.8466 5.34695   1
  -5   5  -4-5.33748 4.08300   1
  -5   5  -4-2.17550 6.81103   2
  -5   5  -4 8.20236 3.99145   1
  -5   5  -5 9.41658 3.30813   1
  -5   5  -5 7.19452 3.31740   1
  -5   5  -6 2.47542 8.57988   2
  -5   5  -7 5.32011 9.79123   2
  -5   5  -8 9.05622 9.30774   2
  -5   5  -9 40.5762 12.4483   2
  -5   4   9 110.728 16.0383   1
  -5   4   9 75.1242 13.7796   1
  -5   4   8 45.3830 11.9485   1
  -5   4   8 13.1893 10.5638   1
  -5   4   7 37.2233 10.5512   1
  -5   4   7 23.3471 10.7527   1
  -5   4   6 10.2394 8.65995   1
  -5   4   6-0.21703 8.48443   1
  -5   4   5 25.3329 7.64611   1
  -5   4   5 10.2332 7.75928   1
  -5   4   4 7.39043 2.61783   2
  -5   4   4 4.70624 6.88592   1
  -5   4   4 6.96955 5.95632   1
  -5   4   3 3.75304 5.78471   1
  -5   4   3-0.02260 3.17685   2
  -5   4   3-0.29251 6.48589   1
  -5   4   2 2.88115 5.96020   1
  -5   4   2 2.30097 3.75598   2
  -5   4   2-4.32945 6.22732   1
  -5   4   1 5.88307 5.37287   1
  -5   4   1 6.64248 5.50636   1
  -5   4   1 2.95500 4.20641   2
  -5   4   0 13.2213 5.41309   1
  -5   4   0 16.0167 5.07654   2
  -5   4   0 16.6251 5.49832   1
  -5   4  -1-1.95096 4.68139   1
  -5   4  -1-0.55223 4.53629   1
  -5   4  -1-2.45732 4.98243   2
  -5   4  -2 59.0596 7.29262   2
  -5   4  -2 49.4931 6.05994   1
  -5   4  -2 40.9136 5.75891   1
  -5   4  -3 9.20482 4.28522   1
  -5   4  -3-1.45515 5.44996   2
  -5   4  -3 1.67567 4.17031   1
  -5   4  -4 0.02893 3.73136   1
  -5   4  -4 0.60436 3.61931   1
  -5   4  -4 2.56429 6.40912   2
  -5   4  -5 2.44211 3.32244   1
  -5   4  -5-0.11880 6.50671   2
  -5   4  -5 0.13406 3.15244   1
  -5   4  -6 1.27297 2.01466   1
  -5   4  -6 0.43026 2.03214   1
  -5   4  -6-2.64010 8.09139   2
  -5   4  -7 4.17617 8.30508   2
  -5   4  -8 16.9691 9.74302   2
  -5   4  -9 17.0754 11.1741   2
  -5   3  10 0.44533 12.2634   1
  -5   3  10 3.93729 12.6916   1
  -5   3   9-15.1641 11.2110   1
  -5   3   9-2.59012 10.0673   1
  -5   3   8 51.9659 10.2182   1
  -5   3   8 56.1816 10.5332   1
  -5   3   7 43.9904 8.85928   1
  -5   3   7 34.6843 9.85331   1
  -5   3   6-2.80409 6.78365   1
  -5   3   6 10.9138 7.77149   1
  -5   3   5 33.7182 7.62616   1
  -5   3   5 36.3072 7.53258   1
  -5   3   4 49.8989 2.25830   2
  -5   3   4 58.2524 8.51171   1
  -5   3   4 61.2780 8.31505   1
  -5   3   3 31.2781 3.39736   2
  -5   3   3 20.6876 6.72489   1
  -5   3   3 33.3220 6.84879   1
  -5   3   2 32.5100 4.18332   2
  -5   3   2 40.7088 6.97325   1
  -5   3   2 36.0396 6.44569   1
  -5   3   1 9.45061 5.23371   1
  -5   3   1 4.24896 3.52401   2
  -5   3   1 7.00624 5.29044   1
  -5   3   0 29.2811 5.05222   2
  -5   3   0 25.0760 5.87111   1
  -5   3   0 31.1904 5.97242   1
  -5   3  -1-0.25143 4.46448   1
  -5   3  -1-0.58491 4.43196   2
  -5   3  -1 0.41826 4.50730   1
  -5   3  -2 45.1312 5.98233   1
  -5   3  -2 33.2845 6.05140   2
  -5   3  -2 45.2516 5.94586   1
  -5   3  -3 2.43160 4.11217   1
  -5   3  -3 2.29047 4.10937   1
  -5   3  -4 3.45119 3.93311   1
  -5   3  -4 0.52439 3.90415   1
  -5   3  -4 6.11473 6.13740   2
  -5   3  -5 32.5948 4.64296   1
  -5   3  -5 30.7627 8.17498   2
  -5   3  -5 25.9787 4.35501   1
  -5   3  -6 11.0214 3.18690   1
  -5   3  -6 12.7244 3.29646   1
  -5   3  -6 12.6875 7.55428   2
  -5   3  -7 0.20781 8.58697   2
  -5   3  -7 1.38969 1.51124   1
  -5   3  -8 21.9799 9.77776   2
  -5   3  -9 53.3006 13.5104   2
  -5   3 -10 10.6062 6.67534   2
  -5   2  11 8.43071 12.5508   1
  -5   2  11 12.6759 11.5747   1
  -5   2  10 5.34931 10.0201   1
  -5   2  10-10.4323 11.2475   1
  -5   2   9-7.32277 8.75625   1
  -5   2   9 8.03187 10.6085   1
  -5   2   8 27.3516 9.25579   1
  -5   2   8-0.52385 7.38096   1
  -5   2   7-10.7381 7.56620   1
  -5   2   7-5.77126 6.71641   1
  -5   2   6-3.92271 6.01135   1
  -5   2   6 6.09422 6.81655   1
  -5   2   5 0.24873 5.68815   1
  -5   2   5-7.87953 7.33743   1
  -5   2   4 10.8899 6.38479   1
  -5   2   4 10.7417 6.21740   1
  -5   2   3-7.07191 5.59479   1
  -5   2   3 2.21646 2.06229   2
  -5   2   3-2.55014 4.80171   1
  -5   2   2-0.76548 5.24193   1
  -5   2   2 8.23383 5.57462   1
  -5   2   2-1.21300 2.74789   2
  -5   2   1 64.0794 5.54289   2
  -5   2   1 62.2446 7.62396   1
  -5   2   1 70.5639 7.90597   1
  -5   2   0 129.617 7.75204   2
  -5   2   0 149.331 9.76840   1
  -5   2   0 134.660 9.26724   1
  -5   2  -1 19.0112 5.08935   2
  -5   2  -1 19.4159 5.29544   1
  -5   2  -1 29.7183 5.70476   1
  -5   2  -2-1.10421 4.41674   1
  -5   2  -2-2.75797 4.43101   1
  -5   2  -2-1.66647 4.64326   2
  -5   2  -3 91.8324 8.57305   2
  -5   2  -3 83.1932 7.09771   1
  -5   2  -3 100.322 7.37978   1
  -5   2  -4 2.71370 4.02232   1
  -5   2  -4 9.24260 6.51346   2
  -5   2  -4 4.31638 4.00170   1
  -5   2  -5 0.06144 4.01639   1
  -5   2  -5-1.12451 3.74493   1
  -5   2  -5 2.57006 6.45815   2
  -5   2  -6 10.4823 4.12153   1
  -5   2  -6 17.2648 4.25185   1
  -5   2  -6 15.5503 7.67617   2
  -5   2  -7 6.45855 3.40637   1
  -5   2  -7 3.49394 7.83211   2
  -5   2  -7 6.26745 3.33549   1
  -5   2  -8 0.93721 2.17408   1
  -5   2  -8 6.54489 8.29033   2
  -5   2  -9 56.8106 11.8471   2
  -5   1  11-2.08677 11.7844   1
  -5   1  11 24.5112 10.5782   1
  -5   1  10-2.64751 9.92537   1
  -5   1  10 11.6653 10.4309   1
  -5   1   9 0.54187 7.80332   1
  -5   1   9 31.1901 8.88762   1
  -5   1   8 10.2230 8.07396   1
  -5   1   8 3.85161 7.64172   1
  -5   1   7 5.50794 6.45233   1
  -5   1   7 28.1356 8.78018   1
  -5   1   6 28.2135 7.01486   1
  -5   1   6 30.9142 8.29420   1
  -5   1   5 13.0828 6.67138   1
  -5   1   5 9.77895 6.73651   1
  -5   1   4 2.27711 5.95431   1
  -5   1   4 12.4363 5.95576   1
  -5   1   3 48.3653 3.51021   2
  -5   1   3 40.6571 3.20251   2
  -5   1   3 42.0638 7.33477   1
  -5   1   3 40.2316 7.28164   1
  -5   1   2 162.629 6.82202   2
  -5   1   2 159.813 10.5027   1
  -5   1   2 150.989 10.3110   1
  -5   1   1 64.8106 5.36024   2
  -5   1   1 75.8814 7.92965   1
  -5   1   1 70.5228 7.99356   1
  -5   1   0-0.13932 4.76125   1
  -5   1   0-6.85127 4.73667   1
  -5   1   0 4.34726 3.87107   2
  -5   1  -1 16.9415 5.30100   1
  -5   1  -1 11.0939 4.87305   1
  -5   1  -1 13.2700 4.71020   2
  -5   1  -2 80.3098 7.50050   2
  -5   1  -2 77.1832 7.34849   1
  -5   1  -2 72.7861 7.22155   1
  -5   1  -3 22.1242 6.03024   2
  -5   1  -3 14.4527 4.78365   1
  -5   1  -3 15.2186 4.94864   1
  -5   1  -4 2.98411 4.38089   1
  -5   1  -4-2.16426 5.56246   2
  -5   1  -4 7.78336 4.90765   1
  -5   1  -5 9.22290 4.82807   1
  -5   1  -5 5.50067 4.65403   1
  -5   1  -6 19.2704 4.90756   1
  -5   1  -6 15.1869 7.35413   2
  -5   1  -6 13.0416 4.68109   1
  -5   1  -7-2.71891 7.70444   2
  -5   1  -7 9.98745 4.98959   1
  -5   1  -7 8.03177 4.93399   1
  -5   1  -8 8.57848 10.4231   2
  -5   1  -8 18.3108 5.01544   1
  -5   1  -8 24.9259 4.93656   1
  -5   1  -9 10.3603 3.92971   1
  -5   1  -9 3.30347 10.2539   2
  -5   1  -9 15.2907 4.29496   1
  -5   0  12 15.0599 10.5707   1
  -5   0  12 7.08959 12.5009   1
  -5   0  11 34.2221 10.1255   1
  -5   0  11 19.6661 11.2425   1
  -5   0  10-3.28325 7.47518   1
  -5   0  10 10.5409 8.22272   1
  -5   0   9 20.2526 7.64622   1
  -5   0   9-5.36957 8.50628   1
  -5   0   8 28.7396 8.17009   1
  -5   0   8 45.7637 8.53718   1
  -5   0   7 25.7647 6.89010   1
  -5   0   7 17.9680 7.78937   1
  -5   0   6 99.3148 10.3025   1
  -5   0   6 112.255 10.1724   1
  -5   0   5-0.48293 5.53516   1
  -5   0   5 9.38308 6.35502   1
  -5   0   4 5.33794 6.11655   1
  -5   0   4 5.55053 6.21717   1
  -5   0   4 5.99093 1.01125   2
  -5   0   3 28.4216 7.06923   1
  -5   0   3 33.4732 3.43927   2
  -5   0   3 30.4428 3.27637   2
  -5   0   3 39.0744 6.67632   1
  -5   0   2 48.3202 4.70639   2
  -5   0   2 47.1683 6.73286   1
  -5   0   2 50.3331 4.65530   2
  -5   0   2 39.6211 6.85920   1
  -5   0   1 24.8038 4.59280   2
  -5   0   1 24.9887 4.50709   2
  -5   0   1 15.9823 5.86010   1
  -5   0   1 30.7365 6.40921   1
  -5   0   0 1.43621 4.73403   1
  -5   0   0-2.29658 3.89062   2
  -5   0   0 1.02745 5.10176   1
  -5   0  -1 59.2240 6.69136   2
  -5   0  -1 61.2648 7.30333   1
  -5   0  -1 52.7252 7.10345   1
  -5   0  -2 40.2456 6.50253   2
  -5   0  -2 41.2337 6.30476   1
  -5   0  -2 30.2983 5.92205   1
  -5   0  -3 3.75341 4.70191   1
  -5   0  -3 6.24750 5.37885   2
  -5   0  -4 13.9875 5.58790   1
  -5   0  -4 22.4280 7.08549   2
  -5   0  -5 17.7516 5.86446   1
  -5   0  -5 16.2691 7.55094   2
  -5   0  -6 24.2870 5.81101   1
   5   0   6 15.0391 5.50216   1
   5   0   7 28.2418 6.37976   1
  -5   0  -7 38.6645 6.97310   1
  -5   0  -7 42.7307 10.9727   2
   5   0   8-7.78324 6.02926   1
  -5   0  -8 6.94943 11.5891   2
  -5   0  -8-2.59727 6.14850   1
  -5   0  -9 66.5684 13.6171   2
  -5   0  -9 64.5469 6.92829   1
  -5  -1  12 6.82666 10.3911   1
  -5  -1  12 3.04759 9.43588   1
  -5  -1  11 19.6697 11.5665   1
  -5  -1  11-9.03840 10.2810   1
  -5  -1  10-13.9316 9.82946   1
  -5  -1  10 4.88129 7.73876   1
  -5  -1   9 17.8998 7.71825   1
  -5  -1   9 6.15427 7.29517   1
  -5  -1   8 12.5522 7.11925   1
  -5  -1   8 12.6925 8.49407   1
  -5  -1   7 0.20155 7.13911   1
  -5  -1   7 1.98290 6.62097   1
  -5  -1   6 4.73181 6.69955   1
  -5  -1   6 5.44710 6.89234   1
  -5  -1   5 18.0186 7.44360   1
  -5  -1   5 18.7561 5.95570   1
  -5  -1   4 169.987 5.54224   2
  -5  -1   4 157.179 5.13211   2
  -5  -1   4 170.521 11.5327   1
  -5  -1   4 186.227 12.5834   1
  -5  -1   3 73.1531 5.11791   2
  -5  -1   3 68.9604 8.44973   1
  -5  -1   3 72.9609 4.98479   2
  -5  -1   3 69.5080 8.66599   1
  -5  -1   2 6.39780 3.66581   2
  -5  -1   2 4.41868 5.13840   1
  -5  -1   2 9.53962 3.65558   2
  -5  -1   2 7.97399 6.04944   1
  -5  -1   1 14.1345 4.55717   2
  -5  -1   1 17.4412 6.33693   1
  -5  -1   0 234.583 10.9723   2
  -5  -1   0 218.584 12.2194   1
  -5  -1  -1 44.8702 6.60551   2
   5   1   1 49.4797 7.16311   1
  -5  -1  -1 45.0633 6.86870   1
  -5  -1  -2 5.90733 5.42293   2
  -5  -1  -2-2.42948 5.39533   1
   5   1   2 6.63071 5.49226   1
  -5  -1  -3 18.1934 6.70773   2
   5   1   3 8.07421 5.67235   1
  -5  -1  -3 9.33912 5.73301   1
  -5  -1  -4 13.5060 5.78489   1
   5   1   4 0.86438 5.48604   1
  -5  -1  -5 53.1226 7.67205   1
   5   1   5 57.3857 7.87884   1
  -5  -1  -6 32.5464 7.49242   1
   5   1   6 5.72224 6.23985   1
   5   1   7 7.35439 6.51506   1
  -5  -1  -7 15.0438 7.26023   1
  -5  -1  -8 21.9633 12.2675   2
   5   1   8 10.4221 7.36642   1
  -5  -1  -8 17.1277 7.96871   1
  -5  -2  13 45.3360 9.56623   1
  -5  -2  13 21.2768 7.49798   1
  -5  -2  12 21.9330 9.99297   1
  -5  -2  12 4.60838 11.4480   1
  -5  -2  11 7.34282 10.6740   1
  -5  -2  11 11.3718 10.6532   1
  -5  -2  10 10.3762 9.60884   1
  -5  -2  10 24.3687 8.88191   1
  -5  -2   9 1.69713 7.67179   1
  -5  -2   9 14.2224 9.03370   1
  -5  -2   8-9.55982 6.72573   1
  -5  -2   8 4.08168 8.08383   1
  -5  -2   7 20.0716 8.02227   1
  -5  -2   7 4.99664 7.45225   1
  -5  -2   6 4.13965 6.47953   1
  -5  -2   6 6.83210 7.09081   1
  -5  -2   5-0.92574 1.83011   2
  -5  -2   5-2.73934 6.59178   1
  -5  -2   5-1.88799 1.80063   2
  -5  -2   5-2.35398 5.77841   1
  -5  -2   4 18.3373 3.62514   2
  -5  -2   4 24.1715 6.79957   1
  -5  -2   4 9.58342 5.59784   1
  -5  -2   3 40.7443 4.92907   2
  -5  -2   3 45.4890 8.10816   1
  -5  -2   2 41.4714 5.62435   2
  -5  -2   2 42.6030 8.01871   1
  -5  -2   1 17.8166 6.04289   1
  -5  -2   1 17.8952 4.93195   2
   5   2  -1 31.4161 7.00443   1
  -5  -2   0 9.83924 5.02908   2
   5   2   0-2.30252 5.88041   1
  -5  -2   0-6.67335 5.54741   1
  -5  -2  -1-6.09532 5.87640   2
  -5  -2  -1-3.40159 6.12301   1
   5   2   1 1.80756 5.72200   1
  -5  -2  -2 67.2400 8.61816   2
  -5  -2  -2 49.7506 7.73241   1
   5   2   2 44.8657 7.62834   1
   5   2   3 14.4807 6.48251   1
  -5  -2  -3 11.8315 6.90971   2
  -5  -2  -3 9.30528 6.12049   1
  -5  -2  -4 61.7963 9.48751   2
  -5  -2  -4 70.4892 8.85698   1
   5   2   4 71.3401 8.90999   1
  -5  -2  -5 78.5356 11.9235   2
  -5  -2  -5 83.2329 9.87242   1
   5   2   5 77.0955 9.61086   1
  -5  -2  -6 1.00836 9.87400   2
   5   2   6-6.67525 7.82169   1
  -5  -2  -6-10.8125 7.46063   1
  -5  -2  -7 66.5473 14.0269   2
  -5  -2  -7 58.1644 9.75010   1
   5   2   7 52.8264 9.68126   1
  -5  -3  12 21.6271 10.8652   1
  -5  -3  12 14.7055 11.6781   1
  -5  -3  11 23.6891 10.8669   1
  -5  -3  11 33.9098 11.1253   1
  -5  -3  10 10.1946 9.72274   1
  -5  -3  10 3.30483 9.83671   1
  -5  -3   9 7.71320 8.05502   1
  -5  -3   9 18.8704 8.82325   1
  -5  -3   8 20.8101 9.10523   1
  -5  -3   8 9.80891 8.83996   1
  -5  -3   7 5.89225 7.83302   1
  -5  -3   7 4.76305 7.70766   1
  -5  -3   6 7.90444 7.38756   1
  -5  -3   6 2.98102 2.16445   2
  -5  -3   6 9.04805 7.01154   1
  -5  -3   5-1.03979 6.36857   1
  -5  -3   5 2.84047 3.21754   2
  -5  -3   5 3.45730 7.28734   1
  -5  -3   4 29.7192 4.67756   2
  -5  -3   4 14.8554 7.15085   1
  -5  -3   3 14.9806 6.03360   1
  -5  -3   3 14.4743 4.84769   2
   5   3  -3 16.8579 7.35565   1
  -5  -3   2 8.88696 5.63249   1
   5   3  -2 4.94336 6.60516   1
  -5  -3   2 1.55525 4.43929   2
  -5  -3   1-2.23869 4.84821   2
   5   3  -1 3.16066 6.05468   1
  -5  -3   1 7.49494 6.64636   1
  -5  -3   0 0.69115 5.48931   2
   5   3   0 5.56840 6.80194   1
  -5  -3   0-2.02655 5.40821   1
  -5  -3  -1 31.6892 7.29420   2
  -5  -3  -1 33.4449 7.47180   1
   5   3   1 37.3593 7.62238   1
  -5  -3  -2 26.5568 7.81725   2
  -5  -3  -2 33.3749 7.76039   1
   5   3   2 29.5181 7.26126   1
  -5  -3  -3 27.5750 8.21904   2
  -5  -3  -3 30.1367 7.92276   1
   5   3   3 18.7467 7.61548   1
  -5  -3  -4 20.6779 8.17724   1
  -5  -3  -4 35.9616 9.48632   2
   5   3   4 30.6348 8.72043   1
  -5  -3  -5 27.4587 11.2802   2
  -5  -3  -5 60.1996 10.0259   1
   5   3   5 50.4681 9.44136   1
  -5  -3  -6-14.6286 11.4632   2
   5   3   6-8.05549 8.70674   1
  -5  -3  -6 13.5294 8.77592   1
  -5  -4  12-0.70810 12.1876   1
  -5  -4  12 15.9365 10.1623   1
  -5  -4  11 11.3887 10.9448   1
  -5  -4  11 37.3749 10.1300   1
  -5  -4  10 46.5998 11.5885   1
  -5  -4  10 66.6435 11.2722   1
  -5  -4   9-1.31434 7.54066   1
  -5  -4   9-11.8658 10.4948   1
  -5  -4   8 0.59715 7.99645   1
  -5  -4   8-3.90633 8.35528   1
  -5  -4   7 3.32536 6.45238   1
  -5  -4   7 2.09709 2.73269   2
  -5  -4   7-4.66961 8.75401   1
  -5  -4   6 0.56218 7.77961   1
  -5  -4   6 14.2024 4.08806   2
  -5  -4   6 5.86044 6.12020   1
  -5  -4   5 11.5445 8.41957   1
   5   4  -5-4.80032 6.31914   1
  -5  -4   5 4.60963 4.39467   2
  -5  -4   4-4.51412 6.75907   1
  -5  -4   4 6.21967 5.01898   2
   5   4  -4 5.79987 7.08873   1
  -5  -4   3 0.04151 5.27166   2
   5   4  -3-1.33771 6.68026   1
  -5  -4   3-11.0950 7.22086   1
  -5  -4   2 15.3105 6.05621   2
   5   4  -2 29.3619 7.68334   1
  -5  -4   2 27.5226 7.54496   1
   5   4  -1 35.4485 9.18272   1
  -5  -4   1 24.2175 7.03093   2
  -5  -4   1 30.5454 8.14485   1
  -5  -4   0 5.29661 6.68089   2
  -5  -4   0 10.0951 7.48374   1
   5   4   0 2.00201 6.76459   1
  -5  -4  -1 26.4043 8.04536   2
  -5  -4  -1 21.6575 8.02650   1
   5   4   1 30.5689 7.86846   1
  -5  -4  -2 21.5181 8.66827   2
  -5  -4  -2 14.0378 7.89010   1
   5   4   2 30.7377 9.21133   1
  -5  -4  -3 12.6643 8.42605   1
  -5  -4  -3 27.8919 9.54794   2
   5   4   3 11.2661 9.15609   1
  -5  -4  -4 93.2917 12.6687   2
  -5  -4  -4 108.588 12.3213   1
   5   4   4 85.5073 11.9413   1
  -5  -4  -5-3.83895 10.4702   2
   5   4   5 12.8270 10.4050   1
  -5  -4  -5-11.0315 11.3297   1
  -5  -5  12 19.7508 10.1326   1
  -5  -5  12 12.7054 10.0420   1
  -5  -5  11-11.0270 12.9475   1
  -5  -5  11-8.70388 9.20131   1
  -5  -5  10 36.7504 11.3677   1
  -5  -5  10 29.7043 11.8949   1
  -5  -5   9-5.30725 7.80634   1
  -5  -5   9-4.65873 2.50199   2
  -5  -5   9 7.36375 8.98130   1
  -5  -5   8-6.10054 8.17134   1
  -5  -5   8 1.24177 3.86359   2
  -5  -5   8-0.08037 9.24969   1
  -5  -5   7 22.5714 9.25161   1
  -5  -5   7 15.9288 4.69250   2
  -5  -5   6 6.56839 7.34319   1
   5   5  -6 19.9707 7.72663   1
  -5  -5   6 5.63349 4.75528   2
  -5  -5   5 6.20035 5.30666   2
   5   5  -5 1.47496 7.25341   1
  -5  -5   5 0.44026 8.08258   1
  -5  -5   4 4.32945 5.57856   2
   5   5  -4 15.7350 7.52435   1
  -5  -5   4 14.6526 7.01345   1
   5   5  -3 26.8323 8.01648   1
  -5  -5   3 10.8319 6.20472   2
  -5  -5   3 7.03193 8.28893   1
   5   5  -2 20.6424 9.07928   1
  -5  -5   2 17.5168 6.81594   2
  -5  -5   2 18.0787 7.42224   1
  -5  -5   1 51.3779 8.59592   2
  -5  -5   1 56.8052 9.81987   1
   5   5  -1 62.6911 9.78503   1
  -5  -5   0 24.9895 8.82769   2
  -5  -5   0-0.07340 7.45619   1
   5   5   0 12.0764 8.26294   1
  -5  -5  -1 139.666 12.9859   2
  -5  -5  -1 148.940 13.9884   1
  -5  -5  -2 11.3027 9.55962   1
  -5  -5  -2 7.50534 8.85954   2
   5   5   2-2.03845 10.1036   1
  -5  -5  -3-15.4925 11.1458   1
   5   5   3 15.3856 10.0703   1
  -5  -5  -3-13.6213 12.0412   2
   5   5   4 20.7293 9.91988   1
  -5  -5  -4 9.20006 11.6513   2
  -5  -5  -4 9.19680 9.24885   1
  -5  -6  11 39.1133 11.7557   1
  -5  -6  11 8.33976 12.0905   1
  -5  -6  10 24.0792 11.8270   1
  -5  -6  10 6.27090 10.4192   1
  -5  -6   9-14.8106 10.3328   1
  -5  -6   9-5.46701 5.10037   2
  -5  -6   8 6.70535 9.15652   1
  -5  -6   8 6.50864 5.35785   2
  -5  -6   7-8.43199 5.62706   2
  -5  -6   7-18.7563 10.0762   1
   5   6  -6-3.22343 10.2991   1
  -5  -6   6-1.91588 5.92025   2
  -5  -6   6 12.1035 8.37799   1
  -5  -6   5 1.18116 6.61675   2
  -5  -6   5-10.3332 8.95864   1
   5   6  -4 5.09986 9.47443   1
  -5  -6   4 16.2859 7.70744   2
  -5  -6   4 9.69203 9.48516   1
   5   6  -3-1.60434 8.73836   1
  -5  -6   3 2.48220 7.70520   2
  -5  -6   3-5.15203 7.67284   1
  -5  -6   2 85.1277 10.9884   2
  -5  -6   2 93.4864 13.1714   1
   5   6  -2 91.7432 12.9333   1
  -5  -6   1-11.8580 9.19067   2
  -5  -6   1 16.9532 9.25506   1
   5   6  -1 7.57990 10.0369   1
  -5  -6   0 69.2667 11.3943   2
  -5  -6   0 81.6476 11.6416   1
  -5  -6  -1-2.31195 9.09933   1
   5   6   1 8.69023 10.0793   1
  -5  -6  -1 3.99296 9.94707   2
  -5  -6  -2-5.21125 10.1372   1
   5   6   2 21.1171 11.7683   1
  -5  -6  -2 26.0957 11.6935   2
  -5  -7   9-0.89527 6.87559   2
  -5  -7   9 1.97009 10.3889   1
  -5  -7   8 44.2497 8.21270   2
  -5  -7   8 33.5001 11.7994   1
   5   7  -7 8.54011 9.90139   1
  -5  -7   7-3.60563 7.25570   2
  -5  -7   7-4.17115 11.2280   1
  -5  -7   6 26.5687 8.38997   2
  -5  -7   6 41.7871 11.3653   1
   5   7  -6 53.9359 11.4434   1
   5   7  -5 9.74524 9.53034   1
  -5  -7   5 20.0402 8.43670   2
  -5  -7   5 33.3801 12.0730   1
   5   7  -4-15.9833 13.0435   1
  -5  -7   4-3.31009 8.82366   2
  -5  -7   4 14.2687 11.7028   1
  -5  -7   3 12.3149 9.56912   2
  -5  -7   3 2.26887 11.8674   1
   5   7  -3 17.1201 10.0455   1
  -5  -7   2 3.60327 12.3495   1
  -5  -7   2 28.5852 10.6246   2
   5   7  -2-5.12530 10.9054   1
  -5  -7   1 31.8049 11.1611   1
  -5  -7   1 21.7501 11.9906   2
  -6   6   2 10.7046 5.49178   1
  -6   6   2 11.3993 5.67757   1
  -6   6   1 28.2067 7.70761   2
  -6   6   1 22.5580 9.83656   1
  -6   6   1 15.0389 9.49687   1
  -6   6   0-2.27132 7.62743   2
  -6   6   0 0.42658 8.83952   1
  -6   6   0-2.90713 8.74916   1
  -6   6  -1-11.9517 8.23941   1
  -6   6  -1 3.15508 8.07599   1
  -6   6  -2 8.74169 8.89668   2
  -6   6  -2-8.71306 7.40558   1
  -6   6  -2-11.8685 7.89237   1
  -6   6  -3 30.2009 8.17475   2
  -6   6  -3 22.1083 5.87264   1
  -6   6  -3 24.1410 5.85436   1
  -6   5   4-11.0271 11.3454   1
  -6   5   4-9.51654 10.6581   1
  -6   5   3-13.0885 11.3373   1
  -6   5   3-0.30162 4.19896   2
  -6   5   2-4.38886 5.75380   2
  -6   5   2 15.3924 8.87224   1
  -6   5   2 11.6330 9.03001   1
  -6   5   1 7.03876 6.14725   2
  -6   5   1 16.3964 8.43601   1
  -6   5   1 4.10200 8.47528   1
  -6   5   0-1.94323 8.21007   1
  -6   5   0 14.6880 6.76918   2
  -6   5   0 12.5355 7.96069   1
  -6   5  -1-3.45554 8.05339   1
  -6   5  -1 10.0825 7.42129   1
  -6   5  -1 9.18309 7.84045   2
  -6   5  -2-1.15409 7.48446   1
  -6   5  -2 14.2430 8.14164   2
  -6   5  -2-4.33076 7.82167   1
  -6   5  -3 16.7489 7.07052   1
  -6   5  -3-5.30951 6.07280   1
  -6   5  -3 1.93298 8.65650   2
  -6   5  -4 15.6732 6.09830   1
  -6   5  -4 21.1746 10.3214   2
  -6   5  -4 19.8386 6.41514   1
  -6   5  -5 1.34290 3.25394   1
  -6   5  -5-6.58369 3.50868   1
  -6   4   6-4.58662 10.3130   1
  -6   4   6 2.46212 9.64257   1
  -6   4   5-0.08110 10.9135   1
  -6   4   5 23.6017 11.7525   1
  -6   4   4 9.43786 10.4339   1
  -6   4   4 24.7067 10.4013   1
  -6   4   3 0.98621 3.09184   2
  -6   4   3-1.47649 9.57135   1
  -6   4   3-8.14310 9.17855   1
  -6   4   2 23.5759 8.66180   1
  -6   4   2 15.3142 5.16817   2
  -6   4   2 23.4143 9.19307   1
  -6   4   1-2.70560 7.37928   1
  -6   4   1-2.76521 7.67782   1
  -6   4   1-1.11612 5.41656   2
  -6   4   0 5.28161 7.40033   1
  -6   4   0 1.82597 7.01891   1
  -6   4   0 18.3729 6.90221   2
  -6   4  -1-5.10060 6.91426   1
  -6   4  -1 2.84394 6.67252   2
  -6   4  -1-10.6301 7.06685   1
  -6   4  -2-2.96767 6.73241   1
  -6   4  -2-8.87538 6.70345   1
  -6   4  -2-0.68924 7.38664   2
  -6   4  -3-4.49472 6.53284   1
  -6   4  -3-1.44718 6.61662   1
  -6   4  -4 0.80227 5.67839   1
  -6   4  -4-10.6392 9.57825   2
  -6   4  -5 46.2573 11.5706   2
  -6   4  -5 45.5011 6.31787   1
  -6   4  -5 55.1404 6.51408   1
  -6   4  -6 6.13507 5.72522   2
  -6   3   7 3.14857 12.7907   1
  -6   3   7 0.95164 12.2540   1
  -6   3   6-1.95776 10.9366   1
  -6   3   6 6.39973 10.6876   1
  -6   3   5 30.9890 9.76060   1
  -6   3   5 29.4888 11.3592   1
  -6   3   4 34.3434 10.9184   1
  -6   3   4 13.0779 9.74162   1
  -6   3   3-8.07337 7.55412   1
  -6   3   3-0.72612 2.35875   2
  -6   3   3-6.54625 7.54550   1
  -6   3   2 3.78922 7.99059   1
  -6   3   2 1.75629 7.50931   1
  -6   3   2 9.67300 4.49411   2
  -6   3   1 20.6341 8.22107   1
  -6   3   1 19.4195 5.58556   2
  -6   3   1 12.0640 7.61155   1
  -6   3   0 14.0734 7.53669   1
  -6   3   0 20.2147 6.58772   2
  -6   3   0 10.4868 7.35562   1
  -6   3  -1 7.25037 6.74179   1
  -6   3  -1 13.1256 6.84379   2
  -6   3  -1 5.72111 7.00071   1
  -6   3  -2 0.59139 6.28483   1
  -6   3  -2 0.43967 6.25080   1
  -6   3  -2 16.8733 7.61296   2
  -6   3  -3-4.43726 5.83848   1
  -6   3  -3-5.48370 6.45377   1
  -6   3  -3 5.68017 7.55199   2
  -6   3  -4 18.9796 6.31666   1
  -6   3  -4 15.8851 8.96374   2
  -6   3  -4 16.2219 6.33549   1
  -6   3  -5 9.15383 5.60206   1
  -6   3  -5-3.62594 5.44334   1
  -6   3  -5 20.5499 9.93196   2
  -6   3  -6 20.3333 4.69622   1
  -6   3  -6 23.6348 4.93813   1
  -6   2   8 28.3393 13.2629   1
  -6   2   8 72.3930 15.2595   1
  -6   2   7-10.3329 12.2681   1
  -6   2   7 4.61344 11.5490   1
  -6   2   6 12.2181 10.4268   1
  -6   2   6 8.23276 8.67747   1
  -6   2   5 14.5253 10.2257   1
  -6   2   5 4.70576 8.38131   1
  -6   2   4 17.9486 9.51412   1
  -6   2   4 12.4316 9.02595   1
  -6   2   3 11.4913 7.99840   1
  -6   2   3 18.0797 7.90847   1
  -6   2   3 6.38963 2.47654   2
  -6   2   3 7.06140 2.36865   2
  -6   2   2-9.01273 7.95693   1
  -6   2   2-0.15187 3.91664   2
  -6   2   2 2.17038 8.02599   1
  -6   2   1 0.48339 7.04472   1
  -6   2   1 1.15130 4.98591   2
  -6   2   1-0.06062 7.79416   1
  -6   2   0 23.6707 7.64765   1
  -6   2   0 22.3169 7.50071   1
  -6   2   0 29.5447 6.42227   2
  -6   2  -1-2.70067 6.44750   1
  -6   2  -1-2.96655 6.49778   1
  -6   2  -1-6.89416 6.56306   2
  -6   2  -2 54.2458 8.41670   2
  -6   2  -2 64.1259 8.84145   1
  -6   2  -2 70.4040 9.03921   1
  -6   2  -3-8.06408 6.37081   1
  -6   2  -3 19.5685 8.40700   2
  -6   2  -4 6.33411 6.18181   1
  -6   2  -4-8.10203 8.94678   2
  -6   2  -4 2.19045 6.26650   1
  -6   2  -5 25.9788 6.55098   1
  -6   2  -5 33.3325 6.91912   1
  -6   2  -5 23.5141 9.75041   2
  -6   2  -6 2.68631 5.71336   1
  -6   2  -6 3.94999 5.73926   1
  -6   2  -6 10.5797 10.0356   2
  -6   1   9 32.6602 11.7078   1
  -6   1   9 21.5120 12.9380   1
  -6   1   8-16.1182 12.5783   1
  -6   1   8 10.6074 11.4736   1
  -6   1   7 8.23738 10.6495   1
  -6   1   7-3.75361 9.10943   1
  -6   1   6 1.48560 8.41979   1
  -6   1   6 12.8686 10.2558   1
  -6   1   5 6.79746 8.94213   1
  -6   1   5 6.23357 7.81934   1
  -6   1   4 15.9144 7.77891   1
  -6   1   4 10.7860 8.61173   1
  -6   1   3 76.1468 4.41780   2
  -6   1   3 70.9157 4.23179   2
  -6   1   3 61.2004 10.0857   1
  -6   1   3 79.1649 10.1897   1
  -6   1   2 136.975 7.45308   2
  -6   1   2 128.560 7.17836   2
  -6   1   2 145.907 12.0630   1
  -6   1   2 142.144 11.8756   1
  -6   1   1 112.166 7.90189   2
  -6   1   1 132.341 11.3150   1
  -6   1   1 111.616 7.79048   2
  -6   1   1 102.847 10.8464   1
  -6   1   0 3.49035 6.87999   1
  -6   1   0 4.50824 6.69588   1
  -6   1   0-3.45846 5.82927   2
  -6   1  -1 11.4167 7.24504   1
  -6   1  -1 12.1826 6.97270   1
  -6   1  -1-2.09814 6.15745   2
  -6   1  -2 13.5960 7.31137   1
  -6   1  -2 10.3061 7.07185   1
  -6   1  -2 14.2729 7.59681   2
  -6   1  -3 11.3982 7.06814   1
  -6   1  -3 19.6960 8.11757   2
  -6   1  -3 5.01499 7.19196   1
  -6   1  -4 8.51095 6.57159   1
  -6   1  -4-0.38385 6.88062   1
  -6   1  -4 3.38409 8.79698   2
  -6   1  -5-3.41125 6.93766   1
  -6   1  -5 2.45722 6.96265   1
  -6   1  -5 5.70793 9.88657   2
  -6   1  -6 24.9272 5.68293   1
  -6   1  -6-6.61400 8.79624   2
  -6   0   9 42.2355 13.8865   1
  -6   0   9 23.2257 12.5189   1
  -6   0   8-5.69817 9.77642   1
  -6   0   8-21.6251 10.5058   1
  -6   0   7 1.21707 10.1555   1
  -6   0   7 14.3753 10.8456   1
  -6   0   6-0.46748 8.31483   1
  -6   0   6-5.81455 9.61254   1
  -6   0   5 41.1683 10.1587   1
  -6   0   5 22.8322 8.50028   1
  -6   0   4 85.5250 11.2472   1
  -6   0   4 62.6659 10.8533   1
  -6   0   3 13.9810 8.23056   1
  -6   0   3 1.83710 3.34273   2
  -6   0   3-3.40268 3.32128   2
  -6   0   3 9.62751 7.21517   1
  -6   0   2 36.8436 8.71407   1
  -6   0   2 34.8122 5.37572   2
  -6   0   2 29.6848 5.14642   2
  -6   0   2 47.2883 9.14327   1
  -6   0   1 65.4358 7.15786   2
  -6   0   1 58.0245 6.66029   2
  -6   0   1 65.4554 10.0534   1
  -6   0   1 58.3783 9.15522   1
  -6   0   0 6.04774 7.87340   1
  -6   0   0 22.3667 7.95243   1
  -6   0   0 8.20373 6.02492   2
  -6   0   0 16.5618 6.30224   2
  -6   0  -1 25.7211 8.16692   1
  -6   0  -1 13.1299 7.19485   2
  -6   0  -1 13.5504 6.83941   2
  -6   0  -1 6.97260 7.33978   1
  -6   0  -2 6.92865 7.58584   2
  -6   0  -2-4.03209 7.04468   2
  -6   0  -2 10.2723 7.70203   1
  -6   0  -2 0.41039 6.95584   1
  -6   0  -3 25.5762 8.07255   1
  -6   0  -3 12.1637 8.04317   2
  -6   0  -3 18.5799 7.57686   1
  -6   0  -4 21.0470 7.82932   1
  -6   0  -4 19.9817 9.39761   2
  -6   0  -4 15.8990 7.85338   1
  -6   0  -5 18.1241 8.31918   1
  -6   0  -5 0.22246 9.72875   2
  -6   0  -5 0.68254 7.60957   1
  -6  -1   9-7.99427 12.1177   1
  -6  -1   9-7.31627 12.8208   1
  -6  -1   8-10.9785 11.5705   1
  -6  -1   8 5.63539 8.87667   1
  -6  -1   7 3.11513 8.54905   1
  -6  -1   7-11.6147 9.80214   1
  -6  -1   6 23.6088 10.8426   1
  -6  -1   6 20.6134 9.53501   1
  -6  -1   5 8.83232 7.89195   1
  -6  -1   5 15.9797 9.70611   1
  -6  -1   4 14.6715 2.71975   2
  -6  -1   4 23.5618 9.61802   1
  -6  -1   4 13.8770 2.53662   2
  -6  -1   3 12.4048 8.01365   1
  -6  -1   3 20.8809 4.62424   2
  -6  -1   3 12.0619 8.88543   1
  -6  -1   3 9.62152 4.07091   2
  -6  -1   2 12.1479 8.14496   1
  -6  -1   2 4.32706 4.97587   2
  -6  -1   2 3.22656 4.95574   2
  -6  -1   2 5.86414 7.44350   1
  -6  -1   1 2.11140 8.44660   1
  -6  -1   1 6.35858 5.87872   2
  -6  -1   1 1.32623 5.79599   2
  -6  -1   1-4.40188 7.96668   1
  -6  -1   0 52.4343 8.02337   2
  -6  -1   0 40.6784 7.82025   2
  -6  -1   0 55.2075 9.71114   1
  -6  -1   0 56.7401 9.59256   1
  -6  -1  -1 20.5514 7.90494   2
  -6  -1  -1 8.77131 7.35269   2
  -6  -1  -1 5.60970 7.74678   1
  -6  -1  -1 23.3449 8.52017   1
  -6  -1  -2 10.9815 8.54421   2
  -6  -1  -2-5.06199 7.69023   2
  -6  -1  -2-1.64334 8.07500   1
  -6  -1  -3 23.9848 8.98996   2
  -6  -1  -3 26.6946 8.55146   1
  -6  -1  -3 38.4313 9.69242   2
  -6  -1  -4 20.8716 10.4978   2
  -6  -1  -4 16.2517 8.97446   1
  -6  -1  -4 43.0953 11.1413   2
  -6  -1  -5 5.70424 6.73195   2
  -6  -1  -5 15.1109 6.69707   2
  -6  -2   9 41.9377 14.4177   1
  -6  -2   9 50.4985 13.5397   1
  -6  -2   8 24.2014 11.8293   1
  -6  -2   8 9.07010 9.82322   1
  -6  -2   7-9.32691 9.36723   1
  -6  -2   7 11.6206 8.96890   1
  -6  -2   6 33.6190 10.0786   1
  -6  -2   6 17.4210 10.7962   1
  -6  -2   5 1.83116 10.2434   1
  -6  -2   5-3.71315 7.78782   1
  -6  -2   5 2.04811 1.18845   2
  -6  -2   4 60.0612 5.50686   2
  -6  -2   4 55.1413 5.07135   2
  -6  -2   4 58.6924 10.4361   1
  -6  -2   3 16.1384 9.07326   1
  -6  -2   3 4.03799 4.94225   2
  -6  -2   3 1.94570 4.83923   2
  -6  -2   3-0.52374 9.22460   1
  -6  -2   2-9.68258 8.67926   1
  -6  -2   2 11.8503 5.90159   2
  -6  -2   2 12.9322 5.92594   2
  -6  -2   2 12.6478 9.28540   1
  -6  -2   1-2.00684 6.08691   2
  -6  -2   1-2.72472 7.87461   1
  -6  -2   1-5.71694 7.71706   1
  -6  -2   0 10.2831 7.30189   2
  -6  -2   0 12.9529 9.24979   1
  -6  -2  -1 6.20407 7.83912   2
  -6  -2  -1-9.65976 8.65276   1
  -6  -2  -2 29.9731 9.56426   1
   6   2   2 14.7050 9.04930   1
  -6  -2  -3 15.0181 9.90310   2
  -6  -2  -3 11.4653 9.33166   1
   6   2   3 5.56972 9.24724   1
  -6  -2  -4 15.3106 6.63643   1
   6   2   4 20.7247 6.71518   1
  -6  -2  -4 12.1248 8.13431   2
  -6  -3   9-8.34583 10.3123   1
  -6  -3   8 7.71651 9.96501   1
  -6  -3   8 17.8970 13.0861   1
  -6  -3   7-9.26671 9.86087   1
  -6  -3   7 10.7426 11.2539   1
  -6  -3   6-1.48626 9.31871   1
  -6  -3   6 14.8755 10.9022   1
  -6  -3   5 0.32153 10.4670   1
  -6  -3   5-3.03935 3.76146   2
  -6  -3   5 4.72111 3.67703   2
  -6  -3   5 4.70708 10.4640   1
  -6  -3   4-3.06085 10.4206   1
  -6  -3   4-5.87477 5.01407   2
  -6  -3   4 6.44611 8.51969   1
  -6  -3   3 40.3430 9.94851   1
  -6  -3   3 25.8695 6.72700   2
  -6  -3   2 21.2954 7.12568   2
  -6  -3   2 16.2127 10.2948   1
   6   3  -1-16.7847 10.1423   1
  -6  -3   1 8.38419 9.54823   1
  -6  -3   0 43.0882 9.24381   2
   6   3   0 44.4855 11.3022   1
  -6  -3   0 36.5961 10.0657   1
  -6  -3  -1 3.94238 9.09699   2
  -6  -3  -1 0.37094 10.2089   1
   6   3   1 11.4177 9.05687   1
  -6  -3  -2 99.1763 13.3455   2
   6   3   2 64.8666 12.2961   1
  -6  -3  -2 104.193 13.1794   1
  -6  -4   8 7.72916 10.7187   1
  -6  -4   8 33.3995 14.0475   1
  -6  -4   7 26.4652 10.2263   1
  -6  -4   7-2.82490 11.2663   1
  -6  -4   6 20.5408 11.8871   1
  -6  -4   6 2.13238 4.03436   2
  -6  -4   6 16.2405 10.4218   1
  -6  -4   5 17.9822 9.70916   1
  -6  -4   5 3.72800 5.69932   2
  -6  -4   5-0.78192 11.6821   1
  -6  -4   4 3.14420 6.27864   2
  -6  -4   4-3.39819 9.52981   1
  -6  -4   3-4.09843 7.55078   2
  -6  -4   3 5.61203 11.2019   1
  -6  -4   2 11.9848 7.71782   2
   6   4  -2 11.9306 10.8780   1
  -6  -4   2 4.51642 9.33681   1
  -6  -4   1 10.2163 8.76777   2
   6   4  -1 1.45477 11.1183   1
  -6  -4   1 29.7804 11.6948   1
  -6  -4   0 79.0654 11.8938   2
  -6  -4   0 69.7138 13.3272   1
  -6  -4  -1 27.9348 8.58001   2
  -6  -4  -1 8.57156 6.61346   1
   6   4   1 9.51981 6.63305   1
  -6  -5   7 26.4972 3.77102   2
  -6  -5   6 7.81192 6.04802   2
  -6  -5   6 9.27762 12.6075   1
  -6  -5   6-3.54542 9.99185   1
  -6  -5   5 3.67932 7.16568   2
  -6  -5   5 12.9995 12.8852   1
  -6  -5   4 16.8010 8.26144   2
  -6  -5   4-17.7778 12.2696   1
   6   5  -4-2.48646 12.2918   1
  -6  -5   3 15.2235 8.88847   2
  -6  -5   3-1.84146 11.6636   1
   6   5  -3 13.4877 11.5426   1
  -6  -5   2 9.83022 7.76754   2
  -6  -5   2-2.81249 8.04709   1
   0   0   0    0.00    0.00   0
TITL 250 in P-1
REM P-1 (#2 in standard setting)
CELL 0.71073   4.919543   8.599743  12.066745 108.5764  97.1524  92.5756
ZERR    2.00   0.000535   0.000737   0.001004   0.0079   0.0083   0.0078
LATT  1
SFAC C H N O
UNIT 14.00 26.00 2.00 16.00
TREF
HKLF 4
END
;
_shelx_hkl_checksum              36071
_shelx_res_file
;
TITL 250_III in P-1
    250.res
    created by SHELXL-2018/3 at 11:54:32 on 16-Jan-2019
REM P-1 (#2 in standard setting)
CELL 0.71073 4.919543 8.599743 12.066745 108.5764 97.1524 92.5756
ZERR 2 0.000535 0.000737 0.001004 0.0079 0.0083 0.0078
LATT 1
SFAC C H N O
UNIT 14 26 2 16
EQIV $1 -X,1-Y,-Z
EQIV $2 1+X,+Y,+Z
EQIV $3 2-X,2-Y,1-Z
EQIV $4 +X,-1+Y,+Z
EQIV $5 1-X,1-Y,-Z
EQIV $6 -1+X,-1+Y,+Z
EQIV $7 1-X,2-Y,-Z
EQIV $8 1-X,2-Y,1-Z
L.S. 10
PLAN  10
SIZE 0.034 0.071 0.4317
TEMP -23.15
HTAB O4 O3_$2
HTAB O1 O7_$3
HTAB N1 O5_$1
HTAB N1 O2_$4
HTAB N1 O4_$5
HTAB N1 O5_$5
HTAB N1 O2_$6
HTAB O3 O4_$7
HTAB O6 O6_$1
HTAB O8 O8_$8
BOND $H
BOND
CONF
fmap 2
acta
SHEL 40 0.8
REM <olex2.extras>
REM <HklSrc "%.\\250.hkl">
REM </olex2.extras>
WGHT    0.033400    0.189200
FVAR       0.80512
O3    4    0.262994    0.990461    0.132820    11.00000    0.01588    0.02385 =
         0.02351    0.01018    0.00096    0.00250
O6    4    0.191186    0.596033    0.066264    11.00000    0.02195    0.02532 =
         0.02342    0.00660   -0.00104   -0.01074
AFIX 147
H6    2    0.065245    0.534765    0.017641    10.50000   -1.20000
AFIX   0
O4    4    0.741500    0.846758    0.027748    11.00000    0.01379    0.02674 =
         0.02278    0.00875    0.00178   -0.00557
AFIX 147
H4    2    0.900600    0.875300    0.063294    11.00000   -1.20000
AFIX   0
O1    4    0.881172    0.975776    0.318283    11.00000    0.01970    0.02175 =
         0.02538    0.00345   -0.00984   -0.00343
AFIX 147
H1    2    1.001186    1.048591    0.360510    11.00000   -1.20000
AFIX   0
O5    4    0.323476    0.633208   -0.094820    11.00000    0.02192    0.03657 =
         0.01823    0.00450   -0.00175   -0.00647
O8    4    0.433836    0.854842    0.441149    11.00000    0.03607    0.01635 =
         0.02694    0.00271   -0.00208    0.00187
AFIX 147
H8    2    0.501671    0.949239    0.481072    10.50000   -1.20000
AFIX   0
O2    4    0.695731    1.186663    0.275677    11.00000    0.03063    0.01674 =
         0.04867    0.00892   -0.01142   -0.00494
C3    1    0.584021    0.778549    0.095129    11.00000    0.01502    0.01729 =
         0.01666    0.00727   -0.00111   -0.00198
AFIX  13
H3A   2    0.703281    0.717496    0.135743    11.00000   -1.20000
AFIX   0
C2    1    0.464538    0.914590    0.187376    11.00000    0.01434    0.01739 =
         0.01782    0.00783   -0.00099   -0.00147
AFIX  13
H2    2    0.374761    0.863591    0.237950    11.00000   -1.20000
AFIX   0
N1    3    0.206412    0.362838    0.231871    11.00000    0.01862    0.01968 =
         0.02693    0.00264   -0.00233   -0.00168
AFIX 137
H1A   2    0.315764    0.363342    0.177463    11.00000   -1.50000
H1B   2    0.030140    0.338983    0.196881    11.00000   -1.50000
H1C   2    0.254506    0.286356    0.265261    11.00000   -1.50000
AFIX   0
O7    4    0.767994    0.777575    0.549861    11.00000    0.04035    0.02645 =
         0.03935    0.00628   -0.02045   -0.00745
C5    1    0.586321    0.749946    0.464032    11.00000    0.02114    0.02061 =
         0.02222    0.00757    0.00046   -0.00384
C1    1    0.691739    1.042427    0.265859    11.00000    0.01668    0.01979 =
         0.01601    0.00419    0.00286    0.00090
C4    1    0.349927    0.660089    0.012005    11.00000    0.01472    0.01372 =
         0.02043    0.00275    0.00017    0.00125
C7    1    0.237456    0.527453    0.324224    11.00000    0.01838    0.01824 =
         0.02080   -0.00088   -0.00021    0.00119
AFIX  23
H7A   2    0.133844    0.523833    0.387796    11.00000   -1.20000
H7B   2    0.162102    0.608445    0.290074    11.00000   -1.20000
AFIX   0
C6    1    0.536117    0.579021    0.374032    11.00000    0.01680    0.01879 =
         0.02561    0.00331   -0.00141    0.00053
AFIX  23
H6A   2    0.639714    0.574776    0.308974    11.00000   -1.20000
H6B   2    0.606960    0.499950    0.411114    11.00000   -1.20000
AFIX   0
H3    2    0.322228    1.029006    0.090793    11.00000    0.05202
HKLF 4
REM  250_III in P-1
REM wR2 = 0.0912, GooF = S = 1.012, Restrained GooF = 1.012 for all data
REM R1 = 0.0438 for 1364 Fo > 4sig(Fo) and 0.0795 for all 1947 data
REM 154 parameters refined using 0 restraints
END
WGHT      0.0334      0.1892
REM Highest difference peak  0.247,  deepest hole -0.259,  1-sigma level  0.052
Q1    1   0.5832  0.9705  0.2143  11.00000  0.05    0.25
Q2    1   0.4228  0.7529  0.0640  11.00000  0.05    0.21
Q3    1   0.5231  0.8501  0.1436  11.00000  0.05    0.19
Q4    1   0.5288  0.8433  0.3224  11.00000  0.05    0.19
Q5    1   0.1754  0.7323  0.2167  11.00000  0.05    0.18
Q6    1   0.8905  1.2962  0.2887  11.00000  0.05    0.18
Q7    1   0.1214  0.6035  0.3393  11.00000  0.05    0.17
Q8    1   0.1472  0.7395  0.1116  11.00000  0.05    0.17
Q9    1   0.4152  0.9022  0.2353  11.00000  0.05    0.16
Q10   1   0.3719  0.9449  0.1653  11.00000  0.05    0.16
;
_shelx_res_checksum              17296
loop_
_space_group_symop_operation_xyz
'x, y, z'
'-x, -y, -z'
loop_
_atom_site_type_symbol
_atom_site_label
_atom_site_fract_x
_atom_site_fract_y
_atom_site_fract_z
_atom_site_U_iso_or_equiv
_atom_site_adp_type
_atom_site_calc_flag
_atom_site_occupancy
O O3 0.2630(3) 0.99046(18) 0.13282(14) 0.0206(4) Uani d 1
O O6 0.1912(3) 0.59603(18) 0.06626(13) 0.0247(4) Uani d 1
H H6 0.065245 0.534765 0.017641 0.030 Uiso calc 0.5
O O4 0.7415(3) 0.84676(18) 0.02775(12) 0.0213(3) Uani d 1
H H4 0.900600 0.875300 0.063294 0.026 Uiso calc 1
O O1 0.8812(3) 0.97578(17) 0.31828(13) 0.0246(4) Uani d 1
H H1 1.001186 1.048591 0.360510 0.030 Uiso calc 1
O O5 0.3235(3) 0.63321(19) -0.09482(13) 0.0274(4) Uani d 1
O O8 0.4338(3) 0.85484(17) 0.44115(14) 0.0281(4) Uani d 1
H H8 0.501671 0.949239 0.481072 0.034 Uiso calc 0.5
O O2 0.6957(3) 1.18666(18) 0.27568(15) 0.0342(4) Uani d 1
C C3 0.5840(4) 0.7785(2) 0.09513(17) 0.0163(4) Uani d 1
H H3A 0.703281 0.717496 0.135743 0.020 Uiso calc 1
C C2 0.4645(4) 0.9146(2) 0.18738(18) 0.0164(4) Uani d 1
H H2 0.374761 0.863591 0.237950 0.020 Uiso calc 1
N N1 0.2064(4) 0.3628(2) 0.23187(16) 0.0236(4) Uani d 1
H H1A 0.315764 0.363342 0.177463 0.035 Uiso calc 1
H H1B 0.030140 0.338983 0.196881 0.035 Uiso calc 1
H H1C 0.254506 0.286356 0.265261 0.035 Uiso calc 1
O O7 0.7680(4) 0.77757(19) 0.54986(15) 0.0392(5) Uani d 1
C C5 0.5863(4) 0.7499(3) 0.46403(19) 0.0216(5) Uani d 1
C C1 0.6917(4) 1.0424(2) 0.26586(18) 0.0179(4) Uani d 1
C C4 0.3499(4) 0.6601(2) 0.01200(18) 0.0172(4) Uani d 1
C C7 0.2375(4) 0.5275(2) 0.32422(19) 0.0212(5) Uani d 1
H H7A 0.133844 0.523833 0.387796 0.025 Uiso calc 1
H H7B 0.162102 0.608445 0.290074 0.025 Uiso calc 1
C C6 0.5361(4) 0.5790(2) 0.37403(19) 0.0218(5) Uani d 1
H H6A 0.639714 0.574776 0.308974 0.026 Uiso calc 1
H H6B 0.606960 0.499950 0.411114 0.026 Uiso calc 1
H H3 0.322(6) 1.029(3) 0.091(3) 0.052(10) Uiso d 1
loop_
_atom_site_aniso_label
_atom_site_aniso_U_11
_atom_site_aniso_U_22
_atom_site_aniso_U_33
_atom_site_aniso_U_12
_atom_site_aniso_U_13
_atom_site_aniso_U_23
O3 0.0159(8) 0.0238(8) 0.0235(9) 0.0025(6) 0.0010(7) 0.0102(7)
O6 0.0220(8) 0.0253(9) 0.0234(8) -0.0107(6) -0.0010(7) 0.0066(7)
O4 0.0138(7) 0.0267(8) 0.0228(8) -0.0056(6) 0.0018(6) 0.0087(7)
O1 0.0197(8) 0.0217(8) 0.0254(8) -0.0034(6) -0.0098(7) 0.0035(7)
O5 0.0219(8) 0.0366(9) 0.0182(8) -0.0065(7) -0.0018(7) 0.0045(7)
O8 0.0361(9) 0.0163(8) 0.0269(9) 0.0019(7) -0.0021(7) 0.0027(7)
O2 0.0306(9) 0.0167(9) 0.0487(11) -0.0049(7) -0.0114(8) 0.0089(8)
C3 0.0150(10) 0.0173(11) 0.0167(11) -0.0020(8) -0.0011(9) 0.0073(9)
C2 0.0143(10) 0.0174(11) 0.0178(10) -0.0015(8) -0.0010(9) 0.0078(9)
N1 0.0186(9) 0.0197(10) 0.0269(10) -0.0017(7) -0.0023(8) 0.0026(8)
O7 0.0403(10) 0.0265(9) 0.0394(10) -0.0075(8) -0.0204(8) 0.0063(8)
C5 0.0211(11) 0.0206(11) 0.0222(12) -0.0038(9) 0.0005(10) 0.0076(9)
C1 0.0167(10) 0.0198(11) 0.0160(10) 0.0009(8) 0.0029(9) 0.0042(9)
C4 0.0147(10) 0.0137(10) 0.0204(11) 0.0013(8) 0.0002(9) 0.0028(9)
C7 0.0184(11) 0.0182(11) 0.0208(11) 0.0012(9) -0.0002(9) -0.0009(9)
C6 0.0168(11) 0.0188(11) 0.0256(12) 0.0005(9) -0.0014(10) 0.0033(9)
loop_
_atom_type_symbol
_atom_type_description
_atom_type_scat_dispersion_real
_atom_type_scat_dispersion_imag
_atom_type_scat_source
C C 0.0033 0.0016 'International Tables Vol C Tables 4.2.6.8 and 6.1.1.4'
H H 0.0000 0.0000 'International Tables Vol C Tables 4.2.6.8 and 6.1.1.4'
N N 0.0061 0.0033 'International Tables Vol C Tables 4.2.6.8 and 6.1.1.4'
O O 0.0106 0.0060 'International Tables Vol C Tables 4.2.6.8 and 6.1.1.4'
loop_
_exptl_crystal_face_index_h
_exptl_crystal_face_index_k
_exptl_crystal_face_index_l
_exptl_crystal_face_perp_dist
1 5 0 0.0120
-1 -5 0 0.0220
1 -2 7 0.2160
-3 7 -16 0.1830
1 0 -2 0.0290
-1 0 2 0.0420
loop_
_geom_angle_atom_site_label_1
_geom_angle_atom_site_label_2
_geom_angle_atom_site_label_3
_geom_angle
C2 O3 H3 112(2)
C4 O6 H6 109.5
C3 O4 H4 109.5
C1 O1 H1 109.5
C5 O8 H8 109.5
O4 C3 H3A 109.3
O4 C3 C2 110.71(15)
O4 C3 C4 108.95(16)
C2 C3 H3A 109.3
C4 C3 H3A 109.3
C4 C3 C2 109.40(16)
O3 C2 C3 111.20(16)
O3 C2 H2 108.1
O3 C2 C1 110.50(16)
C3 C2 H2 108.1
C1 C2 C3 110.72(16)
C1 C2 H2 108.1
H1A N1 H1B 109.5
H1A N1 H1C 109.5
H1B N1 H1C 109.5
C7 N1 H1A 109.5
C7 N1 H1B 109.5
C7 N1 H1C 109.5
O8 C5 C6 114.81(18)
O7 C5 O8 125.8(2)
O7 C5 C6 119.33(18)
O1 C1 C2 111.90(17)
O2 C1 O1 125.11(19)
O2 C1 C2 122.98(18)
O6 C4 C3 113.14(18)
O5 C4 O6 125.65(19)
O5 C4 C3 121.21(18)
N1 C7 H7A 109.6
N1 C7 H7B 109.6
N1 C7 C6 110.47(16)
H7A C7 H7B 108.1
C6 C7 H7A 109.6
C6 C7 H7B 109.6
C5 C6 H6A 108.8
C5 C6 H6B 108.8
C7 C6 C5 113.66(17)
C7 C6 H6A 108.8
C7 C6 H6B 108.8
H6A C6 H6B 107.7
loop_
_geom_bond_atom_site_label_1
_geom_bond_atom_site_label_2
_geom_bond_distance
O3 C2 1.418(2)
O3 H3 0.77(3)
O6 H6 0.8300
O6 C4 1.289(2)
O4 H4 0.8300
O4 C3 1.423(2)
O1 H1 0.8300
O1 C1 1.315(2)
O5 C4 1.224(2)
O8 H8 0.8300
O8 C5 1.273(2)
O2 C1 1.207(2)
C3 H3A 0.9900
C3 C2 1.532(3)
C3 C4 1.525(3)
C2 H2 0.9900
C2 C1 1.522(3)
N1 H1A 0.9000
N1 H1B 0.9000
N1 H1C 0.9000
N1 C7 1.484(3)
O7 C5 1.233(3)
C5 C6 1.511(3)
C7 H7A 0.9800
C7 H7B 0.9800
C7 C6 1.506(3)
C6 H6A 0.9800
C6 H6B 0.9800
loop_
_geom_hbond_atom_site_label_D
_geom_hbond_atom_site_label_H
_geom_hbond_atom_site_label_A
_geom_hbond_site_symmetry_A
_geom_hbond_distance_DH
_geom_hbond_distance_HA
_geom_hbond_distance_DA
_geom_hbond_angle_DHA
_geom_hbond_publ_flag
O6 H6 O6 2_565 0.83 1.65 2.472(3) 173.1 yes
O4 H4 O3 1_655 0.83 1.95 2.761(2) 165.4 yes
O1 H1 O7 2_776 0.83 1.79 2.617(2) 173.4 yes
O8 H8 O8 2_676 0.83 1.64 2.457(3) 167.6 yes
N1 H1A O4 2_665 0.90 2.53 3.126(2) 124.1 yes
N1 H1A O5 2_665 0.90 2.14 3.011(2) 161.3 yes
N1 H1B O5 2_565 0.90 2.07 2.916(2) 155.8 yes
N1 H1B O2 1_445 0.90 2.51 3.064(2) 120.0 yes
N1 H1C O2 1_545 0.90 2.37 2.982(2) 125.0 yes
O3 H3 O4 2_675 0.77(3) 2.04(3) 2.727(2) 148(3) yes
loop_
_geom_torsion_atom_site_label_1
_geom_torsion_atom_site_label_2
_geom_torsion_atom_site_label_3
_geom_torsion_atom_site_label_4
_geom_torsion
O3 C2 C1 O1 179.63(16)
O3 C2 C1 O2 -1.6(3)
O4 C3 C2 O3 67.7(2)
O4 C3 C2 C1 -55.5(2)
O4 C3 C4 O6 -178.06(16)
O4 C3 C4 O5 1.6(3)
O8 C5 C6 C7 -37.6(3)
C3 C2 C1 O1 -56.7(2)
C3 C2 C1 O2 122.0(2)
C2 C3 C4 O6 -56.9(2)
C2 C3 C4 O5 122.8(2)
N1 C7 C6 C5 176.77(17)
O7 C5 C6 C7 143.6(2)
C4 C3 C2 O3 -52.3(2)
C4 C3 C2 C1 -175.57(16)

_cod_database_fobs_code 2021490
