#------------------------------------------------------------------------------
#$Date: 2019-07-10 07:33:04 +0300 (Wed, 10 Jul 2019) $
#$Revision: 216917 $
#$URL: file:///home/coder/svn-repositories/cod/cif/2/02/17/2021715.cif $
#------------------------------------------------------------------------------
#
# This file is available in the Crystallography Open Database (COD),
# http://www.crystallography.net/. The original data for this entry
# were provided by IUCr Journals, http://journals.iucr.org/.
#
# The file may be used within the scientific community so long as
# proper attribution is given to the journal article from which the
# data were obtained.
#
data_2021715
loop_
_publ_author_name
'Priya Vadhana, K. T.'
'Parveen, S.'
'Ushadevi, B.'
'Selvakumar, R.'
'Sangeetha, S.'
'Vairam, S.'
_publ_section_title
;
 New barium, strontium and strontium-doped barium squarates: synthesis,
 crystal structures and DNA/BSA binding, antioxidant and <i>in vitro</i>
 cytotoxicity studies
;
_journal_coeditor_code           LF3099
_journal_issue                   8
_journal_name_full               'Acta Crystallographica Section C'
_journal_page_first
;
;
_journal_paper_doi               10.1107/S2053229619009082
_journal_volume                  75
_journal_year                    2019
_chemical_formula_iupac          '[Ba0.85 Sr0.15 (C4 O4) (H2 O)3], H2 O'
_chemical_formula_moiety         'C4 H8 Ba0.85 O8 Sr0.15'
_chemical_formula_sum            'C4 H8 Ba0.85 O8 Sr0.15'
_chemical_formula_weight         313.99
_chemical_name_systematic
'Poly[[triaqua(\m-1,2-dioxocyclobut-3-ene-1,2-diolato)barium/strontium(0.85/0.15)] monohydrate]'
_space_group_crystal_system      triclinic
_space_group_IT_number           2
_space_group_name_Hall           '-P 1'
_space_group_name_H-M_alt        'P -1'
_symmetry_space_group_name_Hall  '-P 1'
_symmetry_space_group_name_H-M   'P -1'
_atom_sites_solution_hydrogens   difmap
_audit_creation_method           SHELXL-2014/7
_cell_angle_alpha                95.18(4)
_cell_angle_beta                 106.64(5)
_cell_angle_gamma                108.33(4)
_cell_formula_units_Z            2
_cell_length_a                   6.8271(7)
_cell_length_b                   8.1878(9)
_cell_length_c                   8.8227(9)
_cell_measurement_reflns_used    9936
_cell_measurement_temperature    296(2)
_cell_measurement_theta_max      33.29
_cell_measurement_theta_min      3.25
_cell_volume                     439.6(2)
_computing_cell_refinement
;
APEX3 and SAINT (Bruker, 2016)
;
_computing_data_collection
;
APEX3 (Bruker, 2016)
;
_computing_data_reduction
;
SAINT and XPREP (Bruker, 2016)
;
_computing_molecular_graphics
;
ORTEP-3 (Farrugia, 2012) and Mercury (Macrae <i>et al.</i>,
2008)
;
_computing_publication_material
;
SHELXL2014 (Sheldrick, 2015b)
;
_computing_structure_refinement
;
SHELXL2014 (Sheldrick, 2015b)
;
_computing_structure_solution
;
SHELXT2014 (Sheldrick, 2015a)
;
_diffrn_ambient_temperature      296(2)
_diffrn_measured_fraction_theta_full 0.997
_diffrn_measured_fraction_theta_max 0.998
_diffrn_measurement_device_type  'Bruker Kappa APEX3 CMOS'
_diffrn_measurement_method       '\w and \f scan'
_diffrn_radiation_monochromator  graphite
_diffrn_radiation_source         'fine-focus sealed tube'
_diffrn_radiation_type           MoK\a
_diffrn_radiation_wavelength     0.71073
_diffrn_reflns_av_R_equivalents  0.0455
_diffrn_reflns_av_unetI/netI     0.0273
_diffrn_reflns_limit_h_max       9
_diffrn_reflns_limit_h_min       -9
_diffrn_reflns_limit_k_max       11
_diffrn_reflns_limit_k_min       -11
_diffrn_reflns_limit_l_max       12
_diffrn_reflns_limit_l_min       -12
_diffrn_reflns_number            15596
_diffrn_reflns_theta_full        25.242
_diffrn_reflns_theta_max         29.498
_diffrn_reflns_theta_min         3.334
_exptl_absorpt_coefficient_mu    4.773
_exptl_absorpt_correction_T_max  0.7456
_exptl_absorpt_correction_T_min  0.5576
_exptl_absorpt_correction_type   multi-scan
_exptl_absorpt_process_details
;
(SADABS; Bruker, 2016)
;
_exptl_crystal_colour            colourless
_exptl_crystal_density_diffrn    2.372
_exptl_crystal_description       block
_exptl_crystal_F_000             299
_exptl_crystal_size_max          0.200
_exptl_crystal_size_mid          0.150
_exptl_crystal_size_min          0.100
_refine_diff_density_max         1.508
_refine_diff_density_min         -1.582
_refine_ls_extinction_method     none
_refine_ls_goodness_of_fit_ref   1.132
_refine_ls_hydrogen_treatment    refxyz
_refine_ls_matrix_type           full
_refine_ls_number_parameters     153
_refine_ls_number_reflns         2451
_refine_ls_number_restraints     13
_refine_ls_restrained_S_all      1.130
_refine_ls_R_factor_all          0.0243
_refine_ls_R_factor_gt           0.0227
_refine_ls_shift/su_max          0.001
_refine_ls_shift/su_mean         0.000
_refine_ls_structure_factor_coef Fsqd
_refine_ls_weighting_details
'w=1/[\s^2^(Fo^2^)+(0.0291P)^2^+0.6593P] where P=(Fo^2^+2Fc^2^)/3'
_refine_ls_weighting_scheme      calc
_refine_ls_wR_factor_gt          0.0584
_refine_ls_wR_factor_ref         0.0595
_reflns_number_gt                2345
_reflns_number_total             2451
_reflns_threshold_expression     'I > 2\s(I)'
_cod_data_source_file            lf3099sup1.cif
_cod_data_source_block           BSMS
_cod_original_cell_volume        439.66(16)
_cod_database_code               2021715
_shelx_space_group_comment
;
The symmetry employed for this shelxl refinement is uniquely defined
by the following loop, which should always be used as a source of
symmetry information in preference to the above space-group names.
They are only intended as comments.
;
_shelx_estimated_absorpt_t_min   0.449
_shelx_estimated_absorpt_t_max   0.647
_shelx_hkl_file
;
  -1   0   0  652.33   38.00
   1   0   0  648.14   37.80
   1   0   0  651.93   38.00
  -2   0   0 3667.43  223.18
  -2   0   0 3827.32  223.08
  -2   0   0 4132.39  223.38
   2   0   0 3940.91  223.28
   2   0   0 3583.84  222.98
   2   0   0 3929.31  223.28
  -3   0   0 2137.59  127.39
  -3   0   0 2214.38  126.99
  -3   0   0 2115.09  127.09
  -3   0   0 2388.96  127.59
  -3   0   0 2149.28  126.79
  -3   0   0 2194.08  126.79
   3   0   0 2047.10  126.89
   3   0   0 2124.59  126.79
   3   0   0 2244.68  126.79
   3   0   0 2199.98  126.69
   3   0   0 2192.88  127.29
   3   0   0 2192.58  127.39
  -4   0   0 2194.68  126.99
  -4   0   0 2203.78  127.89
  -4   0   0 2376.26  128.09
  -4   0   0 2236.48  127.39
  -4   0   0 2030.30  127.59
   4   0   0 2146.09  128.29
   4   0   0 2101.99  127.19
   4   0   0 2235.08  127.79
   4   0   0 2132.89  126.89
  -5   0   0   39.70    7.00
  -5   0   0   37.00    4.60
  -5   0   0   33.30    5.50
  -5   0   0   50.89    7.70
  -5   0   0   36.40    6.00
  -5   0   0   44.70    7.70
   5   0   0   34.30    8.30
   5   0   0   33.40    5.90
   5   0   0   37.70    5.20
   5   0   0   33.70    5.70
   5   0   0   34.50    4.30
  -6   0   0    4.20    7.40
  -6   0   0    5.90    5.40
  -6   0   0    4.60    4.20
  -6   0   0    7.20    4.10
  -6   0   0    3.90    8.20
   6   0   0    4.20    4.90
   6   0   0    2.70    4.10
   7   0   0  541.65   33.40
   7   0   0  547.35   34.10
  -8   0   0 1216.88   74.89
  -8   0   0 1248.78   72.39
  -8   0   0 1243.98   75.29
   8   0   0 1187.58   73.29
   8   0   0 1201.48   72.79
  -9   0   0   19.70   14.40
  -9   0   0   10.20    7.70
  -9   0   0   13.30   12.20
   9   0   0   11.70    7.10
   9  -1   0  412.46   28.30
  -9   1   0  410.46   34.00
  -9   1   0  397.46   32.20
  -9   1   0  444.76   27.80
   8  -1   0  203.88   16.50
  -8   1   0  204.28   19.90
  -8   1   0  191.08   21.80
  -8   1   0  200.78   15.30
   7  -1   0  449.56   29.20
   7  -1   0  457.75   28.50
  -7   1   0  474.25   28.30
  -7   1   0  466.05   31.20
  -7   1   0  454.45   31.50
   6  -1   0 2105.09  116.89
   6  -1   0 1921.11  116.69
   6  -1   0 2072.19  116.29
  -6   1   0 1905.41  116.49
  -6   1   0 2200.48  118.19
  -6   1   0 1801.82  116.49
  -6   1   0 1866.01  116.09
  -6   1   0 2046.60  116.19
  -6   1   0 2027.00  117.69
   5  -1   0  873.81   49.70
   5  -1   0  837.92   50.79
   5  -1   0  816.12   50.09
   5  -1   0  802.02   49.60
   5  -1   0  914.81   50.29
  -5   1   0  763.02   50.59
  -5   1   0  882.51   49.70
  -5   1   0  848.22   50.89
  -5   1   0  949.40   51.49
  -5   1   0  830.52   50.39
  -5   1   0  779.32   49.80
   4  -1   0   30.20    5.40
   4  -1   0   14.50    3.80
   4  -1   0   20.70    3.70
  -4   1   0   26.10    4.10
  -4   1   0   40.30    6.90
  -4   1   0   36.80    5.40
   3  -1   0 1768.62   93.09
   3  -1   0 1781.52   93.39
   3  -1   0 1455.65   92.99
   3  -1   0 1490.85   92.79
  -3   1   0 1459.95   92.79
  -3   1   0 1456.85   92.79
  -3   1   0 1772.12   93.39
   2  -1   0 3882.21  238.78
   2  -1   0 3649.93  238.58
  -2   1   0 4511.55  238.88
  -2   1   0 4421.56  238.98
  -1   1   0  639.24   43.10
  -1   1   0  842.52   43.00
  -1  -1   0 3036.80  177.18
  -1  -1   0 2960.20  176.98
   1   1   0 2996.30  176.98
   1   1   0 3256.77  177.18
   1   1   0 3011.60  176.88
  -2  -1   0 3196.18  188.58
  -2  -1   0 3273.57  188.38
   2   1   0 3181.68  188.38
   2   1   0 3337.57  188.78
   2   1   0 3250.57  188.38
  -3  -1   0   79.29    6.40
  -3  -1   0   77.29    8.10
  -3  -1   0   84.39    7.30
  -3  -1   0   84.59    7.30
  -3  -1   0   76.09    5.90
  -3  -1   0   89.69    7.20
   3   1   0   69.69    6.00
   3   1   0   77.49    6.80
   3   1   0   79.09    8.80
   3   1   0   71.29    7.30
   3   1   0   76.09    6.60
   3   1   0   82.19    6.10
  -4  -1   0  274.97   19.10
  -4  -1   0  282.37   17.70
  -4  -1   0  272.07   18.30
  -4  -1   0  301.27   19.10
  -4  -1   0  292.77   19.70
  -4  -1   0  285.57   17.70
   4   1   0  299.37   19.30
   4   1   0  270.47   20.50
   4   1   0  278.87   17.50
   4   1   0  295.97   17.90
   4   1   0  291.77   18.00
  -5  -1   0 1873.31  104.09
  -5  -1   0 1691.03  102.69
  -5  -1   0 1814.72  104.19
  -5  -1   0 1660.53  102.69
  -5  -1   0 1690.93  103.19
   5   1   0 1740.63  102.79
   5   1   0 1783.82  102.79
   5   1   0 1822.32  104.29
  -6  -1   0 1154.28   66.59
  -6  -1   0 1001.50   64.69
  -6  -1   0 1072.89   65.69
  -6  -1   0 1141.49   66.89
   6   1   0 1223.18   67.39
   6   1   0 1000.30   64.79
  -7  -1   0   25.60   10.60
  -7  -1   0    9.20    5.40
  -7  -1   0   16.10    4.40
  -7  -1   0   29.10    9.30
   7   1   0   15.60    6.30
   7   1   0   10.80    5.20
  -8  -1   0  236.88   17.40
  -8  -1   0  231.18   24.70
  -8  -1   0  196.58   21.30
   8   1   0  247.28   17.60
   8   1   0  241.88   18.20
  -9  -1   0  447.76   33.20
   9   1   0  445.06   30.00
   9  -2   0  296.27   21.60
  -9   2   0  291.67   20.50
  -9   2   0  280.17   27.50
  -9   2   0  292.07   26.20
   8  -2   0  820.72   51.59
  -8   2   0  815.32   50.39
  -8   2   0  889.81   54.19
  -8   2   0  860.81   53.79
   7  -2   0  604.74   36.40
   7  -2   0  591.54   36.60
  -7   2   0  641.54   38.20
  -7   2   0  626.44   35.20
  -7   2   0  508.45   36.00
  -7   2   0  612.64   38.10
  -7   2   0  584.74   35.30
  -7   2   0  540.85   35.40
   6  -2   0  107.59   11.10
   6  -2   0   82.99    7.50
  -6   2   0   79.99    7.30
  -6   2   0   79.59    7.30
   5  -2   0 2587.94  148.39
   5  -2   0 2402.76  148.69
   5  -2   0 2297.37  148.19
   5  -2   0 2510.65  149.29
   5  -2   0 2721.93  148.99
  -5   2   0 2606.64  148.39
  -5   2   0 2663.33  149.39
  -5   2   0 2533.75  148.59
  -5   2   0 2482.35  149.49
  -5   2   0 2597.44  148.89
  -5   2   0 2890.51  149.99
  -5   2   0 2353.16  148.29
   4  -2   0 2483.55  141.09
   4  -2   0 2542.65  141.49
   4  -2   0 2267.17  141.39
   4  -2   0 2334.97  140.99
   4  -2   0 2310.07  141.69
  -4   2   0 2333.27  141.79
  -4   2   0 2546.75  141.39
  -4   2   0 2358.46  141.09
  -4   2   0 2744.73  142.39
  -4   2   0 2490.35  141.09
  -4   2   0 2330.77  141.79
   3  -2   0  398.06   22.50
   3  -2   0  392.36   23.00
   3  -2   0  363.86   22.90
  -3   2   0  411.16   23.00
  -3   2   0  404.86   22.70
  -3   2   0  323.07   23.50
  -3   2   0  380.86   22.60
  -3   2   0  400.26   22.60
   2  -2   0 1726.73  103.19
   2  -2   0 1687.73  103.39
  -2   2   0 1879.41  102.99
  -2   2   0 1981.10  102.99
  -2   2   0 1936.81  103.49
  -2   2   0 1684.53  103.29
  -2   2   0 1546.45  103.49
   1  -2   0 3437.06  199.48
   0  -2   0 4000.90  226.08
   0   2   0 3792.62  226.08
  -1  -2   0  920.41   53.69
  -1  -2   0  946.11   53.89
  -1  -2   0  817.82   53.99
  -1  -2   0  949.90   53.69
  -1  -2   0  937.01   54.19
  -1  -2   0  953.30   54.09
   1   2   0  928.51   53.89
   1   2   0  900.61   54.19
   1   2   0  959.50   53.69
   1   2   0  918.31   53.69
   1   2   0  911.21   53.99
  -2  -2   0 3013.00  176.58
  -2  -2   0 3097.69  176.78
  -2  -2   0 3199.38  177.08
  -2  -2   0 2900.61  176.48
  -2  -2   0 3225.18  176.88
   2   2   0 3006.50  176.88
   2   2   0 2901.31  176.48
   2   2   0 3057.29  176.48
   2   2   0 2974.60  176.78
  -3  -2   0 4165.78  219.78
  -3  -2   0 3448.85  218.98
  -3  -2   0 3702.83  219.28
  -3  -2   0 3625.44  219.08
  -3  -2   0 3886.21  219.88
  -3  -2   0 3957.40  219.58
   3   2   0 3821.62  219.68
   3   2   0 3595.44  218.98
   3   2   0 4029.30  219.88
   3   2   0 3715.23  219.38
   3   2   0 3569.34  219.08
  -4  -2   0 1136.99   62.59
  -4  -2   0  946.71   61.09
  -4  -2   0 1026.70   61.79
  -4  -2   0 1189.78   62.09
  -4  -2   0  934.11   60.99
   4   2   0  918.11   60.99
   4   2   0 1204.58   62.89
   4   2   0  970.30   61.09
   4   2   0 1062.19   61.79
   4   2   0 1017.00   61.99
  -5  -2   0    8.60    4.40
  -5  -2   0   13.60    6.10
  -5  -2   0   11.70    4.10
  -5  -2   0   11.90    7.20
  -5  -2   0   20.80    6.20
  -5  -2   0   17.10    4.70
   5   2   0   14.90    4.40
   5   2   0   17.80    5.90
   5   2   0   24.60    9.30
  -6  -2   0  824.82   49.99
  -6  -2   0  778.22   47.60
  -6  -2   0  735.53   48.80
  -6  -2   0  842.12   48.00
  -6  -2   0  847.42   49.40
   6   2   0  775.22   48.30
   6   2   0  773.82   50.69
   6   2   0  789.62   47.60
  -7  -2   0  801.42   49.20
  -7  -2   0  766.12   45.60
  -7  -2   0  720.23   45.00
  -7  -2   0  744.53   47.70
   7   2   0  764.32   45.60
   7   2   0  742.03   46.10
   7   2   0  708.73   49.00
  -8  -2   0  155.88   18.90
  -8  -2   0  160.58   23.50
  -8  -2   0  172.78   14.90
   8   2   0  141.69   13.50
   9  -3   0  198.58   16.70
  -9   3   0  175.98   15.40
  -9   3   0  200.08   21.30
  -9   3   0  170.68   23.20
   8  -3   0   65.69   10.60
   8  -3   0   70.39   10.90
  -8   3   0  102.89   15.30
   7  -3   0 1244.58   74.99
   7  -3   0 1302.17   75.19
   7  -3   0 1293.07   74.09
  -7   3   0 1151.98   73.89
  -7   3   0 1313.57   74.29
  -7   3   0 1311.77   76.09
  -7   3   0 1126.99   74.99
  -7   3   0 1333.47   74.09
  -7   3   0 1312.47   76.59
   6  -3   0 1078.49   70.99
   6  -3   0 1168.48   71.89
   6  -3   0 1272.77   71.19
   6  -3   0 1262.17   71.99
  -6   3   0 1265.27   71.19
  -6   3   0 1217.58   72.69
  -6   3   0 1316.57   73.39
  -6   3   0 1305.87   71.59
  -6   3   0 1175.78   71.09
  -6   3   0 1122.59   72.49
   5  -3   0   56.39    4.90
   5  -3   0   56.39    8.90
   5  -3   0   64.29    7.70
   5  -3   0   59.79    7.00
  -5   3   0   53.89    5.20
  -5   3   0   58.89    5.90
  -5   3   0   61.89   12.00
  -5   3   0   54.59    5.10
  -5   3   0   47.50    9.30
   4  -3   0  382.76   23.50
   4  -3   0  403.26   24.40
   4  -3   0  389.06   24.30
  -4   3   0  418.76   23.70
  -4   3   0  410.46   23.60
  -4   3   0  393.86   24.70
  -4   3   0  395.76   23.90
  -4   3   0  447.16   25.50
  -4   3   0  380.76   24.60
   3  -3   0 1762.52  111.39
   3  -3   0 2114.19  111.79
   3  -3   0 2058.79  111.59
  -3   3   0 2105.19  111.79
  -3   3   0 1829.52  111.59
  -3   3   0 1797.22  111.09
  -3   3   0 1700.53  111.89
  -3   3   0 1962.50  111.09
   2  -3   0 1649.93   91.59
   2  -3   0 1751.22   92.09
  -2   3   0 1346.17   91.89
  -2   3   0 1652.63   91.69
  -2   3   0 1487.35   91.99
   1  -3   0 1867.61  125.39
   1  -3   0 2239.88  124.89
   1  -3   0 2243.58  124.89
   1  -3   0 2234.68  125.09
  -1   3   0 2168.98  124.89
  -1   3   0 2285.67  125.19
  -1   3   0 1816.12  124.89
  -1   3   0 2444.46  125.49
  -1   3   0 2011.90  124.99
  -1   3   0 2234.68  124.89
   0  -3   0 1257.77   74.19
   0  -3   0 1290.87   74.49
   0   3   0 1296.77   74.49
   0   3   0 1264.57   74.29
  -1  -3   0 8802.62  490.05
  -1  -3   0 8065.29  489.65
   1   3   0 8478.05  490.05
  -2  -3   0  904.61   53.69
  -2  -3   0  881.71   53.39
  -2  -3   0  955.70   54.19
  -2  -3   0  857.71   53.29
  -2  -3   0  918.01   53.79
  -2  -3   0  983.20   54.09
   2   3   0  880.31   53.69
   2   3   0  955.90   54.29
   2   3   0  881.41   53.39
   2   3   0  851.31   53.39
   2   3   0  953.00   53.99
  -3  -3   0  409.56   24.80
  -3  -3   0  389.56   24.50
  -3  -3   0  418.66   24.90
  -3  -3   0  391.86   25.50
  -3  -3   0  394.76   24.40
  -3  -3   0  396.76   25.90
  -3  -3   0  406.56   25.90
   3   3   0  401.66   26.80
   3   3   0  408.86   24.60
   3   3   0  392.16   25.40
   3   3   0  408.06   24.50
   3   3   0  410.36   25.50
  -4  -3   0 1678.93   92.19
  -4  -3   0 1505.55   91.19
  -4  -3   0 1589.84   91.59
  -4  -3   0 1549.34   91.09
  -4  -3   0 1491.55   92.09
  -4  -3   0 1491.75   91.99
   4   3   0 1552.74   91.29
   4   3   0 1563.64   92.79
   4   3   0 1600.64   91.99
  -5  -3   0  604.64   40.40
  -5  -3   0  676.23   39.70
  -5  -3   0  644.04   40.50
  -5  -3   0  650.33   38.80
  -5  -3   0  633.94   38.30
   5   3   0  611.44   41.80
   5   3   0  645.94   40.20
   5   3   0  623.74   39.70
   5   3   0  645.94   38.50
  -6  -3   0   53.39    8.30
  -6  -3   0   53.49    7.00
  -6  -3   0   71.39   11.50
  -6  -3   0   53.49    9.10
   6   3   0   61.89    8.90
   6   3   0   27.10   12.20
  -7  -3   0   32.20    5.90
  -7  -3   0   34.20   11.40
  -7  -3   0   37.90   12.60
  -7  -3   0   24.70    7.80
   7   3   0   21.20   12.50
  -8  -3   0  389.76   30.40
  -8  -3   0  403.86   26.10
  -8  -3   0  369.86   31.60
   8   3   0  378.16   30.00
 -10   4   0  124.99   22.90
 -10   4   0  110.09   15.60
   9  -4   0  391.46   26.80
  -9   4   0  398.16   31.20
  -9   4   0  379.36   30.40
  -9   4   0  394.16   25.60
   8  -4   0  768.92   46.80
   8  -4   0  761.32   46.60
  -8   4   0  738.93   48.60
  -8   4   0  761.52   45.00
   7  -4   0    4.20    5.80
   7  -4   0   13.50    7.50
  -7   4   0    7.00    7.20
  -7   4   0    8.30    4.00
  -7   4   0    6.30    4.20
  -7   4   0   -1.40    8.80
  -7   4   0   23.60    7.40
  -7   4   0   11.10    3.30
   6  -4   0  838.42   50.59
   6  -4   0  768.82   50.39
   6  -4   0  865.01   51.79
   6  -4   0  892.11   51.79
  -6   4   0  903.91   51.39
  -6   4   0  906.71   53.09
  -6   4   0  980.20   52.69
  -6   4   0  788.72   53.39
  -6   4   0  844.32   50.59
  -6   4   0  868.21   50.59
   5  -4   0 1616.84   95.79
   5  -4   0 1720.63   95.99
  -5   4   0 1669.03   95.39
  -5   4   0 1645.94   95.09
  -5   4   0 1481.05   95.89
  -5   4   0 1747.83   96.39
  -5   4   0 1590.24   95.19
   4  -4   0 1291.77   73.19
   4  -4   0 1249.28   72.99
   4  -4   0 1169.58   72.79
  -4   4   0 1252.87   73.09
  -4   4   0 1261.87   73.79
   3  -4   0  174.88   10.50
   3  -4   0  160.58   10.30
   3  -4   0  138.99   10.60
  -3   4   0  172.08   11.10
  -3   4   0  142.59   10.60
  -3   4   0  161.28   10.30
   2  -4   0 2337.77  140.19
   2  -4   0 2403.96  140.89
   2  -4   0 2435.96  140.29
   2  -4   0 2613.34  140.19
  -2   4   0 2283.27  140.19
  -2   4   0 2666.53  141.09
  -2   4   0 2232.08  140.49
  -2   4   0 2503.35  140.49
  -2   4   0 2288.77  140.19
   1  -4   0 3299.47  194.68
   1  -4   0 3694.53  195.28
   1  -4   0 3358.16  194.38
   1  -4   0 3230.08  194.38
  -1   4   0 3660.13  195.28
  -1   4   0 3366.76  194.68
  -1   4   0 3094.09  195.08
  -1   4   0 3230.18  194.38
  -1   4   0 3253.07  194.38
   0  -4   0 1045.80   59.99
   0  -4   0  880.11   60.39
   0  -4   0 1066.79   59.79
   0  -4   0 1113.39   60.09
   0   4   0 1053.09   59.79
   0   4   0 1040.60   60.09
   0   4   0  917.31   59.99
   0   4   0 1087.29   60.79
   0   4   0 1027.70   59.79
  -1  -4   0 1195.28   67.69
  -1  -4   0 1097.49   68.39
  -1  -4   0 1182.88   67.99
  -1  -4   0  994.50   67.59
  -1  -4   0 1218.08   67.79
   1   4   0 1199.38   67.79
   1   4   0 1161.18   68.09
   1   4   0 1113.29   68.09
   1   4   0 1200.18   68.89
   1   4   0 1244.78   67.79
  -2  -4   0 3071.89  173.18
  -2  -4   0 2866.31  173.48
  -2  -4   0 2983.80  172.88
  -2  -4   0 3030.70  172.88
  -2  -4   0 2818.52  173.08
  -2  -4   0 3279.57  173.68
   2   4   0 2981.40  172.88
   2   4   0 2928.71  173.88
   2   4   0 2964.90  173.18
   2   4   0 3085.19  172.88
   2   4   0 2708.83  173.28
  -3  -4   0  920.41   55.59
  -3  -4   0  986.90   55.69
  -3  -4   0  955.10   55.79
  -3  -4   0  979.20   56.49
  -3  -4   0  897.61   56.69
  -3  -4   0  918.01   55.09
   3   4   0  924.01   55.19
   3   4   0  902.31   57.09
   3   4   0  920.71   55.99
   3   4   0  942.61   56.19
   3   4   0  941.31   55.29
  -4  -4   0   41.60    6.60
  -4  -4   0   44.10    8.10
  -4  -4   0   35.30    5.20
  -4  -4   0   38.70    6.40
   4   4   0   33.20    5.60
   4   4   0   27.00   10.50
   4   4   0   34.10    7.10
  -5  -4   0  288.77   19.30
  -5  -4   0  305.97   21.10
  -5  -4   0  297.47   19.70
  -5  -4   0  318.27   22.90
   5   4   0  259.17   25.80
   5   4   0  315.97   23.50
   5   4   0  296.17   20.00
   5   4   0  274.37   21.70
  -6  -4   0  811.52   50.89
  -6  -4   0  778.12   47.90
  -6  -4   0  783.62   47.80
  -6  -4   0  779.92   49.20
   6   4   0  787.22   51.19
  -7  -4   0  246.48   21.50
  -7  -4   0  230.58   19.20
  -7  -4   0  267.57   26.10
   7   4   0  245.98   20.50
 -10   5   0  395.56   33.50
   9  -5   0   -3.70    8.40
   9  -5   0    5.00    8.40
  -9   5   0    7.00   11.60
  -9   5   0   -9.00   13.70
  -9   5   0   -7.40    6.90
   8  -5   0  417.86   27.80
   8  -5   0  436.36   28.70
  -8   5   0  408.96   30.10
  -8   5   0  401.06   25.40
  -8   5   0  429.26   29.00
   7  -5   0 1312.77   77.09
   7  -5   0 1301.67   77.09
  -7   5   0 1417.06   77.99
  -7   5   0 1167.88   75.69
   6  -5   0 1157.98   66.69
   6  -5   0 1156.08   66.49
  -6   5   0 1121.99   67.69
  -6   5   0 1010.20   68.29
  -6   5   0 1199.78   66.69
  -6   5   0 1143.29   65.69
  -6   5   0 1073.09   66.79
   5  -5   0  767.52   43.20
   5  -5   0  645.74   42.90
  -5   5   0  708.83   44.00
  -5   5   0  668.73   43.20
  -5   5   0  809.12   43.50
   4  -5   0 2321.27  126.49
   4  -5   0 2125.29  125.69
   4  -5   0 2364.36  126.09
  -4   5   0 1919.21  126.29
  -4   5   0 2075.89  125.89
  -4   5   0 2159.08  126.49
   3  -5   0 1316.17   71.69
   3  -5   0 1325.67   72.19
   3  -5   0 1178.38   71.29
  -3   5   0 1133.69   70.89
  -3   5   0 1328.67   72.29
  -3   5   0 1160.68   71.59
  -3   5   0 1115.79   71.29
   2  -5   0  519.45   30.40
   2  -5   0  498.55   29.30
   2  -5   0  544.35   29.90
   2  -5   0  487.75   29.40
  -2   5   0  499.55   30.10
  -2   5   0  485.45   29.20
  -2   5   0  530.75   30.50
  -2   5   0  426.16   29.40
  -2   5   0  501.55   29.20
   1  -5   0  615.84   38.80
   1  -5   0  695.13   38.70
   1  -5   0  674.13   38.80
   1  -5   0  564.44   39.60
   1  -5   0  642.14   39.10
  -1   5   0  672.03   38.70
  -1   5   0  682.73   38.80
  -1   5   0  723.33   39.90
  -1   5   0  721.13   40.20
  -1   5   0  602.44   38.90
  -1   5   0  680.83   39.30
   0  -5   0  581.84   35.90
   0  -5   0  623.44   35.40
   0  -5   0  584.14   35.30
   0  -5   0  609.24   35.50
   0  -5   0  564.74   36.40
   0   5   0  607.24   36.10
   0   5   0  618.44   35.50
   0   5   0  622.54   37.30
  -1  -5   0 2404.06  133.59
  -1  -5   0 2056.99  133.69
  -1  -5   0 2046.70  132.69
  -1  -5   0 2344.97  133.29
  -1  -5   0 2307.27  132.89
   1   5   0 2453.65  133.39
   1   5   0 2274.67  133.29
   1   5   0 2384.66  132.89
   1   5   0 2310.47  134.09
   1   5   0 2258.47  132.89
  -2  -5   0  628.44   38.70
  -2  -5   0  568.64   39.50
  -2  -5   0  624.44   38.70
   2   5   0  630.94   38.90
   2   5   0  675.73   39.70
   2   5   0  649.34   38.80
   2   5   0  702.73   39.80
   2   5   0  733.13   41.20
  -3  -5   0 1541.65   91.59
  -3  -5   0 1699.13   92.09
  -3  -5   0 1502.95   91.09
  -3  -5   0 1523.15   90.79
   3   5   0 1541.95   90.89
   3   5   0 1514.85   92.79
   3   5   0 1533.45   91.49
  -4  -5   0 1307.87   82.49
  -4  -5   0 1443.36   83.39
  -4  -5   0 1405.26   82.39
  -4  -5   0 1305.67   81.69
   4   5   0 1430.16   82.99
   4   5   0 1476.65   84.49
   4   5   0 1374.66   81.89
  -5  -5   0  287.37   22.20
  -5  -5   0  368.26   26.10
  -5  -5   0  336.67   23.30
  -5  -5   0  333.87   22.60
   5   5   0  352.56   25.70
   5   5   0  369.56   28.70
  -6  -5   0   33.80    7.50
  -6  -5   0   33.40    6.70
  -6  -5   0   28.00   11.60
  -6  -5   0   34.70   10.70
   6   5   0   40.30    8.40
  -7  -5   0  425.66   31.80
  -7  -5   0  432.76   28.50
  -7  -5   0  428.86   33.70
   7   5   0  412.56   30.70
   9  -6   0  406.86   26.90
   9  -6   0  343.47   26.90
  -9   6   0  411.56   32.10
  -9   6   0  403.66   30.70
   8  -6   0   99.69   12.60
   8  -6   0  113.29   14.50
  -8   6   0  101.59   15.50
  -8   6   0  103.09   15.70
   7  -6   0   85.79   11.00
   7  -6   0   88.99   12.20
  -7   6   0  106.49   12.80
   6  -6   0 1019.60   61.09
   6  -6   0 1087.69   60.89
  -6   6   0 1018.80   60.69
  -6   6   0 1047.30   61.29
  -6   6   0  943.61   61.19
  -6   6   0 1043.00   62.09
   5  -6   0 1287.57   66.69
  -5   6   0 1128.69   67.69
  -5   6   0 1030.70   67.19
  -5   6   0 1087.89   66.79
   4  -6   0   90.49    7.80
   4  -6   0   98.09    9.50
   4  -6   0   95.59    9.50
  -4   6   0   91.79    9.30
  -4   6   0   67.59    8.70
  -4   6   0   87.69    9.90
   3  -6   0 1290.57   74.79
   3  -6   0 1260.37   75.89
   3  -6   0 1456.95   75.39
  -3   6   0 1330.77   74.89
  -3   6   0 1261.27   74.49
  -3   6   0 1252.47   74.59
  -3   6   0 1096.79   74.99
  -3   6   0 1290.97   75.39
  -3   6   0 1309.87   75.99
   2  -6   0 2228.78  120.79
   2  -6   0 2099.19  120.79
   2  -6   0 2143.79  120.79
   2  -6   0 1782.22  121.79
  -2   6   0 1786.52  120.89
  -2   6   0 2169.88  120.79
  -2   6   0 2186.48  122.29
  -2   6   0 2155.18  121.39
  -2   6   0 2046.80  120.79
  -2   6   0 2199.68  122.19
   1  -6   0  496.95   31.70
   1  -6   0  547.15   32.40
   1  -6   0  498.45   31.40
   1  -6   0  584.14   33.10
   1  -6   0  535.95   31.50
  -1   6   0  583.74   32.60
  -1   6   0  501.85   31.60
  -1   6   0  553.24   33.80
  -1   6   0  508.85   31.60
   0  -6   0   11.40    3.20
   0  -6   0   10.80    3.20
   0  -6   0   12.80    4.60
   0  -6   0   14.20    5.10
   0  -6   0   15.70    4.80
   0  -6   0   11.50    4.40
   0   6   0    6.90    3.80
   0   6   0   14.10    3.70
   0   6   0   15.10    4.10
   0   6   0   10.90    6.30
   0   6   0    7.30    8.40
  -1  -6   0 1249.57   78.69
  -1  -6   0 1346.87   79.29
  -1  -6   0 1464.55   77.69
  -1  -6   0 1250.27   77.59
  -1  -6   0 1294.17   78.09
   1   6   0 1430.66   78.79
   1   6   0 1350.96   80.09
   1   6   0 1317.27   78.79
   1   6   0 1300.97   78.09
   1   6   0 1339.37   78.19
  -2  -6   0 1361.46   85.29
  -2  -6   0 1644.34   86.89
  -2  -6   0 1539.55   86.69
   2   6   0 1431.86   86.19
   2   6   0 1399.36   85.49
   2   6   0 1393.76   85.59
   2   6   0 1440.26   87.39
  -3  -6   0  299.57   20.20
  -3  -6   0  323.87   21.90
  -3  -6   0  268.97   18.80
  -3  -6   0  275.57   18.80
   3   6   0  292.77   21.30
   3   6   0  266.87   19.10
   3   6   0  304.57   23.90
  -4  -6   0  128.99   11.90
  -4  -6   0  132.39   12.20
  -4  -6   0  118.49   14.30
  -4  -6   0  120.79   12.10
   4   6   0  116.19   16.10
   4   6   0  122.79   18.70
  -5  -6   0  661.23   42.80
  -5  -6   0  666.43   40.20
  -5  -6   0  610.54   40.40
   5   6   0  670.03   43.70
   5   6   0  637.64   40.40
  -6  -6   0  279.77   26.20
  -6  -6   0  254.67   20.70
  -6  -6   0  300.07   21.00
   6   6   0  220.88   34.00
   6   6   0  253.07   25.60
   6   6   0  269.17   22.20
   9  -7   0  173.08   17.40
   9  -7   0  131.69   15.20
  -9   7   0  152.38   20.50
  -9   7   0  155.48   19.20
   8  -7   0  720.93   48.90
   8  -7   0  880.51   49.10
  -8   7   0  687.03   48.90
  -8   7   0  908.71   51.89
   7  -7   0  499.55   28.90
   7  -7   0  433.26   28.70
  -7   7   0  385.46   29.50
  -7   7   0  476.65   29.30
  -7   7   0  432.16   27.60
   6  -7   0   14.40    7.80
   6  -7   0    4.40    6.70
  -6   7   0   17.80    7.00
  -6   7   0   11.90    5.50
  -6   7   0   29.70    6.60
  -6   7   0   16.70    7.30
   5  -7   0  759.62   42.70
   5  -7   0  711.33   42.20
   5  -7   0  692.33   41.30
  -5   7   0  649.34   42.10
  -5   7   0  708.73   41.90
  -5   7   0  636.44   41.30
   4  -7   0 1567.14   86.89
  -4   7   0 1336.57   87.29
  -4   7   0 1621.64   87.49
  -4   7   0 1427.76   87.19
   3  -7   0  578.94   31.90
   3  -7   0  492.25   30.40
   3  -7   0  516.95   30.90
   3  -7   0  548.05   32.60
   3  -7   0  536.35   30.40
  -3   7   0  532.35   33.70
  -3   7   0  487.45   30.60
  -3   7   0  481.05   30.70
  -3   7   0  555.24   32.10
  -3   7   0  468.55   30.80
  -3   7   0  521.75   30.50
   2  -7   0    2.40    3.50
   2  -7   0   -1.40    3.70
   2  -7   0    0.50    2.50
   2  -7   0    2.60    5.10
  -2   7   0    2.30    3.40
  -2   7   0   19.70    9.10
  -2   7   0    1.80    2.80
  -2   7   0   10.50    6.50
   1  -7   0 1517.95   79.29
   1  -7   0 1324.67   77.79
   1  -7   0 1213.28   77.19
   1  -7   0 1377.46   77.39
  -1   7   0 1135.99   77.69
  -1   7   0 1325.07   78.29
  -1   7   0 1401.36   79.79
  -1   7   0 1327.07   77.49
   0  -7   0 2130.09  123.69
   0  -7   0 2238.68  125.19
   0   7   0 2137.59  125.69
   0   7   0 2081.89  123.69
   0   7   0 2039.50  123.79
   0   7   0 2115.69  124.49
  -1  -7   0  189.78   13.00
  -1  -7   0  172.38   14.00
  -1  -7   0  154.18   13.90
   1   7   0  186.08   18.60
   1   7   0  210.18   16.60
   1   7   0  197.08   12.80
   1   7   0  180.08   14.30
   1   7   0  189.08   14.30
  -2  -7   0  223.38   16.80
  -2  -7   0  185.08   12.70
  -2  -7   0  208.38   13.90
  -2  -7   0  166.48   14.90
   2   7   0  211.38   17.20
   2   7   0  168.58   20.10
   2   7   0  212.48   14.60
  -3  -7   0 1115.19   64.49
  -3  -7   0 1140.89   65.89
  -3  -7   0 1028.50   64.29
  -3  -7   0  995.60   65.89
   3   7   0 1141.99   64.89
   3   7   0 1068.89   67.99
   3   7   0 1129.49   66.09
  -4  -7   0  421.16   28.60
  -4  -7   0  396.96   26.00
  -4  -7   0  407.96   29.40
  -4  -7   0  371.26   26.60
   4   7   0  379.86   29.10
   4   7   0  406.86   26.50
   4   7   0  364.56   33.50
  -5  -7   0   -6.60   11.70
  -5  -7   0    3.80    7.90
  -5  -7   0    3.50    8.50
   5   7   0  -10.10   13.60
   5   7   0   11.50   19.70
   5   7   0   -1.00    8.50
   9  -8   0  411.86   32.10
  -9   8   0  379.16   31.30
  -9   8   0  309.87   29.10
   8  -8   0   12.20   10.60
   8  -8   0    4.20    8.70
  -8   8   0   -7.30    9.60
  -8   8   0   -5.30    7.90
  -8   8   0   12.90   11.40
   7  -8   0  660.63   38.50
   7  -8   0  577.74   38.90
  -7   8   0  597.64   38.30
  -7   8   0  655.43   38.70
  -7   8   0  613.54   39.80
   6  -8   0 1012.10   58.39
   6  -8   0  905.01   57.99
   6  -8   0  993.00   57.09
  -6   8   0  902.01   58.09
  -6   8   0  969.20   57.19
  -6   8   0  978.30   57.59
   5  -8   0  298.97   20.10
   5  -8   0  282.07   19.90
   5  -8   0  285.87   18.50
  -5   8   0  277.97   19.20
  -5   8   0  246.28   19.00
   4  -8   0  447.06   25.20
   4  -8   0  372.16   25.50
   4  -8   0  376.16   23.90
  -4   8   0  375.26   23.40
  -4   8   0  431.76   25.70
  -4   8   0  363.66   24.50
  -4   8   0  372.16   23.50
   3  -8   0 1202.98   75.29
   3  -8   0 1308.27   73.29
   3  -8   0 1272.77   74.49
  -3   8   0 1352.36   75.99
  -3   8   0 1212.88   74.39
  -3   8   0 1202.58   73.29
   2  -8   0  534.95   36.90
   2  -8   0  645.94   34.90
  -2   8   0  596.44   38.50
  -2   8   0  617.34   36.50
  -2   8   0  551.44   35.10
  -2   8   0  596.64   35.00
   1  -8   0   14.50    5.70
  -1   8   0   18.40    9.50
  -1   8   0    7.90    4.50
  -1   8   0   10.80    3.90
  -1   8   0   10.20    4.70
  -1   8   0    9.70    6.60
   0  -8   0  295.97   18.20
   0  -8   0  313.67   20.40
   0   8   0  255.87   19.20
   0   8   0  295.37   18.30
   0   8   0  261.87   24.00
   0   8   0  278.47   19.10
   0   8   0  278.77   21.40
  -1  -8   0  622.14   38.70
  -1  -8   0  636.94   38.30
  -1  -8   0  604.64   37.00
   1   8   0  634.14   40.00
   1   8   0  566.74   41.10
  -2  -8   0  606.74   37.70
  -2  -8   0  570.34   35.50
  -2  -8   0  522.25   37.40
   2   8   0  609.34   36.20
   2   8   0  583.44   41.20
   2   8   0  623.84   39.30
  -3  -8   0   27.00    9.00
   3   8   0   23.50   12.80
   3   8   0   29.60    7.50
   3   8   0   40.70   16.40
  -4  -8   0  372.76   27.70
  -4  -8   0  413.46   31.40
  -4  -8   0  397.06   27.00
   4   8   0  412.36   27.30
   4   8   0  347.87   36.60
   4   8   0  396.36   32.20
   9  -9   0  241.58   23.10
  -9   9   0  323.27   25.10
  -9   9   0  306.87   26.30
   8  -9   0  284.57   23.70
  -8   9   0  324.87   32.30
  -8   9   0  351.16   26.70
  -8   9   0  336.17   26.50
   7  -9   0   55.99   12.00
   7  -9   0   82.79   12.80
  -7   9   0   42.00    9.10
  -7   9   0   65.59   11.60
  -7   9   0   72.59   11.70
   6  -9   0  107.49   13.20
   6  -9   0  117.19   13.10
   6  -9   0  125.59   12.70
  -6   9   0  129.09   13.30
   5  -9   0  879.71   53.69
   5  -9   0  905.41   52.39
   5  -9   0  833.12   53.89
  -5   9   0  957.90   54.89
  -5   9   0  789.12   52.59
  -5   9   0  924.71   53.49
   4  -9   0  777.02   49.60
   4  -9   0  862.11   50.49
  -4   9   0  837.32   47.80
  -4   9   0  838.82   49.90
  -4   9   0  767.12   51.19
   3  -9   0   25.60    7.30
  -3   9   0   41.40    7.80
  -3   9   0   25.30    3.80
  -3   9   0   38.70   11.10
   2  -9   0  612.54   35.80
   2  -9   0  614.74   38.40
  -2   9   0  567.54   40.10
  -2   9   0  612.14   35.90
  -2   9   0  596.74   37.50
   1  -9   0 1292.67   75.39
  -1   9   0 1266.07   75.49
  -1   9   0 1303.27   76.99
   0  -9   0  436.26   28.40
   0  -9   0  389.16   25.60
   0   9   0  448.66   32.30
   0   9   0  422.06   30.80
   0   9   0  375.46   26.40
  -1  -9   0   23.20    5.80
  -1  -9   0   27.00    8.30
   1   9   0   25.40   10.40
   1   9   0   22.50   15.90
   1   9   0   30.20    7.10
  -2  -9   0  427.56   31.50
  -2  -9   0  491.95   32.30
  -2  -9   0  484.95   29.80
   2   9   0  502.95   30.70
   2   9   0  477.35   33.70
   2   9   0  466.35   38.40
  -3  -9   0  557.34   37.60
  -3  -9   0  587.44   39.40
  -3  -9   0  647.64   41.30
   3   9   0  571.74   37.20
   3   9   0  551.24   45.10
   3   9   0  562.24   40.20
   8 -10   0   86.59   11.70
   8 -10   0   58.49   12.00
  -8  10   0   66.79   14.20
  -8  10   0  120.69   22.40
   7 -10   0  576.54   35.30
  -7  10   0  525.05   36.50
  -7  10   0  556.64   40.60
   6 -10   0  244.68   22.20
   6 -10   0  264.07   21.80
  -6  10   0  307.37   24.10
  -6  10   0  335.37   26.40
   5 -10   0   10.00   10.70
   5 -10   0    4.20   10.10
  -5  10   0   -3.60   10.70
   4 -10   0  402.56   29.30
  -4  10   0  457.35   32.70
  -4  10   0  429.66   31.70
  -4  10   0  413.86   25.30
   3 -10   0 1077.19   64.39
  -3  10   0  955.30   64.69
  -3  10   0 1071.19   65.89
  -3  10   0 1057.29   61.19
   2 -10   0  134.19   14.90
  -2  10   0  107.79   17.80
  -2  10   0  120.09   22.00
   1 -10   0   76.89   13.10
  -1  10   0   75.19    9.30
  -1  10   0   65.29   15.60
  -1  10   0   81.69   13.00
   0 -10   0  538.85   34.70
   0  10   0  537.95   32.20
   0  10   0  510.05   36.50
   0  10   0  445.46   39.70
  -1 -10   0  490.15   34.00
   1  10   0  442.76   39.20
   1  10   0  464.35   35.90
   1  10   0  505.45   31.20
  -2 -10   0   17.60   11.50
   2  10   0  -17.80   12.60
   2  10   0   -5.80    7.60
   2  10   0    9.00   20.90
   7 -11   0   41.70   12.90
  -7  11   0   87.59   19.40
  -7  11   0   47.40   14.40
   6 -11   0  394.36   31.00
  -6  11   0  439.06   34.70
  -6  11   0  399.56   31.60
   5 -11   0  571.44   37.40
  -5  11   0  538.15   40.80
  -5  11   0  533.55   38.00
   4 -11   0   82.39   14.90
  -4  11   0   90.09   12.70
  -4  11   0   88.29    8.00
  -4  11   0  116.69   23.10
   3 -11   0  175.48   19.90
  -3  11   0  209.98   26.70
  -3  11   0  215.58   22.90
  -3  11   0  233.88   15.10
   2 -11   0  405.66   30.10
  -2  11   0  396.96   31.50
  -2  11   0  385.26   33.70
  -2  11   0  433.26   25.90
   1 -11   0  379.76   29.80
  -1  11   0  432.76   26.30
  -1  11   0  391.16   30.70
  -1  11   0  409.36   36.90
   0 -11   0    4.00   10.00
   0  11   0   15.60   13.30
   0  11   0   12.70   19.90
   0  11   0   15.80    7.80
  -1 -11   0  244.08   21.00
   1  11   0  225.48   20.60
   1  11   0  190.48   31.50
   1  11   0  196.68   24.00
   6 -12   0   30.10   15.00
  -6  12   0   14.30   17.90
  -6  12   0   45.20   15.20
   5 -12   0  159.28   20.40
  -5  12   0  199.28   22.30
  -5  12   0  178.58   29.80
   4 -12   0  241.58   24.20
  -4  12   0  269.07   27.70
  -4  12   0  296.57   31.50
   3 -12   0  267.07   26.30
  -3  12   0  294.37   27.70
  -3  12   0  359.76   21.00
  -3  12   0  294.37   33.00
   2 -12   0   -2.50   11.00
  -2  12   0   -2.30   19.80
  -2  12   0   -3.90    6.90
  -2  12   0  -11.90   14.70
  -1  12   0  162.38   22.90
  -1  12   0  202.18   16.30
  -1  12  -1    1.80    6.70
  -1  12  -1  -11.70   21.50
  -1  12  -1    6.30   15.20
   1 -12   1    5.80   10.60
  -2  12  -1  154.78   28.50
  -2  12  -1  149.69   14.30
   2 -12   1  156.48   19.10
  -3  12  -1  592.84   35.60
  -3  12  -1  574.54   45.10
  -3  12  -1  552.84   40.90
   3 -12   1  605.14   40.80
  -4  12  -1   49.99   13.00
  -4  12  -1   74.29   19.70
   4 -12   1   62.09   13.60
  -5  12  -1   11.00   11.70
  -5  12  -1    7.20   13.80
  -5  12  -1   29.00   17.70
   5 -12   1    7.10   12.00
  -6  12  -1  248.58   25.20
  -6  12  -1  217.58   24.80
  -6  12  -1  234.18   29.50
   6 -12   1  192.88   22.30
   1  11  -1    0.90    7.10
   1  11  -1   17.20   15.50
   1  11  -1   10.30   21.40
  -1 -11   1    7.50   10.30
   0  11  -1  483.95   29.80
   0  11  -1  453.75   40.30
   0  11  -1  475.15   34.10
   0 -11   1  438.16   33.00
  -1  11  -1  427.86   36.10
  -1  11  -1  400.26   31.00
  -1  11  -1  374.96   25.20
   1 -11   1  385.26   29.10
  -2  11  -1   32.10   17.40
  -2  11  -1   23.70   12.20
  -2  11  -1   22.50    6.30
   2 -11   1   19.00   10.20
  -3  11  -1   -7.60    8.30
  -3  11  -1   10.20   14.00
  -3  11  -1    1.90   10.30
   3 -11   1    2.20    9.70
  -4  11  -1  570.24   36.90
  -4  11  -1  560.44   40.00
   4 -11   1  492.15   36.60
  -5  11  -1  738.33   49.20
  -5  11  -1  709.23   46.60
   5 -11   1  718.33   46.90
  -6  11  -1    4.70   12.10
  -6  11  -1   27.00   12.20
  -6  11  -1   57.79   15.30
   6 -11   1   20.20   13.20
   6 -11   1   23.50   10.40
  -7  11  -1  154.78   24.20
  -7  11  -1  153.98   20.30
   3  10  -1   -5.10   21.80
  -3 -10   1    4.90   10.90
   2  10  -1  515.45   34.60
   2  10  -1  555.44   39.40
   2  10  -1  563.74   44.00
  -2 -10   1  520.45   36.30
   1  10  -1  537.75   36.80
   1  10  -1  533.15   41.90
   1  10  -1  570.24   33.40
  -1 -10   1  483.65   35.50
   0  10  -1  161.48   12.40
   0  10  -1  109.69   21.50
   0  10  -1  161.88   17.80
   0 -10   1  109.49   14.80
  -1  10  -1  262.87   21.90
  -1  10  -1  279.97   18.30
   1 -10   1  272.77   21.90
  -2  10  -1 1001.80   64.99
  -2  10  -1 1078.09   60.39
   2 -10   1  994.50   63.29
  -3  10  -1  345.57   20.10
   3 -10   1  306.77   24.40
  -4  10  -1   61.79   13.90
  -5  10  -1  298.07   26.60
   5 -10   1  277.47   21.90
   5 -10   1  274.17   19.60
   5 -10   1  283.77   20.60
  -6  10  -1  543.75   38.40
  -6  10  -1  613.14   39.80
  -6  10  -1  561.84   36.50
   6 -10   1  471.45   36.00
   6 -10   1  569.94   35.10
   6 -10   1  576.14   37.60
  -7  10  -1  135.19   18.70
   7 -10   1  146.69   14.60
   7 -10   1  122.39   16.50
  -8  10  -1   -0.50   11.70
   8 -10   1   17.10   11.40
   8 -10   1   -3.70    8.80
   4   9  -1  352.46   33.30
   4   9  -1  356.66   38.80
   4   9  -1  342.27   26.90
  -4  -9   1  352.46   26.00
  -4  -9   1  375.56   33.10
  -4  -9   1  354.06   27.60
   3   9  -1  337.57   22.10
   3   9  -1  263.57   32.70
   3   9  -1  291.67   26.50
  -3  -9   1  324.07   26.00
  -3  -9   1  296.37   21.70
  -3  -9   1  286.47   23.10
   2   9  -1   53.79   17.50
   2   9  -1   28.00    6.70
   2   9  -1   30.00   12.90
  -2  -9   1   38.80    8.70
  -2  -9   1   32.90    5.60
   1   9  -1  267.37   22.40
   1   9  -1  241.38   16.90
   1   9  -1  240.48   26.10
  -1  -9   1  203.88   18.80
  -1  -9   1  258.27   16.90
   0   9  -1 1206.68   74.49
   0  -9   1 1258.97   70.29
   0  -9   1 1117.09   72.59
  -1   9  -1  477.95   30.40
  -1   9  -1  457.85   27.80
   1  -9   1  443.56   32.40
  -2   9  -1   55.89   11.80
  -2   9  -1   36.00    5.80
  -2   9  -1   50.19    8.10
   2  -9   1   39.30    8.00
   2  -9   1   43.90    5.30
   2  -9   1   20.30    9.50
  -3   9  -1  797.82   48.50
  -3   9  -1  827.72   50.19
  -3   9  -1  835.42   51.99
   3  -9   1  850.81   51.19
  -4   9  -1  947.81   54.09
  -4   9  -1  866.01   51.39
  -4   9  -1  894.61   52.09
   4  -9   1  758.42   51.39
   4  -9   1  888.31   52.39
   4  -9   1  851.51   53.29
  -5   9  -1  153.18   11.80
  -5   9  -1  137.19   12.70
  -5   9  -1  151.38   12.10
   5  -9   1  111.19   13.10
   5  -9   1  132.39   12.50
   5  -9   1  135.99   12.70
  -6   9  -1   53.59   11.30
  -6   9  -1   59.79   11.00
  -6   9  -1   71.49   11.50
  -6   9  -1   98.99   15.30
  -6   9  -1   80.29   11.70
   6  -9   1   71.49   11.00
   6  -9   1   63.29   11.00
  -7   9  -1  584.34   36.60
  -7   9  -1  492.45   36.90
  -7   9  -1  572.74   35.50
  -7   9  -1  558.24   37.60
  -7   9  -1  456.55   33.80
   7  -9   1  600.54   34.20
   7  -9   1  483.35   34.40
  -8   9  -1  353.16   26.90
  -8   9  -1  348.37   27.90
   8  -9   1  283.07   24.30
   8  -9   1  398.76   25.60
   5   8  -1  375.36   26.00
   5   8  -1  315.57   40.10
   5   8  -1  430.06   32.80
  -5  -8   1  337.97   31.20
  -5  -8   1  397.06   27.90
  -5  -8   1  397.76   27.50
   4   8  -1    8.50   18.10
   4   8  -1   11.90   13.30
   4   8  -1   -7.60    7.40
  -4  -8   1    4.70    7.50
  -4  -8   1   -0.10   10.60
  -4  -8   1   10.80    7.80
   3   8  -1  421.46   37.40
   3   8  -1  483.05   32.90
   3   8  -1  491.35   30.30
  -3  -8   1  461.85   31.50
  -3  -8   1  473.85   29.70
  -3  -8   1  510.65   35.00
   2   8  -1 1417.36   84.09
   2   8  -1 1382.76   82.99
  -2  -8   1 1461.45   84.49
  -2  -8   1 1370.56   82.89
   1   8  -1  463.65   30.30
   1   8  -1  465.95   32.00
   1   8  -1  480.45   29.40
   1   8  -1  491.55   34.10
   1   8  -1  481.95   31.70
  -1  -8   1  498.25   29.60
  -1  -8   1  517.55   31.30
  -1  -8   1  454.75   29.40
   0   8  -1  313.47   21.90
   0   8  -1  304.87   19.30
   0   8  -1  298.87   21.10
   0   8  -1  290.67   23.50
   0   8  -1  302.57   19.90
   0  -8   1  294.77   19.50
   0  -8   1  325.67   19.30
   0  -8   1  313.27   21.30
  -1   8  -1 1188.28   69.49
  -1   8  -1 1287.97   72.29
  -1   8  -1 1224.48   70.59
   1  -8   1 1032.30   71.09
   1  -8   1 1121.39   69.49
   1  -8   1 1276.07   69.49
  -2   8  -1  765.72   43.10
  -2   8  -1  723.73   41.20
  -2   8  -1  581.84   40.20
  -2   8  -1  711.93   39.70
  -2   8  -1  662.13   39.80
   2  -8   1  627.14   39.80
   2  -8   1  687.83   41.90
   2  -8   1  645.14   39.90
  -3   8  -1  105.59    8.20
  -3   8  -1  120.09    8.00
  -3   8  -1  147.49   12.10
   3  -8   1  126.79   11.60
   3  -8   1  107.39    9.90
  -4   8  -1   42.80    6.70
  -4   8  -1   35.60    6.10
   4  -8   1   32.40    6.40
   4  -8   1   30.20    6.90
   4  -8   1   38.80    7.00
  -5   8  -1  715.63   45.90
  -5   8  -1  673.83   46.30
  -5   8  -1  772.02   46.30
  -5   8  -1  786.52   47.70
  -5   8  -1  801.22   46.90
   5  -8   1  761.32   46.20
   5  -8   1  854.01   47.50
   5  -8   1  759.22   45.70
  -6   8  -1 1041.60   62.99
  -6   8  -1 1028.80   62.49
  -6   8  -1 1033.50   63.49
  -6   8  -1 1122.99   62.89
   6  -8   1  973.20   62.79
   6  -8   1 1085.19   62.39
  -7   8  -1   59.89    8.70
  -7   8  -1   71.29   12.70
  -7   8  -1   36.40    8.10
   7  -8   1   54.09    9.20
   7  -8   1   54.49   10.20
  -8   8  -1  405.86   30.80
  -8   8  -1  439.46   30.00
  -8   8  -1  398.56   31.90
   8  -8   1  445.06   29.00
  -9   8  -1  499.95   37.80
  -9   8  -1  555.94   35.90
   9  -8   1  438.96   33.70
   9  -8   1  581.64   35.70
   6   7  -1   50.49   24.50
   6   7  -1  112.09   13.10
  -6  -7   1   69.39   10.40
  -6  -7   1   87.29   14.70
   5   7  -1  327.87   23.00
   5   7  -1  337.07   35.70
   5   7  -1  353.26   29.10
  -5  -7   1  293.57   23.20
  -5  -7   1  288.77   26.10
  -5  -7   1  304.47   22.50
   4   7  -1  320.57   30.80
   4   7  -1  336.17   25.70
   4   7  -1  323.17   22.70
  -4  -7   1  362.36   25.00
  -4  -7   1  300.47   21.60
   3   7  -1  408.46   30.60
  -3  -7   1  400.56   26.90
  -3  -7   1  389.46   25.00
  -3  -7   1  372.46   24.50
  -3  -7   1  413.76   26.40
   2   7  -1  188.88   13.90
   2   7  -1  241.78   21.00
   2   7  -1  201.68   16.70
  -2  -7   1  164.78   13.80
  -2  -7   1  235.18   17.10
  -2  -7   1  188.18   15.00
   1   7  -1  842.82   51.89
   1   7  -1  828.92   52.59
   1   7  -1  926.91   52.79
   1   7  -1  996.00   54.79
   1   7  -1  870.81   51.59
  -1  -7   1  832.42   52.89
  -1  -7   1  844.82   51.59
  -1  -7   1  852.81   51.59
   0   7  -1 1244.78   81.49
   0   7  -1 1474.05   83.29
   0   7  -1 1369.76   80.99
   0   7  -1 1429.96   81.79
   0   7  -1 1411.46   80.89
   0  -7   1 1388.96   82.39
   0  -7   1 1307.17   80.69
   0  -7   1 1451.55   80.89
  -1   7  -1  392.16   24.90
  -1   7  -1  335.97   20.70
  -1   7  -1  353.56   22.00
  -1   7  -1  291.47   21.20
  -1   7  -1  369.76   20.70
   1  -7   1  317.87   20.80
   1  -7   1  314.37   21.80
   1  -7   1  328.87   20.80
   1  -7   1  313.87   22.30
   1  -7   1  378.46   20.60
  -2   7  -1 1517.05   92.19
  -2   7  -1 1672.03   92.29
  -2   7  -1 1567.94   94.19
  -2   7  -1 1641.54   93.09
  -2   7  -1 1504.55   92.79
   2  -7   1 1643.64   93.89
   2  -7   1 1553.04   92.19
   2  -7   1 1587.44   92.39
  -3   7  -1 1234.18   71.29
  -3   7  -1 1016.90   69.19
  -3   7  -1 1188.58   69.79
   3  -7   1 1313.77   69.89
   3  -7   1 1172.88   70.69
   3  -7   1 1183.98   69.29
  -4   7  -1  601.24   34.30
  -4   7  -1  572.54   32.70
  -4   7  -1  467.65   32.70
  -4   7  -1  502.05   32.80
   4  -7   1  519.85   34.10
   4  -7   1  570.44   34.00
   4  -7   1  529.65   32.90
  -5   7  -1    2.80    5.60
  -5   7  -1   12.10    5.80
  -5   7  -1    3.30    6.10
   5  -7   1    1.40    6.80
   5  -7   1    9.10    5.30
   5  -7   1    4.50    5.60
  -6   7  -1  800.82   54.09
  -6   7  -1  906.31   53.59
  -6   7  -1  868.91   53.59
  -6   7  -1  968.40   54.89
  -6   7  -1  874.61   53.89
   6  -7   1  890.51   53.79
   6  -7   1  950.20   53.59
  -7   7  -1  520.45   31.70
  -7   7  -1  482.95   31.00
  -7   7  -1  400.76   28.80
  -7   7  -1  509.95   31.00
   7  -7   1  458.85   29.60
   7  -7   1  406.66   30.10
  -8   7  -1  251.17   22.40
  -8   7  -1  262.97   23.60
   8  -7   1  225.08   19.70
   8  -7   1  186.88   17.90
  -9   7  -1   39.10   13.70
  -9   7  -1   25.30   12.90
   9  -7   1   10.70   10.30
   6   6  -1  501.95   42.50
   6   6  -1  537.45   34.50
  -6  -6   1  546.55   34.20
  -6  -6   1  504.95   33.90
  -6  -6   1  533.85   37.80
   5   6  -1   74.59   19.10
   5   6  -1   79.89   12.20
   5   6  -1   76.59   11.70
  -5  -6   1   75.99   11.10
  -5  -6   1   67.09   11.90
  -5  -6   1   80.29    9.80
  -5  -6   1   65.99   11.20
   4   6  -1  392.26   28.80
   4   6  -1  379.56   26.80
  -4  -6   1  311.77   22.90
  -4  -6   1  331.37   23.30
  -4  -6   1  372.66   23.50
  -4  -6   1  385.56   25.80
   3   6  -1  970.00   58.49
   3   6  -1 1036.20   59.39
   3   6  -1 1032.30   61.19
  -3  -6   1  964.90   58.29
  -3  -6   1 1052.59   59.99
  -3  -6   1  892.51   58.99
  -3  -6   1  957.90   58.39
   2   6  -1 1280.67   79.69
   2   6  -1 1300.17   78.19
   2   6  -1 1357.86   77.59
   2   6  -1 1341.67   77.59
  -2  -6   1 1380.56   77.29
  -2  -6   1 1366.86   78.49
  -2  -6   1 1210.18   78.39
  -2  -6   1 1331.07   77.39
   1   6  -1  129.59   11.40
   1   6  -1  113.79   13.20
   1   6  -1  116.09    9.30
   1   6  -1  145.09   16.00
   1   6  -1  123.09    9.60
  -1  -6   1  121.89   11.00
  -1  -6   1  109.49   11.30
  -1  -6   1  117.39   10.70
  -1  -6   1  118.09    9.30
   0   6  -1 1573.64   86.99
   0   6  -1 1384.86   88.09
   0   6  -1 1498.65   87.49
   0   6  -1 1483.75   88.69
   0   6  -1 1500.35   87.49
   0  -6   1 1428.56   87.39
   0  -6   1 1588.64   87.19
   0  -6   1 1471.85   86.89
  -1   6  -1 3258.47  179.78
  -1   6  -1 3105.39  180.18
  -1   6  -1 2794.12  180.88
  -1   6  -1 2724.03  180.08
  -1   6  -1 3136.99  179.78
  -1   6  -1 3197.88  181.18
   1  -6   1 3076.59  179.78
   1  -6   1 3086.79  179.78
   1  -6   1 2955.70  180.08
   1  -6   1 3337.37  181.08
   1  -6   1 3399.56  179.78
  -2   6  -1 1419.96   84.79
  -2   6  -1 1641.94   85.99
  -2   6  -1 1333.87   84.19
  -2   6  -1 1387.96   84.29
  -2   6  -1 1522.45   85.89
   2  -6   1 1343.37   84.19
   2  -6   1 1329.67   84.49
   2  -6   1 1603.14   84.99
   2  -6   1 1474.75   85.69
  -3   6  -1  423.46   25.70
  -3   6  -1  378.16   24.50
  -3   6  -1  415.16   26.40
   3  -6   1  400.36   24.50
   3  -6   1  365.36   24.10
  -4   6  -1 1658.93  106.69
  -4   6  -1 1854.61  106.79
  -4   6  -1 1922.91  106.29
  -4   6  -1 1835.52  106.09
  -4   6  -1 1660.13  106.49
   4  -6   1 2040.00  106.29
   4  -6   1 1736.93  106.19
  -5   6  -1  658.43   38.30
  -5   6  -1  529.95   38.10
  -5   6  -1  666.43   37.90
  -5   6  -1  641.34   37.80
   5  -6   1  599.04   37.40
   5  -6   1  629.24   37.70
  -6   6  -1  316.47   23.80
  -6   6  -1  357.36   24.80
  -6   6  -1  379.56   23.10
   6  -6   1  382.46   24.10
   6  -6   1  387.16   24.00
  -7   6  -1   60.09   11.30
  -7   6  -1   63.89   11.50
   7  -6   1   53.19    9.30
   7  -6   1   80.99   12.20
  -8   6  -1  785.62   48.90
   8  -6   1  783.72   47.00
   8  -6   1  689.63   46.40
  -9   6  -1  366.36   30.30
  -9   6  -1  333.87   28.30
   9  -6   1  289.57   23.60
   7   5  -1   13.60   21.20
   7   5  -1   25.10    9.20
  -7  -5   1   19.40   12.20
  -7  -5   1   10.90    7.80
  -7  -5   1   33.50    9.60
   6   5  -1  188.08   17.70
   6   5  -1  220.38   17.80
  -6  -5   1  238.88   18.30
  -6  -5   1  214.18   17.00
  -6  -5   1  221.88   16.40
  -6  -5   1  229.08   21.40
   5   5  -1 1074.29   63.59
   5   5  -1 1017.70   64.99
  -5  -5   1 1026.90   62.29
  -5  -5   1 1047.20   62.69
   4   5  -1  510.65   35.80
   4   5  -1  526.35   32.20
   4   5  -1  529.15   33.60
  -4  -5   1  543.65   32.70
  -4  -5   1  532.55   32.10
  -4  -5   1  529.65   33.90
  -4  -5   1  505.35   32.50
   3   5  -1   19.00    4.60
   3   5  -1   21.50    6.50
   3   5  -1   19.00    9.30
  -3  -5   1   12.30    4.00
  -3  -5   1   16.40    4.40
  -3  -5   1   17.40    4.70
  -3  -5   1   16.20    6.50
   2   5  -1  700.23   41.80
   2   5  -1  760.62   43.00
   2   5  -1  750.22   44.30
   2   5  -1  716.93   41.90
   2   5  -1  702.53   42.90
  -2  -5   1  674.23   42.90
  -2  -5   1  698.43   41.80
  -2  -5   1  662.13   42.30
  -2  -5   1  697.43   43.70
  -2  -5   1  705.33   42.00
  -2  -5   1  695.33   42.50
  -2  -5   1  683.03   41.80
   1   5  -1 2443.76  145.89
   1   5  -1 2339.87  146.39
   1   5  -1 2629.54  147.19
   1   5  -1 2457.35  146.29
   1   5  -1 2521.95  145.89
  -1  -5   1 2559.64  145.69
  -1  -5   1 2581.14  146.79
  -1  -5   1 2441.06  145.89
  -1  -5   1 2383.86  145.89
  -1  -5   1 2895.51  146.79
  -1  -5   1 2354.66  146.19
   0   5  -1  873.71   52.89
   0   5  -1  919.91   51.39
   0   5  -1  900.71   51.89
   0   5  -1  835.12   51.69
   0   5  -1  879.51   51.39
   0   5  -1  967.40   52.39
   0  -5   1  859.51   51.39
   0  -5   1  908.81   51.29
   0  -5   1  813.42   51.59
   0  -5   1  817.72   51.29
  -1   5  -1  267.97   15.80
  -1   5  -1  265.57   16.80
  -1   5  -1  272.77   18.10
  -1   5  -1  276.17   15.80
  -1   5  -1  258.27   17.10
   1  -5   1  255.87   16.00
   1  -5   1  218.88   16.80
   1  -5   1  290.77   15.70
   1  -5   1  251.47   16.20
  -2   5  -1 2369.86  144.09
  -2   5  -1 2611.34  144.09
  -2   5  -1 2517.45  144.49
  -2   5  -1 2389.56  145.19
  -2   5  -1 2656.23  145.19
  -2   5  -1 2505.55  144.49
   2  -5   1 2323.97  145.09
   2  -5   1 2505.15  144.29
  -3   5  -1 1715.13  102.49
  -3   5  -1 1723.53  101.99
  -3   5  -1 1620.84  102.29
  -3   5  -1 1845.92  102.19
  -3   5  -1 1679.33  102.59
   3  -5   1 1931.61  102.09
   3  -5   1 1834.22  102.79
   3  -5   1 1647.44  101.89
  -4   5  -1   11.20    5.30
  -4   5  -1    5.30    4.00
  -4   5  -1   11.70    4.50
   4  -5   1   11.80    4.70
   4  -5   1    6.10    4.60
   4  -5   1   11.60    5.40
  -5   5  -1  230.38   18.80
  -5   5  -1  289.47   18.30
  -5   5  -1  270.67   17.20
  -5   5  -1  238.58   17.60
   5  -5   1  285.87   18.10
   5  -5   1  288.47   17.50
  -6   5  -1 1062.39   63.49
  -6   5  -1 1054.69   62.79
  -6   5  -1 1038.00   62.39
   6  -5   1 1042.80   62.09
   6  -5   1 1029.40   62.29
  -7   5  -1  612.64   36.90
  -7   5  -1  599.64   40.30
  -7   5  -1  650.53   39.80
   7  -5   1  616.74   38.70
   7  -5   1  650.83   38.80
  -8   5  -1   -9.70   12.20
  -8   5  -1    1.80    4.00
  -8   5  -1   -6.30    9.80
   8  -5   1   -2.60    9.30
   8  -5   1   -9.40    7.20
  -9   5  -1  329.47   28.10
  -9   5  -1  316.07   27.50
  -9   5  -1  315.97   20.70
   9  -5   1  292.97   23.60
   8   4  -1  272.87   20.20
   8   4  -1  258.67   22.70
  -8  -4   1  238.88   24.10
   7   4  -1  527.65   33.00
  -7  -4   1  510.75   36.60
  -7  -4   1  478.35   34.90
  -7  -4   1  503.45   32.30
   6   4  -1  394.16   32.20
   6   4  -1  386.66   26.80
  -6  -4   1  402.16   27.30
  -6  -4   1  427.26   26.40
  -6  -4   1  430.86   26.70
  -6  -4   1  446.86   30.60
   5   4  -1  127.79   15.50
   5   4  -1   97.39   19.40
   5   4  -1  123.69   10.50
  -5  -4   1  111.29   10.40
  -5  -4   1  109.79    9.80
  -5  -4   1  116.99   14.40
  -5  -4   1  122.99   12.10
   4   4  -1 1652.73   96.89
   4   4  -1 1688.73   97.39
   4   4  -1 1614.84   98.49
  -4  -4   1 1691.73   97.19
  -4  -4   1 1616.34   96.69
  -4  -4   1 1584.84   97.69
  -4  -4   1 1717.53   97.39
   3   4  -1 1581.64   92.99
   3   4  -1 1525.85   92.39
   3   4  -1 1620.04   93.29
   3   4  -1 1630.24   94.29
   3   4  -1 1531.35   92.39
  -3  -4   1 1643.44   92.99
  -3  -4   1 1575.74   93.59
  -3  -4   1 1680.33   93.59
  -3  -4   1 1587.34   93.19
  -3  -4   1 1636.04   92.79
  -3  -4   1 1498.55   92.39
  -3  -4   1 1464.75   92.39
   2   4  -1  423.26   26.10
   2   4  -1  472.95   27.50
   2   4  -1  412.06   25.90
   2   4  -1  411.66   25.20
   2   4  -1  412.36   25.20
  -2  -4   1  412.16   25.70
  -2  -4   1  396.26   25.20
  -2  -4   1  400.36   25.10
  -2  -4   1  454.95   27.00
  -2  -4   1  394.26   25.60
  -2  -4   1  404.86   25.10
   1   4  -1 1255.17   81.49
   1   4  -1 1474.05   82.19
   1   4  -1 1315.47   81.19
   1   4  -1 1358.66   81.09
   1   4  -1 1346.47   81.39
  -1  -4   1 1481.05   80.99
  -1  -4   1 1407.26   81.29
  -1  -4   1 1369.56   81.69
  -1  -4   1 1533.85   82.09
  -1  -4   1 1374.96   81.09
   0   4  -1 3619.74  206.58
   0   4  -1 3693.43  207.28
   0   4  -1 3761.92  207.38
   0   4  -1 3048.99  206.78
   0   4  -1 3507.05  206.68
   0   4  -1 3708.43  206.58
   0  -4   1 3620.84  206.58
   0  -4   1 3500.55  206.68
   0  -4   1 3455.15  206.48
   0  -4   1 3700.63  206.58
  -1   4  -1 2173.58  127.09
  -1   4  -1 2162.78  126.99
  -1   4  -1 2340.87  127.49
  -1   4  -1 2351.76  126.69
  -1   4  -1 2172.28  126.79
  -1   4  -1 2156.18  127.49
   1  -4   1 2118.49  126.99
   1  -4   1 1912.61  126.69
   1  -4   1 2265.57  126.79
  -2   4  -1  118.59    8.50
  -2   4  -1  113.49    8.40
  -2   4  -1  120.99    8.00
   2  -4   1  110.99    7.70
   2  -4   1  102.79    7.60
   2  -4   1  106.79    8.40
  -3   4  -1 1710.13   99.19
   3  -4   1 1813.12   98.99
   3  -4   1 1602.64   99.49
   3  -4   1 1670.63   98.89
  -4   4  -1 2728.23  149.88
  -4   4  -1 2481.25  148.99
  -4   4  -1 2495.85  149.39
  -4   4  -1 2642.04  149.49
   4  -4   1 2661.13  149.09
   4  -4   1 2357.46  148.89
  -5   4  -1 1003.30   56.39
  -5   4  -1  976.20   57.49
  -5   4  -1  990.30   57.89
  -5   4  -1  869.81   58.09
  -5   4  -1 1086.19   58.59
  -5   4  -1  890.01   56.89
   5  -4   1  990.40   57.39
   5  -4   1  937.31   57.19
  -6   4  -1   29.70    7.20
  -6   4  -1   15.60    5.10
  -6   4  -1   20.30    7.10
  -6   4  -1   14.50    3.30
   6  -4   1   11.80    5.80
   6  -4   1   20.90    6.80
  -7   4  -1  853.21   51.19
  -7   4  -1  918.01   53.99
  -7   4  -1  826.72   53.99
  -7   4  -1  890.31   50.99
   7  -4   1  886.91   52.49
   7  -4   1  828.52   52.29
  -8   4  -1  870.81   53.49
  -8   4  -1  949.40   57.29
  -8   4  -1  943.01   57.59
   8  -4   1  879.91   55.69
   8  -4   1  891.61   55.19
  -9   4  -1  100.89   12.20
  -9   4  -1  118.49   19.40
  -9   4  -1  148.59   24.90
   9  -4   1  116.09   15.00
   8   3  -1   71.59   10.90
   8   3  -1   95.89   12.10
  -8  -3   1   96.79   18.70
  -8  -3   1  110.79   15.80
  -8  -3   1  100.29   14.00
   7   3  -1  133.39   22.50
   7   3  -1  171.18   14.60
  -7  -3   1  151.28   14.80
  -7  -3   1  170.28   12.00
  -7  -3   1  167.08   16.50
  -7  -3   1  147.59   20.10
   6   3  -1  820.02   52.89
   6   3  -1  795.52   48.70
   6   3  -1  749.33   48.60
  -6  -3   1  817.92   48.50
  -6  -3   1  871.71   50.29
   5   3  -1  650.73   40.20
   5   3  -1  635.74   39.10
   5   3  -1  644.74   42.50
  -5  -3   1  665.73   40.10
  -5  -3   1  650.33   39.10
  -5  -3   1  632.94   40.60
  -5  -3   1  669.23   41.00
  -5  -3   1  647.24   40.90
   4   3  -1  273.37   19.50
   4   3  -1  292.27   18.10
   4   3  -1  280.37   21.80
  -4  -3   1  287.57   20.30
  -4  -3   1  260.97   20.30
  -4  -3   1  271.27   17.90
  -4  -3   1  287.47   18.00
  -4  -3   1  267.07   17.70
  -4  -3   1  298.07   19.10
   3   3  -1  311.47   20.90
   3   3  -1  344.87   22.30
   3   3  -1  322.07   21.20
   3   3  -1  354.56   22.00
  -3  -3   1  351.16   21.40
  -3  -3   1  356.16   21.90
  -3  -3   1  408.86   21.80
  -3  -3   1  360.76   22.60
  -3  -3   1  317.17   20.90
  -3  -3   1  315.07   21.20
   2   3  -1 2422.86  149.79
   2   3  -1 2472.25  149.59
   2   3  -1 2666.73  150.08
   2   3  -1 2598.64  149.59
   2   3  -1 2575.54  150.38
  -2  -3   1 2772.12  150.28
  -2  -3   1 2711.53  149.79
  -2  -3   1 2343.07  149.88
  -2  -3   1 2689.13  150.28
  -2  -3   1 2486.35  149.49
  -2  -3   1 2516.85  149.59
  -2  -3   1 2636.14  149.79
   1   3  -1 2872.31  178.68
   1   3  -1 2848.31  178.18
   1   3  -1 3101.09  178.08
   1   3  -1 3197.68  178.08
   1   3  -1 3296.47  178.58
  -1  -3   1 3029.80  178.48
  -1  -3   1 3093.99  178.08
  -1  -3   1 3067.59  178.68
  -1  -3   1 3149.19  178.08
  -1  -3   1 3106.69  178.08
  -1  -3   1 3001.70  178.28
   0   3  -1 1117.89   66.09
   0   3  -1  952.80   65.79
   0   3  -1  985.00   66.19
   0   3  -1 1177.48   65.99
   0   3  -1 1275.87   65.99
   0  -3   1 1129.09   66.09
   0  -3   1 1286.07   65.99
   0  -3   1 1175.58   65.99
   0  -3   1 1109.69   65.89
  -1   3  -1 3016.80  190.68
  -1   3  -1 3679.93  189.78
  -1   3  -1 3204.58  189.88
  -1   3  -1 3415.96  190.28
   1  -3   1 3342.97  189.88
   1  -3   1 3226.48  189.88
   1  -3   1 3035.40  190.68
   2  -3   1 5940.51  344.27
  -3   3  -1  577.14   30.80
  -3   3  -1  473.45   30.50
  -3   3  -1  513.95   30.40
   3  -3   1  488.75   30.30
   3  -3   1  500.05   30.20
  -4   3  -1 1005.30   52.49
  -4   3  -1  846.72   53.29
  -4   3  -1  901.81   53.89
  -4   3  -1  889.91   53.59
  -4   3  -1  894.11   52.89
   4  -3   1  855.51   53.19
   4  -3   1  994.00   52.49
   4  -3   1  918.71   53.09
   4  -3   1  811.72   52.39
  -5   3  -1 1294.87   81.09
  -5   3  -1 1498.35   81.29
  -5   3  -1 1372.26   81.69
  -5   3  -1 1475.25   80.39
  -5   3  -1 1433.46   82.19
   5  -3   1 1211.98   80.19
   5  -3   1 1417.46   81.09
   5  -3   1 1339.97   80.99
  -6   3  -1  430.06   27.20
  -6   3  -1  352.06   25.00
  -6   3  -1  424.46   27.20
  -6   3  -1  388.36   24.30
   6  -3   1  391.76   25.70
   6  -3   1  440.26   25.70
   6  -3   1  403.76   24.30
  -7   3  -1  172.78   14.60
  -7   3  -1  125.59   10.80
   7  -3   1  186.28   12.90
   7  -3   1  131.09   11.10
   7  -3   1  141.99   14.30
  -8   3  -1   36.20   12.40
  -8   3  -1   63.99   12.30
  -8   3  -1   45.60    6.70
   8  -3   1   45.70    9.30
   8  -3   1   38.10    7.80
  -9   3  -1  474.15   30.10
  -9   3  -1  484.05   35.50
  -9   3  -1  484.75   37.10
   9  -3   1  456.65   32.40
   9  -3   1  459.45   31.20
   8   2  -1  637.24   40.60
  -8  -2   1  622.64   39.90
  -8  -2   1  675.23   44.40
  -8  -2   1  645.84   42.50
   7   2  -1  668.73   41.40
   7   2  -1  656.13   40.70
   7   2  -1  672.93   45.60
  -7  -2   1  654.33   40.00
  -7  -2   1  665.13   42.60
  -7  -2   1  695.53   44.10
  -7  -2   1  670.03   40.70
   6   2  -1   33.10    5.60
   6   2  -1   51.19   11.50
  -6  -2   1   39.40    5.90
  -6  -2   1   27.40    5.30
  -6  -2   1   44.70    9.30
  -6  -2   1   59.99   10.40
   5   2  -1 1132.39   68.49
   5   2  -1 1268.47   70.89
   5   2  -1 1102.59   68.39
  -5  -2   1 1144.99   68.39
  -5  -2   1 1060.19   68.29
  -5  -2   1 1210.28   69.99
  -5  -2   1 1128.99   68.29
  -5  -2   1 1276.77   69.79
  -5  -2   1 1154.78   69.49
   4   2  -1 4102.59  242.88
   4   2  -1 4155.08  243.28
   4   2  -1 4283.97  244.08
   4   2  -1 4396.16  243.68
   4   2  -1 4175.88  242.78
  -4  -2   1 3994.60  242.78
  -4  -2   1 4077.79  243.48
  -4  -2   1 4412.76  243.58
  -4  -2   1 4195.78  242.98
  -4  -2   1 4059.89  243.68
  -4  -2   1 4097.69  242.78
  -4  -2   1 4230.38  243.18
   3   2  -1   79.19   11.20
   3   2  -1   84.49    6.30
   3   2  -1   91.59    7.30
   3   2  -1   89.89    7.50
   3   2  -1   78.79    7.80
  -3  -2   1   81.89    8.60
  -3  -2   1   79.99    6.80
  -3  -2   1   87.19    8.80
  -3  -2   1   80.79    7.00
  -3  -2   1   81.49    7.80
  -3  -2   1   79.39    7.80
   2   2  -1 1077.69   66.29
   2   2  -1 1135.59   66.09
   2   2  -1 1184.28   66.59
   2   2  -1 1110.79   66.09
   2   2  -1 1074.59   66.79
  -2  -2   1 1206.98   66.39
  -2  -2   1 1099.49   66.29
  -2  -2   1 1121.49   66.09
  -2  -2   1 1176.78   66.69
  -2  -2   1 1131.29   66.09
  -2  -2   1 1087.39   66.69
  -2  -2   1 1198.98   66.29
   1   2  -1 1479.75   84.59
   1   2  -1 1452.55   84.59
   1   2  -1 1467.55   84.69
   1   2  -1 1561.94   84.89
   1   2  -1 1341.47   84.69
   1   2  -1 1512.35   84.99
   1   2  -1 1387.96   85.09
  -1  -2   1 1381.66   84.69
  -1  -2   1 1513.95   84.99
  -1  -2   1 1439.16   85.09
  -1  -2   1 1525.05   84.89
  -1  -2   1 1457.65   84.59
  -1  -2   1 1411.46   84.69
  -1  -2   1 1450.35   84.59
   0   2  -1 4138.59  249.28
   0  -2   1 4453.45  249.28
  -1   2  -1  711.03   36.30
  -1   2  -1  659.23   35.80
  -1   2  -1  559.54   36.20
   1  -2   1  527.45   36.20
  -2   2  -1  102.59    6.90
  -2   2  -1   78.39    5.40
  -2   2  -1   89.69    6.30
  -2   2  -1   96.19    6.70
   2  -2   1   80.59    6.20
  -3   2  -1 4770.62  290.17
  -3   2  -1 5523.25  289.97
  -3   2  -1 4998.50  290.27
   3  -2   1 4822.12  289.97
   3  -2   1 4881.01  289.87
  -4   2  -1 3971.10  224.68
  -4   2  -1 4074.29  224.38
  -4   2  -1 3551.04  223.68
  -4   2  -1 3945.51  224.88
  -4   2  -1 4074.99  224.18
  -4   2  -1 4000.80  224.08
  -4   2  -1 3806.12  223.78
   4  -2   1 4061.79  224.28
   4  -2   1 3666.13  224.08
   4  -2   1 3333.57  223.68
   4  -2   1 3868.11  224.58
   4  -2   1 3958.40  223.78
  -5   2  -1   47.30    5.40
  -5   2  -1   43.20    5.10
  -5   2  -1   38.90    6.30
  -5   2  -1   33.80    6.60
  -5   2  -1   41.20    7.80
  -5   2  -1   38.70    5.60
   5  -2   1   47.40    5.50
   5  -2   1   37.50    4.90
   5  -2   1   58.19    9.10
   5  -2   1   46.70    6.80
   5  -2   1   46.70    6.20
  -6   2  -1  672.13   42.00
  -6   2  -1  618.94   40.30
  -6   2  -1  700.23   39.70
  -6   2  -1  706.73   42.10
  -6   2  -1  594.74   39.80
   6  -2   1  701.53   39.70
   6  -2   1  646.14   40.70
   6  -2   1  719.93   40.60
  -7   2  -1 1139.99   64.79
  -7   2  -1 1084.79   66.89
   7  -2   1 1128.99   65.79
   7  -2   1 1048.80   65.79
  -8   2  -1  393.36   29.70
  -8   2  -1  404.56   30.20
  -8   2  -1  412.86   25.90
   8  -2   1  404.16   28.10
   8  -2   1  405.36   27.00
  -9   2  -1   17.80    7.30
  -9   2  -1   13.60   15.70
  -9   2  -1   26.90   12.90
   9  -2   1   32.30    8.20
  -9  -1   1  251.77   27.00
  -9  -1   1  257.97   25.60
  -9  -1   1  276.87   20.00
   8   1  -1    2.80    5.50
   8   1  -1    4.50    6.70
  -8  -1   1   -2.30    5.80
  -8  -1   1   19.00   12.00
  -8  -1   1   14.00    9.30
   7   1  -1  601.54   39.20
   7   1  -1  547.05   34.70
   7   1  -1  541.75   34.30
  -7  -1   1  531.35   34.40
  -7  -1   1  551.24   33.40
  -7  -1   1  557.44   36.40
   6   1  -1 1521.05   87.49
   6   1  -1 1507.95   86.99
   6   1  -1 1493.05   89.49
  -6  -1   1 1337.17   87.69
  -6  -1   1 1521.95   86.89
  -6  -1   1 1549.64   88.59
  -6  -1   1 1385.06   86.79
  -6  -1   1 1474.95   86.69
  -6  -1   1 1552.94   88.49
   5   1  -1  741.33   42.80
   5   1  -1  718.03   42.50
   5   1  -1  681.43   42.30
   5   1  -1  708.93   45.90
  -5  -1   1  678.03   43.50
  -5  -1   1  702.33   42.50
  -5  -1   1  733.13   44.30
  -5  -1   1  752.22   44.00
  -5  -1   1  747.53   42.80
   4   1  -1  209.18   17.10
   4   1  -1  191.78   12.50
   4   1  -1  193.98   14.30
   4   1  -1  197.08   12.90
   4   1  -1  186.38   12.60
  -4  -1   1  205.88   14.20
  -4  -1   1  198.18   12.90
  -4  -1   1  202.88   14.40
  -4  -1   1  196.28   14.80
  -4  -1   1  198.28   12.30
  -4  -1   1  200.38   13.90
  -4  -1   1  195.48   12.80
   3   1  -1 2386.06  144.49
   3   1  -1 2502.25  144.39
   3   1  -1 2590.14  145.39
   3   1  -1 2573.24  144.99
  -3  -1   1 2419.86  144.49
  -3  -1   1 2476.25  145.09
  -3  -1   1 2448.16  144.39
  -3  -1   1 2380.86  144.99
  -3  -1   1 2419.66  144.49
  -3  -1   1 2713.43  145.09
  -3  -1   1 2446.46  144.69
   1   1  -1  908.11   50.89
   1   1  -1  845.42   50.69
   1   1  -1  830.52   50.89
   1   1  -1  825.72   50.79
   1   1  -1  912.51   51.09
   1   1  -1  879.91   50.79
   1   1  -1  926.71   51.29
  -1  -1   1  876.91   50.79
  -1  -1   1  844.12   50.79
  -1  -1   1  913.21   51.19
  -1  -1   1  874.11   50.89
  -1  -1   1  844.92   50.89
  -1  -1   1  834.52   50.79
  -1  -1   1  898.01   51.09
   0   1  -1  455.05   25.80
   0   1  -1  431.66   25.80
  -1   1  -1 3476.95  201.68
  -2   1  -1 3571.14  209.98
  -2   1  -1 3530.45  210.28
  -2   1  -1 3495.15  209.88
  -2   1  -1 3745.73  210.18
  -2   1  -1 3649.93  210.08
   2  -1   1 3849.01  210.08
   2  -1   1 3674.43  210.38
   2  -1   1 3463.45  210.08
  -3   1  -1    6.00    1.90
  -3   1  -1    8.80    2.40
  -3   1  -1    4.80    1.90
  -3   1  -1    7.90    2.30
  -3   1  -1    7.20    3.80
  -3   1  -1    5.40    2.60
   3  -1   1    8.10    2.00
   3  -1   1    8.30    3.00
   3  -1   1    5.40    1.80
   3  -1   1    6.30    2.50
   3  -1   1    9.90    3.00
   3  -1   1    8.20    2.00
  -4   1  -1 1056.39   59.19
  -4   1  -1  926.61   57.99
  -4   1  -1  969.60   58.99
  -4   1  -1 1020.80   58.39
  -4   1  -1  988.90   57.99
  -4   1  -1 1051.09   57.99
   4  -1   1 1087.69   58.09
   4  -1   1  958.90   58.79
   4  -1   1  995.80   58.39
   4  -1   1  917.51   58.69
   4  -1   1  945.31   57.89
  -5   1  -1 1978.30  106.89
  -5   1  -1 1779.32  106.49
  -5   1  -1 1682.43  105.19
  -5   1  -1 1809.02  105.79
  -5   1  -1 1878.81  105.19
   5  -1   1 1670.53  105.09
   5  -1   1 1763.02  105.79
   5  -1   1 1891.21  105.29
  -6   1  -1  574.24   36.60
  -6   1  -1  544.55   36.20
  -6   1  -1  580.74   33.80
   6  -1   1  591.54   34.70
   6  -1   1  520.25   34.90
   6  -1   1  574.24   33.80
  -7   1  -1   88.89   14.00
   7  -1   1   82.79    8.90
   7  -1   1   72.49   10.40
   7  -1   1   68.99    9.90
  -8   1  -1  439.46   27.40
  -8   1  -1  408.66   31.50
  -8   1  -1  438.96   33.30
   8  -1   1  423.46   28.40
  -9   1  -1  460.15   36.20
  -9   1  -1  415.16   33.70
  -9   1  -1  443.66   28.70
   9  -1   1  421.26   29.10
   9   0  -1  358.16   25.00
  -9   0   1  353.06   31.20
  -9   0   1  331.57   28.70
  -9   0   1  379.76   24.40
   8   0  -1  952.90   56.59
   8   0  -1  935.31   57.29
  -8   0   1  966.00   56.29
  -8   0   1  934.31   58.79
  -8   0   1  918.21   58.99
   7   0  -1   66.29    9.30
   7   0  -1   56.99    8.10
  -7   0   1   64.69   11.10
  -7   0   1   59.69    5.10
  -7   0   1   43.00    9.20
  -7   0   1   52.09    9.40
  -7   0   1   57.89    7.10
  -7   0   1   50.39    8.30
   6   0  -1  780.22   46.00
   6   0  -1  721.23   43.10
   6   0  -1  717.23   42.60
  -6   0   1  682.53   43.60
  -6   0   1  724.83   44.50
  -6   0   1  654.33   42.40
  -6   0   1  674.53   41.90
  -6   0   1  715.33   42.50
  -6   0   1  759.12   44.40
   5   0  -1  997.70   63.19
   5   0  -1 1046.50   62.29
   5   0  -1 1233.48   64.99
   5   0  -1  936.81   62.09
  -5   0   1 1179.48   63.79
  -5   0   1 1076.49   63.19
  -5   0   1 1073.99   63.49
  -5   0   1 1037.60   62.99
  -5   0   1 1011.80   62.19
  -5   0   1 1036.50   62.29
   4   0  -1 1646.34  102.89
   4   0  -1 1834.62  103.79
   4   0  -1 1801.52  103.29
   4   0  -1 1839.22  104.39
  -4   0   1 1772.02  103.69
  -4   0   1 1664.63  102.99
  -4   0   1 1910.11  104.09
  -4   0   1 1653.33  103.29
  -4   0   1 1808.92  103.89
   3   0  -1  193.58   12.50
   3   0  -1  183.08   11.40
   3   0  -1  186.18   11.60
   3   0  -1  196.38   11.90
   3   0  -1  185.38   11.60
   3   0  -1  195.28   14.10
   3   0  -1  184.08   12.40
  -3   0   1  181.98   11.70
  -3   0   1  178.48   12.50
  -3   0   1  190.88   13.00
  -3   0   1  185.58   11.70
  -3   0   1  199.98   12.70
  -3   0   1  186.88   12.60
   2   0  -1 3702.03  211.08
   2   0  -1 3807.32  211.38
   2   0  -1 3847.22  211.18
  -2   0   1 3433.86  210.98
  -2   0   1 3387.46  210.78
  -2   0   1 3812.82  211.28
  -2   0   1 3465.55  211.18
  -1   0   1 2400.66  139.49
  -1   0  -1  443.36   25.20
  -1   0  -1  388.36   25.10
  -1   0  -1  418.36   25.50
  -1   0  -1  405.26   25.10
  -1   0  -1  473.05   25.60
   1   0   1  419.86   25.10
   1   0   1  430.06   25.50
   1   0   1  480.45   25.60
   1   0   1  432.56   25.20
   1   0   1  407.66   25.10
  -2   0  -1 5403.46  309.97
   2   0   1 4938.31  309.87
   2   0   1 5698.03  310.07
  -3   0  -1 2461.65  147.69
  -3   0  -1 2483.15  147.69
  -3   0  -1 2653.13  147.89
  -3   0  -1 2533.85  148.29
  -3   0  -1 2510.65  147.69
   3   0   1 2535.35  147.99
   3   0   1 2527.95  147.69
   3   0   1 2766.22  147.89
   3   0   1 2562.14  148.29
   3   0   1 2439.96  147.59
   3   0   1 2504.25  147.79
  -4   0  -1  718.53   41.50
  -4   0  -1  684.63   40.80
  -4   0  -1  694.63   41.00
  -4   0  -1  727.43   42.10
  -4   0  -1  732.33   42.30
  -4   0  -1  657.23   40.80
   4   0   1  686.73   41.10
   4   0   1  723.93   41.90
   4   0   1  658.73   41.90
   4   0   1  642.94   40.70
  -5   0  -1  869.71   50.89
  -5   0  -1  930.01   52.59
  -5   0  -1  842.22   51.59
  -5   0  -1  855.61   52.69
  -5   0  -1  822.22   50.79
   5   0   1  887.71   50.89
   5   0   1  827.22   51.49
  -6   0  -1 1379.66   78.39
  -6   0  -1 1289.97   78.09
  -6   0  -1 1286.77   76.39
   6   0   1 1253.37   77.09
   6   0   1 1314.07   76.49
   6   0   1 1290.27   77.09
  -7   0  -1  339.97   24.70
  -7   0  -1  356.86   26.60
  -7   0  -1  284.17   20.20
   7   0   1  271.67   20.30
   7   0   1  334.27   21.70
  -8   0  -1   68.39    8.90
  -8   0  -1  102.19   17.10
   8   0   1   95.39   12.10
  -9   0  -1  143.19   23.20
  -9   0  -1  157.68   16.60
  -9   0  -1  152.68   19.80
   9  -1  -1    6.50    7.30
  -9   1   1   -2.00   10.10
  -9   1   1    9.10   10.70
  -9   1   1    4.40    7.10
   8  -1  -1   96.79   11.40
   8  -1  -1   71.29   11.10
  -8   1   1   71.79   10.40
  -8   1   1   93.49   14.90
  -8   1   1   98.79   16.80
   7  -1  -1 1655.33   94.09
   7  -1  -1 1585.74   93.29
  -7   1   1 1465.45   93.99
  -7   1   1 1595.94   93.19
  -7   1   1 1789.22   95.49
  -7   1   1 1383.06   92.99
  -7   1   1 1671.63   95.09
   6  -1  -1 1485.75   87.69
   6  -1  -1 1513.35   87.19
  -6   1   1 1383.26   87.09
  -6   1   1 1360.56   87.89
  -6   1   1 1561.14   86.79
  -6   1   1 1550.94   88.69
  -6   1   1 1511.35   87.19
  -6   1   1 1557.44   88.89
   5  -1  -1   15.60    4.90
  -5   1   1   22.70    3.50
  -5   1   1   28.00    4.70
   4  -1  -1 1563.94   93.39
   4  -1  -1 1576.44   93.39
   4  -1  -1 1589.54   94.09
   4  -1  -1 1644.94   93.79
   4  -1  -1 1500.25   93.69
  -4   1   1 1628.94   94.19
  -4   1   1 1745.73   94.49
  -4   1   1 1556.04   93.39
  -4   1   1 1556.54   94.29
  -4   1   1 1592.44   93.39
  -4   1   1 1708.43   93.29
   3  -1  -1 8221.08  460.55
   3  -1  -1 7494.95  460.35
   3  -1  -1 8325.67  460.95
  -3   1   1 7741.33  460.95
   2  -1  -1 1684.03  100.59
   2  -1  -1 1776.52  100.79
   2  -1  -1 1671.43  100.49
   2  -1  -1 1725.53  100.89
   2  -1  -1 1876.61  100.49
   2  -1  -1 1817.02  100.49
  -2   1   1 1872.51  100.99
  -2   1   1 1688.03  101.29
  -2   1   1 1515.85  100.39
  -2   1   1 1724.53  100.69
  -2   1   1 1719.83  100.49
  -2   1   1 1717.93  100.49
   1  -1  -1 1387.46   83.29
   1  -1  -1 1386.36   83.29
  -1   1   1 1478.95   83.29
  -1   1   1 1481.65   83.29
   0   1   1 1751.82  100.89
   0   1   1 1748.53  100.89
   0   1   1 1710.63  100.99
   0   1   1 1848.92  101.19
   0   1   1 1642.74  100.99
   1   1   1 5083.89  294.77
  -2  -1  -1  905.01   55.59
  -2  -1  -1 1036.50   55.39
  -2  -1  -1  929.31   55.09
  -2  -1  -1 1054.29   55.39
  -2  -1  -1  865.71   55.09
   2   1   1 1047.30   55.39
   2   1   1  907.81   55.49
   2   1   1  997.20   55.39
   2   1   1  895.11   55.09
   2   1   1  868.01   55.09
   2   1   1  892.71   55.09
  -3  -1  -1  546.85   33.40
  -3  -1  -1  561.44   33.80
  -3  -1  -1  565.44   34.50
  -3  -1  -1  559.74   33.50
  -3  -1  -1  567.74   33.80
   3   1   1  595.84   33.90
   3   1   1  554.54   33.60
   3   1   1  584.04   33.90
   3   1   1  542.55   33.40
   3   1   1  570.74   33.50
   3   1   1  573.74   34.30
   3   1   1  576.64   34.10
  -4  -1  -1 1892.01  110.29
  -4  -1  -1 1865.41  109.99
  -4  -1  -1 1782.62  109.89
  -4  -1  -1 2040.60  111.09
  -4  -1  -1 1938.01  110.99
   4   1   1 1881.61  110.89
   4   1   1 1788.92  110.09
   4   1   1 1950.70  110.49
   4   1   1 1735.13  109.89
   4   1   1 1868.51  109.99
   4   1   1 2018.50  110.59
  -5  -1  -1 1303.87   79.69
  -5  -1  -1 1492.65   81.09
  -5  -1  -1 1260.07   79.49
  -5  -1  -1 1378.46   80.89
  -5  -1  -1 1324.97   79.39
   5   1   1 1441.96   80.59
   5   1   1 1332.57   79.49
   5   1   1 1317.47   79.79
  -6  -1  -1   19.90    7.40
  -6  -1  -1   11.60    4.80
  -6  -1  -1   19.60    7.60
   6   1   1   13.80    8.20
   6   1   1    6.10    5.30
  -7  -1  -1  466.55   32.10
  -7  -1  -1  465.45   32.40
  -7  -1  -1  444.16   28.70
   7   1   1  438.56   28.60
   7   1   1  464.35   29.60
  -8  -1  -1  378.96   29.90
  -8  -1  -1  384.86   30.80
  -8  -1  -1  392.66   25.70
   8   1   1  398.26   26.50
  10  -2  -1   77.29   12.20
 -10   2   1   73.29   15.50
 -10   2   1   50.19    9.80
   9  -2  -1  691.63   42.80
  -9   2   1  676.63   41.80
  -9   2   1  685.63   46.00
  -9   2   1  665.63   45.30
   8  -2  -1  514.05   31.30
   8  -2  -1  512.05   32.60
  -8   2   1  490.75   31.70
  -8   2   1  523.35   34.90
  -8   2   1  513.75   34.80
   7  -2  -1   26.80    5.90
  -7   2   1   18.00    4.20
  -7   2   1   20.00    4.50
   6  -2  -1 1434.36   81.99
   6  -2  -1 1397.16   81.29
   6  -2  -1 1313.07   81.79
  -6   2   1 1333.97   82.49
  -6   2   1 1501.45   82.89
  -6   2   1 1268.17   81.49
  -6   2   1 1429.56   81.29
  -6   2   1 1397.86   83.09
  -6   2   1 1448.66   81.09
   5  -2  -1 3375.76  189.58
   5  -2  -1 3196.58  189.08
   5  -2  -1 3077.09  189.38
   5  -2  -1 3131.49  188.98
   5  -2  -1 3227.68  189.88
  -5   2   1 3594.74  190.58
  -5   2   1 3242.18  189.08
  -5   2   1 3270.87  189.98
  -5   2   1 3487.65  189.08
  -5   2   1 3128.29  188.98
  -5   2   1 3097.19  190.08
   4  -2  -1    7.50    2.00
   4  -2  -1   11.20    2.90
   4  -2  -1   10.90    3.10
   4  -2  -1   15.20    3.60
   4  -2  -1    6.60    2.30
  -4   2   1   13.50    6.40
  -4   2   1    9.60    3.60
  -4   2   1    0.90    3.50
  -4   2   1    3.20    2.20
  -4   2   1    8.80    2.30
   3  -2  -1 1473.85   78.39
   3  -2  -1 1380.26   77.89
   3  -2  -1 1278.27   77.79
   3  -2  -1 1317.67   77.99
   3  -2  -1 1288.47   77.59
   3  -2  -1 1416.96   77.79
  -3   2   1 1209.38   77.69
  -3   2   1 1381.56   77.59
  -3   2   1 1175.68   77.89
  -3   2   1 1469.15   78.49
  -3   2   1 1307.97   77.69
   2  -2  -1  735.83   38.90
   2  -2  -1  607.84   39.00
   2  -2  -1  668.63   39.00
   2  -2  -1  696.33   39.20
  -2   2   1  604.54   39.10
  -2   2   1  674.03   38.90
  -2   2   1  689.93   39.00
  -2   2   1  673.23   39.20
   1  -2  -1 2948.10  165.98
   1  -2  -1 3108.39  166.18
  -1   2   1 2695.93  165.78
  -1   2   1 2988.40  165.98
  -1   2   1 2822.72  165.88
  -1   2   1 2599.44  165.78
   0  -2  -1   23.90    2.90
   0   2   1   20.40    2.90
  -1  -2  -1  498.45   30.40
  -1  -2  -1  534.15   30.60
   1   2   1  504.85   30.20
   1   2   1  520.95   30.60
   1   2   1  516.15   30.40
   1   2   1  518.55   30.80
  -2  -2  -1 2870.81  167.38
  -2  -2  -1 3085.59  167.68
  -2  -2  -1 3077.79  167.98
  -2  -2  -1 2656.13  167.38
   2   2   1 2858.81  167.58
   2   2   1 2909.91  167.38
   2   2   1 2602.54  168.08
   2   2   1 2840.82  167.38
   2   2   1 2727.23  167.38
   2   2   1 2994.80  167.88
   2   2   1 3096.09  167.88
  -3  -2  -1 2387.36  138.59
  -3  -2  -1 2197.48  138.09
  -3  -2  -1 2460.25  139.09
  -3  -2  -1 2392.86  138.19
  -3  -2  -1 2366.96  138.49
   3   2   1 2398.26  138.79
   3   2   1 2337.07  138.29
   3   2   1 2448.75  138.69
   3   2   1 2452.75  138.99
   3   2   1 2300.97  138.19
   3   2   1 2439.56  138.69
   3   2   1 2333.67  138.19
  -4  -2  -1  116.09   11.10
  -4  -2  -1  109.99    9.10
  -4  -2  -1   97.99   10.80
  -4  -2  -1   86.49    9.90
  -4  -2  -1  103.99   12.80
  -4  -2  -1  110.79    9.60
   4   2   1  102.69    8.90
   4   2   1   94.79   13.10
   4   2   1  108.09   11.30
   4   2   1   96.99   12.00
  -5  -2  -1 1222.88   73.19
  -5  -2  -1 1281.17   73.09
  -5  -2  -1 1187.78   71.59
   5   2   1 1187.58   73.09
   5   2   1 1221.18   72.39
   5   2   1 1209.78   71.79
  -6  -2  -1 1089.09   63.29
   6   2   1  980.80   63.39
   6   2   1 1036.80   61.69
  -7  -2  -1   82.09   14.60
  -7  -2  -1   82.59   17.40
  -7  -2  -1   81.19   12.00
  -7  -2  -1   80.89   10.00
   7   2   1   88.79   10.90
  -8  -2  -1  130.09   13.60
  -8  -2  -1  106.59   19.60
  -8  -2  -1  169.18   24.60
   8   2   1  112.29   13.50
 -10   3   1  106.49   15.40
 -10   3   1   99.49   18.40
 -10   3   1  129.29   21.90
   9  -3  -1   80.59   12.90
  -9   3   1  111.69   18.80
  -9   3   1   96.49   17.00
  -9   3   1   84.39   12.00
   8  -3  -1  810.12   49.40
  -8   3   1  763.52   51.19
  -8   3   1  819.32   48.50
  -8   3   1  837.22   50.99
   7  -3  -1 1060.99   58.79
   7  -3  -1 1013.10   57.69
   7  -3  -1  988.90   58.49
  -7   3   1 1011.70   57.59
  -7   3   1  930.41   57.49
  -7   3   1  907.91   59.89
  -7   3   1 1000.10   59.59
  -7   3   1  888.61   59.79
  -7   3   1 1014.10   57.29
   6  -3  -1  172.58   12.70
   6  -3  -1  173.68   11.50
   6  -3  -1  166.18   12.90
   6  -3  -1  161.08   10.90
   6  -3  -1  153.48   13.90
  -6   3   1  164.38   11.30
  -6   3   1  183.18   14.10
  -6   3   1  161.98   11.50
  -6   3   1  178.28   14.80
  -6   3   1  170.68   10.90
  -6   3   1  176.88   16.40
   5  -3  -1  875.81   49.30
   5  -3  -1  823.82   48.40
   5  -3  -1  833.62   49.70
   5  -3  -1  826.82   48.60
   5  -3  -1  813.32   49.40
  -5   3   1  712.53   49.99
  -5   3   1  785.52   49.50
  -5   3   1  846.72   48.50
  -5   3   1  891.51   51.09
  -5   3   1  884.61   48.70
  -5   3   1  823.22   48.50
   4  -3  -1 2402.16  132.49
   4  -3  -1 2290.07  132.59
   4  -3  -1 2281.67  131.99
   4  -3  -1 2127.59  132.29
   4  -3  -1 2454.15  132.59
  -4   3   1 2079.59  133.09
  -4   3   1 2041.70  132.09
  -4   3   1 2334.77  132.69
  -4   3   1 2249.57  132.09
  -4   3   1 2349.26  132.29
  -4   3   1 2429.26  132.49
   3  -3  -1 3712.23  213.28
   3  -3  -1 3722.83  213.38
   3  -3  -1 3769.82  213.88
   3  -3  -1 3434.06  213.58
  -3   3   1 3495.45  213.18
  -3   3   1 3935.01  213.58
   2  -3  -1  536.65   32.20
   2  -3  -1  512.25   32.60
   2  -3  -1  591.74   32.20
   2  -3  -1  505.45   32.70
  -2   3   1  600.54   32.30
  -2   3   1  586.34   32.60
  -2   3   1  572.44   32.30
  -2   3   1  515.75   32.70
   1  -3  -1 5831.82  309.97
   1  -3  -1 4860.21  309.77
   0  -3  -1 5443.96  313.67
   0  -3  -1 5443.06  313.57
   0  -3  -1 5453.65  313.57
   0  -3  -1 5770.52  314.17
   0  -3  -1 4641.44  313.67
   0   3   1 5542.85  313.67
   0   3   1 5429.96  313.57
   0   3   1 5500.15  313.77
   0   3   1 5469.15  313.57
  -1  -3  -1 1325.57   74.19
  -1  -3  -1 1097.99   74.69
  -1  -3  -1 1267.87   74.09
  -1  -3  -1 1323.37   74.29
   1   3   1 1266.07   74.69
   1   3   1 1266.37   74.19
   1   3   1 1351.36   74.79
   1   3   1 1293.17   74.09
   1   3   1 1257.67   74.39
  -2  -3  -1  409.86   23.90
  -2  -3  -1  376.16   22.80
  -2  -3  -1  370.36   23.20
   2   3   1  367.86   23.60
   2   3   1  367.06   24.00
   2   3   1  384.06   23.60
   2   3   1  386.26   23.00
   2   3   1  372.46   22.90
  -3  -3  -1 1598.44   92.79
  -3  -3  -1 1518.85   92.19
  -3  -3  -1 1550.64   92.69
  -3  -3  -1 1687.43   93.39
   3   3   1 1607.14   92.89
   3   3   1 1479.45   93.09
   3   3   1 1562.74   92.19
   3   3   1 1603.94   92.89
   3   3   1 1549.74   92.29
   3   3   1 1633.84   93.09
  -4  -3  -1 1154.48   65.09
  -4  -3  -1 1062.29   63.99
  -4  -3  -1 1146.89   65.59
   4   3   1 1066.99   64.79
   4   3   1 1095.09   64.69
   4   3   1 1031.90   65.19
   4   3   1 1044.30   63.99
  -5  -3  -1  310.57   20.80
  -5  -3  -1  299.77   21.50
  -5  -3  -1  344.07   22.70
  -5  -3  -1  323.07   24.30
   5   3   1  344.57   25.50
   5   3   1  367.46   23.30
   5   3   1  309.47   21.20
   5   3   1  316.27   24.20
  -6  -3  -1  171.68   19.90
  -6  -3  -1  150.18   13.10
  -6  -3  -1  152.08   12.90
   6   3   1  158.58   20.90
   6   3   1  149.59   13.20
  -7  -3  -1  574.54   38.40
  -7  -3  -1  570.34   39.30
  -7  -3  -1  580.74   35.70
  -7  -3  -1  541.65   35.10
   7   3   1  564.14   37.50
 -10   4   1  456.95   35.20
 -10   4   1  446.36   29.90
 -10   4   1  438.16   33.90
   9  -4  -1  348.97   25.60
  -9   4   1  357.46   24.40
  -9   4   1  383.46   28.90
  -9   4   1  376.66   28.60
   8  -4  -1   52.49    8.40
  -8   4   1   54.49    6.00
  -8   4   1   67.49   12.80
  -8   4   1   50.49   10.80
   7  -4  -1  530.15   32.60
   7  -4  -1  517.05   32.90
  -7   4   1  477.15   31.00
  -7   4   1  512.15   35.40
  -7   4   1  623.44   34.50
  -7   4   1  474.55   31.20
   6  -4  -1 2055.09  108.59
   6  -4  -1 1952.20  108.89
   6  -4  -1 1791.52  107.49
   6  -4  -1 1848.02  108.19
  -6   4   1 1715.63  108.19
  -6   4   1 1795.92  107.59
  -6   4   1 1764.12  108.69
  -6   4   1 1881.41  107.59
   5  -4  -1  454.55   25.50
   5  -4  -1  463.55   26.80
  -5   4   1  390.16   26.70
  -5   4   1  454.75   26.30
  -5   4   1  405.86   27.70
  -5   4   1  406.96   26.30
  -5   4   1  467.95   25.70
  -5   4   1  424.16   25.80
   4  -4  -1    8.50    3.00
   4  -4  -1   13.90    3.40
   4  -4  -1   16.60    2.00
   4  -4  -1   17.90    3.60
  -4   4   1   11.70    2.70
  -4   4   1   19.70    3.70
  -4   4   1   12.90    2.30
   3  -4  -1 1331.77   73.19
   3  -4  -1 1325.97   73.79
   3  -4  -1 1196.38   73.79
   3  -4  -1 1373.46   73.09
  -3   4   1 1303.57   72.99
  -3   4   1 1116.49   73.59
  -3   4   1 1285.87   73.89
  -3   4   1 1302.67   73.09
  -3   4   1 1078.99   73.09
   2  -4  -1 2491.15  158.08
   2  -4  -1 2890.41  158.58
   2  -4  -1 2793.52  157.88
   2  -4  -1 2826.52  157.88
  -2   4   1 2859.61  158.28
  -2   4   1 2381.56  158.08
  -2   4   1 2732.33  157.88
  -2   4   1 2805.92  157.88
   1  -4  -1  377.76   23.10
   1  -4  -1  386.66   22.70
   1  -4  -1  337.87   22.60
   1  -4  -1  399.06   22.80
   1  -4  -1  433.26   23.70
  -1   4   1  371.06   22.70
  -1   4   1  388.46   22.70
  -1   4   1  380.66   23.40
   0  -4  -1  106.49    7.60
   0  -4  -1  103.09    7.80
   0  -4  -1   98.69    7.20
   0  -4  -1  103.09    8.40
   0  -4  -1  105.39    7.90
   0  -4  -1  118.19    7.20
   0   4   1   96.09   10.40
   0   4   1  106.89    8.60
   0   4   1  110.49    7.60
   0   4   1   87.99    7.20
  -1  -4  -1 2791.12  159.38
  -1  -4  -1 2675.53  159.28
  -1  -4  -1 2785.32  159.58
  -1  -4  -1 3090.89  160.28
  -1  -4  -1 2851.41  159.78
   1   4   1 2363.56  159.48
   1   4   1 2677.03  159.28
   1   4   1 2821.52  159.28
   1   4   1 2699.03  160.08
   1   4   1 2667.83  159.58
  -2  -4  -1 1589.54   98.69
  -2  -4  -1 1773.62   99.59
  -2  -4  -1 1671.63   99.09
  -2  -4  -1 1581.64   99.49
   2   4   1 1809.52   99.99
   2   4   1 1739.43   99.39
   2   4   1 1791.92   99.49
   2   4   1 1648.04   98.79
   2   4   1 1632.54   98.79
  -3  -4  -1   56.99    7.60
  -3  -4  -1   34.30    7.30
   3   4   1   44.50    7.10
   3   4   1   46.10    9.00
  -4  -4  -1  457.25   28.80
  -4  -4  -1  428.76   26.60
  -4  -4  -1  432.56   27.50
  -4  -4  -1  440.76   27.80
   4   4   1  415.56   28.50
   4   4   1  400.26   29.70
   4   4   1  437.96   28.60
   4   4   1  423.96   26.90
  -5  -4  -1  914.71   57.29
  -5  -4  -1  997.30   58.09
   5   4   1  949.60   59.49
   5   4   1  942.41   56.79
  -6  -4  -1  262.67   21.10
  -6  -4  -1  302.47   25.10
  -6  -4  -1  251.77   19.00
  -6  -4  -1  271.07   19.10
   6   4   1  250.77   25.60
   6   4   1  244.68   20.70
  -7  -4  -1    1.70    7.60
  -7  -4  -1    0.90   13.20
  -7  -4  -1   -0.50   12.70
   7   4   1    9.90    9.40
  10  -5  -1    4.20   10.10
 -10   5   1    8.20   12.10
 -10   5   1   16.60   12.70
 -10   5   1   13.60    8.30
   9  -5  -1  252.17   20.50
  -9   5   1  302.77   25.50
  -9   5   1  286.17   24.20
  -9   5   1  240.28   18.60
   8  -5  -1  861.21   49.40
   8  -5  -1  808.12   49.60
  -8   5   1  776.42   47.80
  -8   5   1  764.12   49.99
  -8   5   1  845.12   51.49
   7  -5  -1  557.24   34.70
   7  -5  -1  620.34   34.80
  -7   5   1  550.14   33.60
  -7   5   1  520.95   34.90
  -7   5   1  546.25   35.90
  -7   5   1  565.24   32.90
  -7   5   1  536.45   33.20
   6  -5  -1   15.50    5.70
   6  -5  -1   11.10    5.40
  -6   5   1   16.20    5.30
  -6   5   1    7.10    2.40
   5  -5  -1 3630.84  214.68
   5  -5  -1 4035.20  214.88
  -5   5   1 3689.13  214.58
  -5   5   1 3911.41  213.98
  -5   5   1 4155.98  215.58
  -5   5   1 3392.96  213.98
  -5   5   1 3452.25  214.68
  -5   5   1 3258.07  214.48
   4  -5  -1 3264.77  185.48
   4  -5  -1 3405.26  186.18
   4  -5  -1 3337.67  185.88
  -4   5   1 2699.53  186.08
  -4   5   1 2946.51  185.18
  -4   5   1 3591.54  186.28
  -4   5   1 3115.69  185.18
   3  -5  -1  153.78   12.20
   3  -5  -1  180.68   11.50
   3  -5  -1  187.38   11.00
   3  -5  -1  211.38   12.50
  -3   5   1  188.18   11.30
  -3   5   1  182.98   11.20
  -3   5   1  185.68   12.70
  -3   5   1  158.88   12.50
   2  -5  -1  794.02   46.80
   2  -5  -1  856.91   46.40
   2  -5  -1  774.72   45.80
   2  -5  -1  782.42   45.70
  -2   5   1  756.72   45.80
  -2   5   1  758.12   46.30
  -2   5   1  760.52   45.90
   1  -5  -1 2395.76  131.89
   1  -5  -1 2384.26  131.59
   1  -5  -1 2202.58  132.49
   1  -5  -1 1948.80  131.29
   1  -5  -1 2364.16  131.49
  -1   5   1 2440.36  131.99
  -1   5   1 2349.17  131.59
  -1   5   1 2364.76  131.59
  -1   5   1 1932.51  131.39
   0  -5  -1  772.52   48.00
   0  -5  -1  754.32   48.90
   0  -5  -1  913.11   47.80
   0  -5  -1  800.62   48.30
   0  -5  -1  806.92   47.90
   0   5   1  839.32   48.60
   0   5   1  901.01   49.70
   0   5   1  779.72   47.90
   0   5   1  776.92   47.90
  -1  -5  -1   44.20    7.40
  -1  -5  -1   29.50    4.70
  -1  -5  -1   49.10    7.30
  -1  -5  -1   37.90    5.50
  -1  -5  -1   58.39    7.30
   1   5   1   34.40    4.80
   1   5   1   46.20    6.50
   1   5   1   39.00    6.20
  -2  -5  -1  112.49    9.30
  -2  -5  -1  119.09   11.80
  -2  -5  -1  122.89   11.00
  -2  -5  -1  120.29    9.70
   2   5   1  136.69   11.30
   2   5   1  136.19   10.30
   2   5   1  113.79   15.40
   2   5   1  128.29   10.50
   2   5   1  134.09   12.70
  -3  -5  -1 2412.16  145.39
  -3  -5  -1 2555.44  146.59
  -3  -5  -1 2623.24  146.59
  -3  -5  -1 2505.75  145.89
   3   5   1 2416.06  146.99
   3   5   1 2501.85  146.09
   3   5   1 2449.05  145.49
  -4  -5  -1  581.04   34.40
  -4  -5  -1  548.35   35.10
  -4  -5  -1  575.84   35.40
  -4  -5  -1  531.35   36.60
   4   5   1  560.64   38.20
   4   5   1  575.74   35.00
  -5  -5  -1   48.00    8.80
  -5  -5  -1   42.50    8.20
  -5  -5  -1   42.30   11.00
  -5  -5  -1   36.30    7.20
   5   5   1   41.10   11.90
   5   5   1   33.90    8.20
   5   5   1   36.80   12.20
  -6  -5  -1  380.26   28.20
  -6  -5  -1  372.76   30.50
  -6  -5  -1  353.16   26.20
  -6  -5  -1  376.06   25.30
   6   5   1  376.06   26.50
 -10   6   1  211.98   22.80
 -10   6   1  202.08   23.20
   9  -6  -1  157.38   15.30
  -9   6   1  159.08   17.90
  -9   6   1  152.28   19.70
  -9   6   1  143.89   12.70
   8  -6  -1  116.69   14.60
   8  -6  -1  112.99   13.10
  -8   6   1  134.39   16.20
   7  -6  -1  934.81   58.79
   7  -6  -1 1014.20   58.29
  -7   6   1 1108.19   60.29
  -7   6   1  873.91   56.99
  -7   6   1 1000.40   58.69
  -7   6   1  930.21   56.79
   6  -6  -1  611.44   36.90
   6  -6  -1  660.93   36.60
  -6   6   1  631.04   38.10
  -6   6   1  513.85   36.60
  -6   6   1  548.95   36.80
  -6   6   1  653.53   36.90
   5  -6  -1  229.08   15.80
   5  -6  -1  233.58   15.80
   5  -6  -1  214.28   15.10
  -5   6   1  222.68   16.10
  -5   6   1  228.18   13.70
  -5   6   1  222.78   16.60
  -5   6   1  261.57   16.40
  -5   6   1  214.28   13.80
   4  -6  -1  580.74   36.40
   4  -6  -1  652.33   36.40
   4  -6  -1  644.24   35.60
  -4   6   1  610.94   35.10
  -4   6   1  615.64   36.40
  -4   6   1  580.14   36.40
  -4   6   1  511.25   36.50
   3  -6  -1 1942.31   98.39
   3  -6  -1 1536.05   97.39
   3  -6  -1 1513.85   97.39
   3  -6  -1 1874.11   98.89
  -3   6   1 1510.85   97.49
  -3   6   1 1678.63   98.09
  -3   6   1 1595.74   97.49
  -3   6   1 1773.22   97.99
   2  -6  -1  865.31   47.90
   2  -6  -1  827.92   48.00
   2  -6  -1  713.73   49.10
  -2   6   1  822.12   48.00
  -2   6   1  800.92   48.00
  -2   6   1  880.11   48.80
   1  -6  -1  158.28   10.50
   1  -6  -1  144.09   11.30
   1  -6  -1  152.58    9.80
   1  -6  -1  124.59   12.00
  -1   6   1  161.18   14.20
  -1   6   1  161.78   12.40
  -1   6   1  161.98   10.50
  -1   6   1  135.99   10.00
   0  -6  -1 1138.09   79.39
   0  -6  -1 1359.36   78.29
   0  -6  -1 1345.27   78.69
   0   6   1 1370.76   78.99
   0   6   1 1363.66   78.39
   0   6   1 1373.36   78.29
   0   6   1 1425.56   80.29
  -1  -6  -1 1967.10  120.89
  -1  -6  -1 1842.62  119.59
  -1  -6  -1 2154.28  119.79
  -1  -6  -1 2114.69  119.79
  -1  -6  -1 1922.11  120.49
   1   6   1 2144.39  119.89
   1   6   1 2036.90  121.49
   1   6   1 2109.39  119.99
   1   6   1 2112.79  120.59
   1   6   1 2148.39  120.39
  -2  -6  -1  106.79   12.40
  -2  -6  -1  122.89   11.70
  -2  -6  -1  136.29   10.30
  -2  -6  -1  162.48   10.80
   2   6   1  145.49   13.50
   2   6   1  125.49   12.30
   2   6   1  150.88   11.10
   2   6   1  138.29   16.60
  -3  -6  -1  101.09   10.00
  -3  -6  -1  114.69   10.60
  -3  -6  -1  105.09   12.70
  -3  -6  -1  102.79    9.70
   3   6   1   77.19   13.40
   3   6   1   94.09   16.20
   3   6   1  101.29   10.60
  -4  -6  -1  660.43   42.30
  -4  -6  -1  666.13   42.50
  -4  -6  -1  731.03   43.40
   4   6   1  691.43   42.30
   4   6   1  705.83   44.00
   4   6   1  666.13   45.80
  -5  -6  -1  409.76   31.30
  -5  -6  -1  409.86   28.40
  -5  -6  -1  397.26   28.40
  -5  -6  -1  426.16   27.60
   5   6   1  424.86   28.40
   5   6   1  437.96   31.10
  -6  -6  -1    6.10   12.70
  -6  -6  -1    6.80    8.90
  -6  -6  -1    7.10    8.30
   6   6   1    0.90   13.40
   6   6   1   -4.20   10.20
   9  -7  -1  391.56   29.00
  -9   7   1  436.66   31.70
  -9   7   1  414.26   31.70
   8  -7  -1  319.57   21.90
   8  -7  -1  261.97   22.00
  -8   7   1  330.47   23.20
  -8   7   1  322.17   25.80
   7  -7  -1   35.40    9.00
   7  -7  -1   18.30    7.10
  -7   7   1   38.90    7.30
  -7   7   1   42.10    7.40
  -7   7   1   29.50    5.70
   6  -7  -1  711.63   42.30
   6  -7  -1  712.43   41.50
   6  -7  -1  687.83   42.20
  -6   7   1  668.93   42.60
  -6   7   1  616.54   41.40
  -6   7   1  665.03   42.90
  -6   7   1  758.92   42.90
  -6   7   1  704.23   42.40
   5  -7  -1 1395.26   78.89
   5  -7  -1 1368.66   78.19
   5  -7  -1 1422.46   79.39
  -5   7   1 1309.87   78.79
  -5   7   1 1343.17   79.39
  -5   7   1 1167.38   78.89
   4  -7  -1  525.45   30.00
   4  -7  -1  489.65   28.80
   4  -7  -1  420.86   30.00
  -4   7   1  490.95   28.40
  -4   7   1  426.16   29.40
  -4   7   1  529.35   30.50
  -4   7   1  494.35   28.50
   3  -7  -1   40.60    7.00
   3  -7  -1   40.30    7.70
   3  -7  -1   30.00    3.80
   3  -7  -1   38.50    5.20
  -3   7   1   37.90    4.80
  -3   7   1   24.80    5.40
  -3   7   1   39.60    5.60
  -3   7   1   41.60    6.90
   2  -7  -1 1636.84  113.39
   2  -7  -1 2027.40  112.09
   2  -7  -1 1879.81  112.19
  -2   7   1 1860.11  112.19
  -2   7   1 2109.39  114.29
  -2   7   1 1969.20  112.19
  -2   7   1 2006.80  112.99
   1  -7  -1 1489.35   79.19
   1  -7  -1 1284.87   77.29
  -1   7   1 1328.17   77.49
  -1   7   1 1277.77   79.59
  -1   7   1 1303.57   78.39
  -1   7   1 1262.57   77.49
   0  -7  -1  125.09   12.00
   0  -7  -1  140.69    9.80
   0  -7  -1  111.79   10.40
   0   7   1  129.09   11.20
   0   7   1  157.08   10.90
   0   7   1  145.19   13.20
   0   7   1  134.19   10.20
   0   7   1  139.39   16.40
  -1  -7  -1  303.47   19.80
  -1  -7  -1  274.77   18.90
  -1  -7  -1  263.37   17.40
   1   7   1  248.88   18.90
   1   7   1  267.87   20.90
   1   7   1  244.78   22.30
   1   7   1  283.37   17.70
   1   7   1  260.27   18.10
  -2  -7  -1 1019.10   66.59
  -2  -7  -1 1205.18   67.19
  -2  -7  -1 1023.10   65.19
  -2  -7  -1 1174.08   65.59
   2   7   1 1127.29   68.69
  -3  -7  -1  418.36   27.10
  -3  -7  -1  414.86   30.80
  -3  -7  -1  364.16   26.60
  -3  -7  -1  464.35   29.40
   3   7   1  454.45   28.00
   3   7   1  455.15   30.20
   3   7   1  445.76   35.30
  -4  -7  -1   10.20    7.50
  -4  -7  -1   21.80    8.40
  -4  -7  -1   44.70   10.90
   4   7   1   53.39   11.70
   4   7   1    1.50    8.10
   4   7   1   64.69   19.00
  -5  -7  -1  179.78   17.30
  -5  -7  -1  174.68   22.90
  -5  -7  -1  174.98   17.50
   5   7   1  171.78   18.60
   5   7   1  177.98   22.30
   5   7   1  185.58   31.40
   9  -8  -1   12.80    9.80
  -9   8   1   21.00   14.30
  -9   8   1    6.90   13.90
   8  -8  -1  215.38   19.50
   8  -8  -1  271.87   19.60
  -8   8   1  255.87   22.80
  -8   8   1  250.37   21.90
   7  -8  -1  743.33   48.30
  -7   8   1  738.23   46.90
  -7   8   1  856.51   48.90
   6  -8  -1  321.87   22.50
   6  -8  -1  365.46   21.60
   6  -8  -1  320.97   22.30
  -6   8   1  346.17   23.20
  -6   8   1  280.47   22.40
   5  -8  -1   82.19   11.60
   5  -8  -1   60.69   10.20
   5  -8  -1   53.49    8.70
  -5   8   1   72.39    9.70
  -5   8   1   84.59   12.00
   4  -8  -1 1447.26   81.39
   4  -8  -1 1369.16   81.89
   4  -8  -1 1386.66   81.09
  -4   8   1 1169.58   80.99
  -4   8   1 1390.46   79.99
  -4   8   1 1481.45   81.29
   3  -8  -1 1171.08   74.99
   3  -8  -1 1255.77   73.39
   3  -8  -1 1300.77   74.49
  -3   8   1 1208.48   75.79
  -3   8   1 1284.97   73.29
  -3   8   1 1309.47   74.39
   2  -8  -1    8.30    5.90
   2  -8  -1    6.00    3.30
  -2   8   1   -1.40    3.70
  -2   8   1   -1.50    9.60
  -2   8   1    0.00    6.60
   1  -8  -1  320.27   19.70
   1  -8  -1  357.66   22.40
  -1   8   1  313.17   22.10
  -1   8   1  270.27   24.90
  -1   8   1  303.57   20.60
  -1   8   1  333.27   20.10
   0  -8  -1  832.52   48.70
   0  -8  -1  778.52   50.39
   0   8   1  842.22   51.59
   0   8   1  852.21   50.19
   0   8   1  778.52   49.40
   0   8   1  838.52   48.80
  -1  -8  -1  440.16   28.40
  -1  -8  -1  482.55   29.90
  -2  -8  -1    8.90    5.60
  -2  -8  -1   11.20    7.30
  -2  -8  -1   12.60    7.60
   2   8   1    3.20   12.10
   2   8   1   10.60   14.80
   2   8   1   -0.90    6.90
  -3  -8  -1  281.17   20.40
  -3  -8  -1  240.58   20.50
   3   8   1  222.48   30.30
   3   8   1  276.27   20.30
   3   8   1  263.37   23.80
  -4  -8  -1  528.35   35.90
  -4  -8  -1  552.54   39.20
  -4  -8  -1  534.05   35.00
   4   8   1  544.15   35.30
   4   8   1  516.15   43.90
   4   8   1  535.15   37.80
   9  -9  -1  197.58   19.60
  -9   9   1  254.67   25.60
  -9   9   1  258.77   25.50
   8  -9  -1   60.29   11.60
  -8   9   1   91.89   13.90
  -8   9   1   74.09   13.40
   7  -9  -1  149.99   14.90
   7  -9  -1  137.09   15.10
   7  -9  -1  113.29   13.70
  -7   9   1  180.88   18.60
  -7   9   1  140.19   14.40
   6  -9  -1  517.05   34.60
   6  -9  -1  522.55   32.50
   6  -9  -1  601.34   34.40
  -6   9   1  533.25   35.60
  -6   9   1  465.65   33.50
   5  -9  -1  764.52   49.80
   5  -9  -1  811.82   50.19
  -5   9   1  897.41   50.99
  -5   9   1  692.33   48.90
  -5   9   1  964.30   60.39
   4  -9  -1   11.10    7.50
   4  -9  -1   -0.90    8.30
  -4   9   1    1.30    8.40
  -4   9   1    9.20   14.00
  -4   9   1    4.50    3.20
   3  -9  -1  970.00   56.79
   3  -9  -1  906.81   54.09
  -3   9   1  927.51   54.19
  -3   9   1  934.01   55.69
  -3   9   1  867.31   59.49
  -2   9   1  638.84   39.20
  -2   9   1  675.33   40.90
   1  -9  -1  312.47   23.30
   1  -9  -1  295.87   19.80
  -1   9   1  346.97   30.50
   0  -9  -1    6.40    4.70
   0  -9  -1   33.90    8.30
   0   9   1   16.10    6.30
   0   9   1    8.90   15.10
   0   9   1   -0.20   11.10
  -1  -9  -1  517.65   32.70
  -1  -9  -1  488.65   29.90
   1   9   1  474.05   30.90
   1   9   1  434.96   37.30
   1   9   1  475.15   33.50
  -2  -9  -1  512.05   34.80
  -2  -9  -1  526.85   33.90
   2   9   1  500.25   35.70
   2   9   1  446.06   39.40
   2   9   1  513.55   32.60
  -3  -9  -1  149.69   19.10
  -3  -9  -1  106.59   19.10
  -3  -9  -1  158.28   16.30
   3   9   1  143.69   25.40
   3   9   1  136.99   21.70
   3   9   1  170.68   16.70
   8 -10  -1  169.48   18.10
  -8  10   1  215.68   24.30
   7 -10  -1  206.08   21.40
   7 -10  -1  250.17   21.70
  -7  10   1  285.07   24.00
  -7  10   1  274.97   28.30
   6 -10  -1    1.30   10.10
   6 -10  -1   11.40   10.10
  -6  10   1    7.80   10.40
  -6  10   1   34.40   16.40
   5 -10  -1  266.67   21.80
   5 -10  -1  246.38   21.20
  -5  10   1  332.37   27.10
  -5  10   1  302.97   24.40
   4 -10  -1  641.24   39.50
  -4  10   1  611.44   39.60
  -4  10   1  580.14   35.60
  -4  10   1  569.54   42.00
   3 -10  -1  796.32   47.70
  -3  10   1  747.53   47.60
  -3  10   1  692.83   49.99
   2 -10  -1  116.39   15.00
  -2  10   1  115.19   22.60
  -2  10   1  108.59   18.70
  -2  10   1  121.59   10.50
   1 -10  -1  861.71   55.89
  -1  10   1  939.51   53.19
  -1  10   1  807.02   58.69
  -1  10   1  938.21   56.09
   0 -10  -1  361.76   28.10
   0  10   1  341.67   34.40
   0  10   1  385.66   30.90
   0  10   1  438.86   25.80
  -1 -10  -1   50.89   11.60
   1  10   1   56.59    9.80
   1  10   1   79.79   20.20
   1  10   1   72.79   15.80
  -2 -10  -1  261.17   23.70
   2  10   1  250.07   19.70
   2  10   1  232.78   26.60
   2  10   1  227.38   33.30
   7 -11  -1  195.98   21.40
   7 -11  -1  230.68   23.00
  -7  11   1  279.27   29.30
  -7  11   1  260.47   26.40
   6 -11  -1  482.25   34.00
  -6  11   1  444.96   37.70
  -6  11   1  460.65   33.70
   5 -11  -1   52.79   11.50
  -5  11   1   40.10   14.30
  -5  11   1   46.50   17.50
   4 -11  -1  138.99   17.30
  -4  11   1  141.29   11.20
  -4  11   1  147.19   22.80
  -4  11   1  130.79   19.20
   3 -11  -1  503.35   33.60
  -3  11   1  443.36   33.30
  -3  11   1  493.85   29.20
  -3  11   1  414.16   38.00
   2 -11  -1  427.46   30.40
  -2  11   1  348.37   29.40
  -2  11   1  324.87   35.00
  -2  11   1  407.96   25.10
   1 -11  -1    1.40   10.60
  -1  11   1   17.50   17.30
  -1  11   1   -1.00   13.00
  -1  11   1    6.90    7.10
   0 -11  -1  192.78   19.90
   0  11   1  205.88   16.30
   0  11   1  195.38   23.20
   0  11   1  134.99   25.30
   6 -12  -1   84.39   17.70
  -6  12   1  100.69   20.10
  -6  12   1   70.39   15.20
   5 -12  -1  413.96   31.50
  -5  12   1  403.86   37.00
  -5  12   1  398.76   32.00
   4 -12  -1  332.17   27.40
  -4  12   1  330.97   21.50
  -4  12   1  339.87   35.00
  -4  12   1  304.77   34.10
   3 -12  -1   -1.50   11.70
  -3  12   1   -4.50   19.50
  -3  12   1   16.00   13.80
  -3  12   1   -8.10    6.80
  -2  12   1  309.87   21.70
  -2  12   1  298.77   27.40
  -1  12  -2  273.27   31.70
  -1  12  -2  261.37   20.00
  -1  12  -2  258.27   27.50
   1 -12   2  283.67   24.00
  -2  12  -2  468.95   38.50
  -2  12  -2  486.95   29.90
  -2  12  -2  487.55   35.40
   2 -12   2  439.96   34.40
  -3  12  -2  234.28   23.90
  -3  12  -2  224.58   30.20
  -3  12  -2  195.18   21.80
   3 -12   2  226.88   22.40
  -4  12  -2   35.30   13.00
  -4  12  -2   31.10   13.60
  -4  12  -2   26.30   20.30
   4 -12   2   37.30   12.60
  -5  12  -2  342.17   28.50
  -5  12  -2  380.76   30.00
  -5  12  -2  332.67   34.20
   5 -12   2  362.56   28.60
   1  11  -2  326.37   22.50
   1  11  -2  306.87   34.60
   1  11  -2  349.37   36.90
  -1 -11   2  302.37   25.20
   0  11  -2  582.14   35.80
   0  11  -2  586.74   38.90
   0  11  -2  541.95   45.20
   0 -11   2  584.54   39.30
  -1  11  -2   83.39   12.00
  -1  11  -2   60.09    7.90
  -1  11  -2   81.69   19.10
   1 -11   2   74.89   14.60
  -2  11  -2  157.68   19.60
  -2  11  -2  138.69   23.00
  -2  11  -2  145.29   12.60
   2 -11   2  166.78   18.00
  -3  11  -2  293.87   25.60
  -3  11  -2  310.97   30.20
  -3  11  -2  344.27   20.10
   3 -11   2  332.97   25.70
  -4  11  -2  408.96   29.20
  -4  11  -2  445.96   35.00
  -4  11  -2  437.66   30.20
   4 -11   2  339.17   29.30
  -5  11  -2   51.49   11.50
  -5  11  -2   61.49   12.00
  -5  11  -2   54.29   15.30
   5 -11   2   45.60   11.80
  -6  11  -2  125.99   18.70
  -6  11  -2  112.59   19.00
  -6  11  -2  109.99   17.80
   6 -11   2  121.89   14.70
   7 -11   2  290.17   22.50
   3  10  -2  155.78   21.10
   3  10  -2  124.19   24.80
  -3 -10   2  165.38   17.60
   2  10  -2  556.14   34.70
   2  10  -2  555.94   37.90
   2  10  -2  481.35   44.00
  -2 -10   2  562.64   37.40
   1  10  -2   65.89   16.70
   1  10  -2   53.49    8.00
   1  10  -2   47.50   11.60
  -1 -10   2   46.00   10.10
   0  10  -2   77.89   12.50
   0  10  -2   88.49   17.60
   0  10  -2   94.99   10.40
   0 -10   2   87.69   13.40
  -1  10  -2  779.52   49.70
  -1  10  -2  774.12   45.30
   1 -10   2  700.33   47.60
  -2  10  -2 1188.98   75.99
  -2  10  -2 1309.67   74.59
  -2  10  -2 1263.17   78.79
   2 -10   2 1328.87   77.69
  -3  10  -2   30.90    3.90
  -3  10  -2   30.00    8.10
   3 -10   2   14.50    6.30
   3 -10   2   30.40    9.40
  -4  10  -2  524.05   38.90
  -4  10  -2  503.05   35.70
  -4  10  -2  565.14   34.10
  -4  10  -2  514.45   33.20
   4 -10   2  506.95   33.10
   4 -10   2  600.24   36.50
  -5  10  -2  527.35   40.50
  -5  10  -2  584.54   34.20
   5 -10   2  501.85   34.40
   5 -10   2  548.25   36.10
   5 -10   2  528.85   34.00
  -6  10  -2  207.18   28.00
   6 -10   2  151.18   17.20
   6 -10   2  227.68   17.80
  -7  10  -2   53.79   15.50
  -7  10  -2   47.30   10.40
   7 -10   2   46.70   11.50
   7 -10   2   45.90    9.50
   8 -10   2   88.49   13.80
   4   9  -2  343.17   28.30
   4   9  -2  339.57   23.40
   4   9  -2  309.47   37.70
   4   9  -2  295.57   27.70
  -4  -9   2  331.97   26.10
  -4  -9   2  315.87   24.30
  -4  -9   2  346.97   29.30
   3   9  -2   50.29   19.60
   3   9  -2   32.40   11.80
   3   9  -2   31.10    7.70
  -3  -9   2   49.60    9.60
  -3  -9   2   35.70    9.10
   2   9  -2  250.67   18.30
   2   9  -2  239.28   28.40
   2   9  -2  311.87   24.10
  -2  -9   2  241.38   20.10
  -2  -9   2  249.78   17.60
  -2  -9   2  262.87   19.10
   1   9  -2  874.51   54.89
   1   9  -2  901.51   52.29
   1   9  -2  921.61   57.69
  -1  -9   2  825.42   52.09
  -1  -9   2  873.21   52.09
  -1  -9   2  857.21   54.19
   0   9  -2  635.84   43.40
   0   9  -2  597.74   37.00
   0  -9   2  573.94   35.00
   0  -9   2  527.45   38.60
  -1   9  -2   15.20    6.50
  -1   9  -2   14.30    4.20
  -1   9  -2   30.00   14.10
   1  -9   2    5.90    8.60
   1  -9   2   12.10    4.20
  -2   9  -2  711.43   41.80
  -2   9  -2  681.13   39.20
  -2   9  -2  600.94   39.90
  -2   9  -2  535.65   37.90
  -2   9  -2  679.53   37.60
   2  -9   2  584.64   39.20
   2  -9   2  652.83   40.40
  -3   9  -2  934.41   54.09
  -3   9  -2  904.81   51.99
  -3   9  -2  868.41   50.49
   3  -9   2  807.02   53.19
   3  -9   2  809.32   51.39
  -4   9  -2  270.37   17.60
  -4   9  -2  245.68   17.60
  -4   9  -2  277.77   19.40
   4  -9   2  200.78   18.60
   4  -9   2  217.68   16.60
   4  -9   2  225.28   17.60
  -5   9  -2  114.19   11.70
  -5   9  -2   93.89   10.90
  -5   9  -2  133.39   15.90
  -5   9  -2  133.09   13.10
  -5   9  -2  114.49   11.90
   5  -9   2  117.19   11.90
   5  -9   2  101.69   13.20
  -6   9  -2  519.75   31.20
  -6   9  -2  527.65   33.20
  -6   9  -2  440.16   31.60
  -6   9  -2  483.25   32.10
  -6   9  -2  460.55   31.90
   6  -9   2  463.45   31.70
   6  -9   2  554.14   32.10
  -7   9  -2  257.57   22.50
  -7   9  -2  285.97   21.70
  -7   9  -2  290.67   22.10
   7  -9   2  252.37   21.60
   7  -9   2  326.07   21.80
  -8   9  -2   33.20   11.80
  -8   9  -2   25.20   12.30
   8  -9   2   21.40   11.20
   8  -9   2   22.90    9.90
   5   8  -2    7.80   12.20
   5   8  -2   -1.10    8.20
   5   8  -2   -8.00   11.50
   5   8  -2  -24.00   21.30
  -5  -8   2   18.10   13.50
  -5  -8   2    1.20    8.90
  -5  -8   2   -2.20    8.70
   4   8  -2  359.66   27.70
   4   8  -2  349.96   34.50
   4   8  -2  328.87   23.70
  -4  -8   2  329.47   24.00
  -4  -8   2  336.57   25.20
  -4  -8   2  370.66   28.10
   3   8  -2  944.11   59.59
   3   8  -2 1056.59   61.49
   3   8  -2 1039.40   64.99
  -3  -8   2  971.80   61.29
  -3  -8   2  948.81   59.49
  -3  -8   2 1034.40   62.79
   2   8  -2  280.07   19.20
  -2  -8   2  295.27   19.40
  -2  -8   2  281.07   20.00
  -2  -8   2  302.97   20.70
   1   8  -2  109.39   10.80
   1   8  -2  113.29    9.60
   1   8  -2  113.79   12.40
  -1  -8   2  101.59    9.70
  -1  -8   2   99.09   11.10
  -1  -8   2  108.39   11.20
   0   8  -2 1247.78   77.29
   0   8  -2 1296.77   76.99
   0   8  -2 1199.78   76.29
   0   8  -2 1323.17   76.29
   0   8  -2 1396.66   79.19
   0  -8   2 1359.56   76.29
   0  -8   2 1174.28   76.79
   0  -8   2 1424.06   78.19
  -1   8  -2  869.51   54.79
  -1   8  -2  940.01   54.89
  -1   8  -2 1007.80   56.89
  -1   8  -2  974.50   53.79
  -1   8  -2  868.41   53.79
   1  -8   2  868.71   53.99
   1  -8   2  835.42   55.59
   1  -8   2  963.70   53.69
  -2   8  -2  139.59   12.10
  -2   8  -2  134.79   12.30
  -2   8  -2  166.58   16.00
  -2   8  -2  136.79    9.10
  -2   8  -2  132.69    9.20
   2  -8   2  124.29   12.20
   2  -8   2  120.49    9.60
   2  -8   2  109.89   10.90
  -3   8  -2  157.38   13.60
  -3   8  -2  187.28   13.90
  -3   8  -2  191.88   16.70
   3  -8   2  171.58   13.40
   3  -8   2  172.28   14.40
   3  -8   2  178.58   13.20
  -4   8  -2 1129.09   77.79
  -4   8  -2 1422.36   78.99
  -4   8  -2 1304.37   78.99
  -4   8  -2 1359.86   77.89
  -4   8  -2 1343.17   78.09
   4  -8   2 1354.96   77.69
   4  -8   2 1260.27   78.99
   4  -8   2 1398.86   77.89
  -5   8  -2  656.63   41.40
  -5   8  -2  664.93   40.60
  -5   8  -2  726.03   42.30
  -5   8  -2  688.43   41.20
  -5   8  -2  665.13   41.60
   5  -8   2  658.23   40.70
   5  -8   2  634.94   40.90
  -6   8  -2   14.30    7.80
  -6   8  -2   24.10    6.40
  -6   8  -2    8.50    7.30
   6  -8   2    9.90    7.70
   6  -8   2    7.20    8.30
  -7   8  -2  303.07   27.10
  -7   8  -2  316.47   24.20
  -7   8  -2  336.47   22.40
  -7   8  -2  339.17   24.30
   7  -8   2  362.56   23.90
   7  -8   2  301.87   23.30
  -8   8  -2  560.04   39.70
  -8   8  -2  505.85   36.70
  -8   8  -2  561.94   39.40
   8  -8   2  600.84   36.50
  -9   8  -2  117.09   20.40
  -9   8  -2  104.59   21.20
   9  -8   2  104.09   14.00
   6   7  -2  418.56   41.30
   6   7  -2  377.86   28.20
  -6  -7   2  450.05   31.80
  -6  -7   2  362.86   28.10
   5   7  -2  705.33   43.40
   5   7  -2  741.83   50.79
   5   7  -2  655.43   45.40
   5   7  -2  741.83   46.00
  -5  -7   2  687.23   44.10
  -5  -7   2  712.13   45.80
  -5  -7   2  666.23   43.20
   4   7  -2   91.19   12.00
   4   7  -2   97.29   11.80
   4   7  -2   91.59   17.60
  -4  -7   2   92.19   10.30
  -4  -7   2  119.69   16.10
  -4  -7   2   97.39   11.10
   3   7  -2   91.19   17.00
  -3  -7   2   80.09    9.10
  -3  -7   2   72.89   12.30
  -3  -7   2   74.19    7.70
  -3  -7   2   61.79    8.60
   2   7  -2 1163.08   71.79
   2   7  -2 1222.58   71.69
   2   7  -2 1268.67   74.59
   2   7  -2 1254.67   72.69
  -2  -7   2 1258.37   72.99
  -2  -7   2 1154.68   72.89
  -2  -7   2 1207.08   71.59
   1   7  -2 1169.68   69.49
   1   7  -2 1135.79   67.79
   1   7  -2 1184.28   66.99
   1   7  -2 1160.38   67.09
   1   7  -2  988.00   67.79
  -1  -7   2 1059.19   67.19
  -1  -7   2 1186.98   66.89
  -1  -7   2 1229.88   68.49
   0   7  -2   80.49    9.30
   0   7  -2   59.09    6.50
   0   7  -2   56.09    6.70
   0  -7   2   58.69    9.40
   0  -7   2   58.79    7.30
   0  -7   2   60.09    8.50
  -1   7  -2  168.98   11.10
  -1   7  -2  170.78   13.00
  -1   7  -2  158.58   12.80
  -1   7  -2  165.78   11.10
  -1   7  -2  193.38   16.90
   1  -7   2  177.28   10.80
   1  -7   2  163.98   11.60
   1  -7   2  160.58   13.50
   1  -7   2  146.39   12.90
  -2   7  -2 2124.59  120.39
  -2   7  -2 1927.31  119.69
  -2   7  -2 2134.89  119.69
  -2   7  -2 1953.10  120.49
  -2   7  -2 2205.18  121.69
   2  -7   2 1982.70  119.69
   2  -7   2 2031.60  120.09
   2  -7   2 2142.09  119.59
   2  -7   2 2053.79  121.49
  -3   7  -2 1091.79   62.69
  -3   7  -2 1027.40   61.39
   3  -7   2  966.80   62.39
   3  -7   2 1073.89   61.39
  -4   7  -2   22.30    5.10
  -4   7  -2   16.40    5.10
  -4   7  -2   26.20    6.10
  -4   7  -2   30.30    6.30
   4  -7   2   20.00    5.40
   4  -7   2   23.60    6.40
   4  -7   2    9.70    6.00
  -5   7  -2  443.86   26.70
  -5   7  -2  423.56   27.80
  -5   7  -2  464.85   27.60
  -5   7  -2  410.56   27.20
  -5   7  -2  417.86   27.80
   5  -7   2  371.66   27.00
   5  -7   2  459.75   27.10
  -6   7  -2 1156.38   68.59
  -6   7  -2 1261.37   69.19
  -6   7  -2 1139.19   68.09
  -6   7  -2  991.50   69.19
  -6   7  -2 1194.48   68.69
   6  -7   2 1116.29   68.39
   6  -7   2 1187.68   68.49
  -7   7  -2  167.08   16.60
  -7   7  -2  136.39   12.90
  -7   7  -2  145.29   13.80
   7  -7   2  137.09   14.10
   7  -7   2  106.99   12.90
  -8   7  -2   48.70   13.20
  -8   7  -2   35.20   11.70
   8  -7   2   56.49    9.50
   8  -7   2   25.10   10.10
  -9   7  -2  191.08   22.50
  -9   7  -2  205.58   27.90
   9  -7   2  216.18   20.50
   9  -7   2  155.08   17.60
   6   6  -2   45.00   11.50
   6   6  -2   47.40    8.80
   6   6  -2   48.00   18.60
  -6  -6   2   60.79    8.90
  -6  -6   2   51.99    8.80
  -6  -6   2   56.69    8.60
  -6  -6   2   61.89   12.30
   5   6  -2  294.47   20.60
   5   6  -2  259.77   21.50
   5   6  -2  315.77   31.10
   5   6  -2  307.97   25.70
  -5  -6   2  294.57   20.10
  -5  -6   2  284.77   20.30
  -5  -6   2  271.07   20.30
  -5  -6   2  321.37   23.80
   4   6  -2  773.32   52.39
  -4  -6   2  747.83   48.10
  -4  -6   2  833.22   49.60
  -4  -6   2  809.52   47.70
  -4  -6   2  821.12   48.50
   3   6  -2  311.67   24.60
   3   6  -2  284.07   19.30
   3   6  -2  298.27   20.80
  -3  -6   2  310.77   21.20
  -3  -6   2  280.97   19.60
  -3  -6   2  298.17   19.30
  -3  -6   2  278.07   19.10
   2   6  -2  342.67   22.60
   2   6  -2  339.17   21.10
   2   6  -2  325.27   21.20
   2   6  -2  334.37   22.50
   2   6  -2  356.26   25.60
  -2  -6   2  322.27   21.90
  -2  -6   2  334.67   21.20
  -2  -6   2  325.57   20.70
  -2  -6   2  359.86   23.00
   1   6  -2  733.63   44.30
   1   6  -2  671.73   45.10
   1   6  -2  752.72   43.20
   1   6  -2  768.82   44.30
   1   6  -2  682.03   43.70
   1   6  -2  729.03   43.10
  -1  -6   2  786.02   44.40
  -1  -6   2  759.72   43.10
  -1  -6   2  658.63   43.50
   0   6  -2 3792.52  215.68
   0   6  -2 3589.14  215.98
   0   6  -2 3862.91  215.68
   0   6  -2 3430.06  216.18
   0   6  -2 3866.21  216.88
   0   6  -2 3933.41  217.08
   0  -6   2 3505.65  215.68
   0  -6   2 3549.64  215.58
   0  -6   2 3499.25  215.88
   0  -6   2 3858.61  215.58
   0  -6   2 3984.70  216.88
  -1   6  -2  880.31   54.69
  -1   6  -2  971.60   53.89
  -1   6  -2  913.71   53.19
  -1   6  -2  961.50   53.29
   1  -6   2  867.31   54.59
   1  -6   2  940.01   53.19
   1  -6   2  884.01   53.59
   1  -6   2  867.21   53.49
  -2   6  -2  162.08   10.00
  -2   6  -2  182.68   10.10
  -2   6  -2  150.78   10.80
  -2   6  -2  148.59   12.60
  -2   6  -2  164.78   11.80
   2  -6   2  164.98   12.70
   2  -6   2  167.98   11.60
   2  -6   2  154.28   11.50
  -3   6  -2 2830.12  170.08
  -3   6  -2 2945.51  170.48
  -3   6  -2 2791.72  170.68
  -3   6  -2 2779.52  169.68
  -3   6  -2 2866.11  170.48
   3  -6   2 3300.57  170.98
   3  -6   2 3048.09  169.78
   3  -6   2 2791.22  169.68
  -4   6  -2 1413.06   88.59
  -4   6  -2 1572.44   88.59
  -4   6  -2 1512.15   88.49
  -4   6  -2 1511.55   88.39
  -4   6  -2 1484.35   87.79
   4  -6   2 1450.35   87.89
   4  -6   2 1568.94   87.99
  -5   6  -2    8.20    6.40
  -5   6  -2    4.50    5.20
  -5   6  -2    8.60    5.60
  -5   6  -2    7.00    6.80
  -5   6  -2   -1.50    5.00
   5  -6   2    7.70    5.50
   5  -6   2    8.90    5.30
  -6   6  -2  148.89   14.50
  -6   6  -2  136.39   15.20
  -6   6  -2  151.88   12.80
  -6   6  -2  120.29   12.40
   6  -6   2  121.89   11.70
   6  -6   2  146.39   13.80
  -7   6  -2  619.64   38.50
  -7   6  -2  561.04   36.40
   7  -6   2  575.94   37.40
   7  -6   2  635.84   37.50
  -8   6  -2  415.76   30.40
  -8   6  -2  362.86   29.50
   8  -6   2  365.06   26.30
   8  -6   2  419.06   27.20
  -9   6  -2   -2.10   14.50
  -9   6  -2    0.20   12.80
   9  -6   2    1.20    8.40
   9  -6   2   -5.30   11.50
   7   5  -2  232.88   34.10
   7   5  -2  237.08   20.00
  -7  -5   2  216.08   20.20
  -7  -5   2  228.28   21.60
  -7  -5   2  232.08   18.80
   6   5  -2  774.42   58.59
   6   5  -2  733.23   49.99
   6   5  -2  822.72   49.70
  -6  -5   2  828.82   49.40
  -6  -5   2  889.21   52.29
  -6  -5   2  831.92   49.50
  -6  -5   2  818.22   50.29
   5   5  -2  631.34   38.00
   5   5  -2  575.14   38.10
   5   5  -2  630.94   40.10
   5   5  -2  591.84   41.80
  -5  -5   2  627.64   37.50
  -5  -5   2  593.34   38.00
  -5  -5   2  619.04   37.10
   4   5  -2    9.40    7.70
   4   5  -2   13.00    5.20
   4   5  -2   15.90   10.60
  -4  -5   2   18.20    7.40
  -4  -5   2   12.10    5.60
  -4  -5   2   17.90    4.50
  -4  -5   2   20.30    4.70
   3   5  -2 2362.36  140.79
   3   5  -2 2289.77  140.39
   3   5  -2 2471.85  142.19
   3   5  -2 2250.37  140.29
  -3  -5   2 2299.47  140.29
  -3  -5   2 2330.37  140.99
  -3  -5   2 2576.94  140.69
  -3  -5   2 2683.93  141.69
   2   5  -2 1961.40  118.99
   2   5  -2 1957.50  118.99
   2   5  -2 2214.68  119.99
   2   5  -2 2129.59  120.69
   2   5  -2 1954.00  119.39
  -2  -5   2 2084.69  119.79
  -2  -5   2 1847.62  118.89
  -2  -5   2 1937.51  119.39
  -2  -5   2 2076.19  119.99
  -2  -5   2 2223.28  119.19
  -2  -5   2 1999.60  118.99
  -2  -5   2 2122.39  120.49
   1   5  -2  363.86   24.20
   1   5  -2  403.36   24.60
   1   5  -2  382.46   23.50
   1   5  -2  447.56   26.50
   1   5  -2  376.16   23.60
   1   5  -2  405.06   24.60
  -1  -5   2  367.66   24.20
  -1  -5   2  411.36   23.40
  -1  -5   2  424.26   24.70
  -1  -5   2  398.16   23.60
  -1  -5   2  391.96   25.60
  -1  -5   2  346.77   24.40
  -1  -5   2  362.86   23.40
   0   5  -2   99.79   11.10
   0   5  -2   86.09    6.70
   0   5  -2   75.69    8.00
   0   5  -2   84.59    6.70
   0   5  -2   90.19    7.90
   0   5  -2   79.79    8.50
   0  -5   2   84.99    6.30
   0  -5   2   84.19    7.00
   0  -5   2   92.19    7.70
   0  -5   2   70.59    7.90
   0  -5   2  110.99   11.20
   0  -5   2   93.09    6.60
  -1   5  -2 2844.02  164.48
  -1   5  -2 2449.25  165.08
  -1   5  -2 2773.22  164.28
  -1   5  -2 3061.89  164.18
  -1   5  -2 2428.66  164.58
  -1   5  -2 3058.89  164.18
  -1   5  -2 2888.41  165.28
   1  -5   2 3090.99  164.18
   1  -5   2 2834.42  164.38
   1  -5   2 2868.61  164.18
   1  -5   2 2836.22  164.38
  -2   5  -2  868.01   48.40
  -2   5  -2  762.52   49.70
  -2   5  -2  825.82   49.80
  -2   5  -2  827.32   48.90
  -2   5  -2  874.21   48.40
   2  -5   2  823.12   49.00
   2  -5   2  870.51   48.90
   2  -5   2  811.52   49.90
  -3   5  -2  553.94   38.80
  -3   5  -2  641.54   38.90
  -3   5  -2  652.33   38.10
  -3   5  -2  641.84   38.90
   3  -5   2  657.13   38.10
   3  -5   2  645.54   38.20
   3  -5   2  715.43   39.30
  -4   5  -2   91.59   10.00
  -4   5  -2   96.59    9.70
  -4   5  -2   93.29    9.60
  -4   5  -2   89.09    9.20
  -4   5  -2   97.19    9.90
   4  -5   2   92.59    8.90
   4  -5   2   88.09    8.40
  -5   5  -2 2798.02  152.28
  -5   5  -2 2551.44  151.48
  -5   5  -2 2440.46  151.98
  -5   5  -2 2883.81  152.78
  -5   5  -2 2358.46  151.28
   5  -5   2 2518.65  151.48
   5  -5   2 2636.74  151.48
  -6   5  -2  707.63   42.50
  -6   5  -2  721.93   42.90
  -6   5  -2  671.03   41.70
  -6   5  -2  620.14   41.10
   6  -5   2  654.13   41.30
   6  -5   2  698.33   41.40
   7  -5   2    5.40    7.30
   7  -5   2   -6.30    8.50
  -8   5  -2  401.76   29.80
  -8   5  -2  349.07   28.90
  -8   5  -2  370.36   22.80
   8  -5   2  364.46   25.30
   8  -5   2  375.36   27.30
  -9   5  -2  524.75   39.10
  -9   5  -2  464.55   37.20
   9  -5   2  550.24   34.50
   9  -5   2  491.05   33.10
   8   4  -2  411.46   29.30
   8   4  -2  395.86   29.40
  -8  -4   2  382.96   31.70
  -8  -4   2  432.36   30.70
  -8  -4   2  416.76   28.50
   7   4  -2  164.88   33.20
   7   4  -2  204.18   17.40
   7   4  -2  188.18   16.00
  -7  -4   2  199.48   18.20
  -7  -4   2  194.78   21.00
  -7  -4   2  211.68   16.30
   6   4  -2   33.30    7.20
   6   4  -2   46.60   12.80
   6   4  -2   30.70    6.90
  -6  -4   2   33.70    5.40
  -6  -4   2   46.30    9.90
  -6  -4   2   41.50    8.10
  -6  -4   2   39.20    6.70
   5   4  -2  998.20   59.39
   5   4  -2  904.21   58.49
   5   4  -2 1099.59   62.39
   5   4  -2  952.60   59.09
  -5  -4   2 1076.29   60.29
  -5  -4   2  958.30   58.49
  -5  -4   2  879.61   58.29
  -5  -4   2 1019.70   59.39
   4   4  -2 1591.94   98.99
   4   4  -2 1766.12  101.09
   4   4  -2 1646.24   99.49
  -4  -4   2 1716.13   99.29
  -4  -4   2 1570.74   98.89
  -4  -4   2 1796.12  100.29
  -4  -4   2 1752.12   99.59
   3   4  -2  152.98   12.70
   3   4  -2  157.38   11.00
   3   4  -2  150.98   11.10
   3   4  -2  157.48   13.00
   3   4  -2  161.98   16.80
  -3  -4   2  148.99   11.30
  -3  -4   2  151.08   10.60
  -3  -4   2  160.28   13.70
  -3  -4   2  149.29   11.30
  -3  -4   2  144.79   14.30
  -3  -4   2  138.69   12.40
  -3  -4   2  139.89   11.00
   2   4  -2  510.25   31.00
   2   4  -2  459.95   28.60
   2   4  -2  480.45   29.60
   2   4  -2  482.55   28.50
   2   4  -2  487.45   29.50
  -2  -4   2  451.55   28.50
  -2  -4   2  420.46   29.00
  -2  -4   2  497.85   30.40
  -2  -4   2  487.55   28.90
  -2  -4   2  471.25   29.10
  -2  -4   2  476.15   28.60
  -2  -4   2  519.85   29.80
   1   4  -2 2593.34  160.88
   1   4  -2 2367.66  159.98
   1   4  -2 2723.23  159.98
   1   4  -2 3018.20  160.68
   1   4  -2 2598.64  160.18
   1   4  -2 3115.99  160.78
  -1  -4   2 2823.52  159.98
  -1  -4   2 2763.02  159.98
  -1  -4   2 2742.83  160.88
  -1  -4   2 2689.23  160.18
  -1  -4   2 2890.41  159.98
  -1  -4   2 2892.31  160.58
  -1  -4   2 2602.14  160.58
   0   4  -2 1986.90  110.19
   0   4  -2 1881.81  111.19
   0   4  -2 2030.60  110.79
   0   4  -2 1816.02  110.39
   0   4  -2 1679.83  110.19
   0   4  -2 1975.20  110.29
   0   4  -2 2096.29  111.09
   0  -4   2 1785.72  110.39
   0  -4   2 1933.81  110.19
   0  -4   2 1764.92  110.99
   0  -4   2 1770.82  110.29
   0  -4   2 2003.20  111.19
   0  -4   2 1949.10  110.19
  -1   4  -2   14.70    1.90
  -1   4  -2   16.20    3.60
  -1   4  -2   17.10    2.60
   1  -4   2   17.80    3.70
   1  -4   2   18.10    2.80
   1  -4   2   15.70    3.10
  -2   4  -2 1036.60   60.49
  -2   4  -2  990.90   61.19
  -2   4  -2 1019.10   61.19
  -2   4  -2 1069.59   61.09
   2  -4   2 1069.29   60.69
  -3   4  -2 3164.98  163.98
  -3   4  -2 2681.63  163.58
  -3   4  -2 2679.93  163.48
   3  -4   2 2637.34  163.18
   3  -4   2 2876.81  163.08
  -4   4  -2  697.93   42.30
  -4   4  -2  682.13   41.90
  -4   4  -2  733.23   42.40
  -4   4  -2  749.82   41.70
   4  -4   2  647.34   41.80
   4  -4   2  688.53   41.60
  -5   4  -2   88.89    8.90
  -5   4  -2   84.79    9.40
  -5   4  -2  106.29   11.30
  -5   4  -2   75.29    6.20
   5  -4   2   76.89    9.40
   5  -4   2   93.69    8.90
  -6   4  -2  720.53   48.90
  -6   4  -2  820.82   49.90
  -6   4  -2  899.21   47.50
  -6   4  -2  870.21   50.29
  -6   4  -2  722.23   48.40
  -6   4  -2  748.93   47.40
   6  -4   2  870.61   48.90
   6  -4   2  837.22   49.20
  -7   4  -2 1048.10   61.89
  -7   4  -2 1006.40   58.59
   7  -4   2  952.90   59.99
   7  -4   2  983.70   59.89
  -8   4  -2  103.69   17.30
  -8   4  -2   85.39   15.00
   8  -4   2   68.49   11.80
   8  -4   2   92.49   11.90
  -9   4  -2   81.89   11.50
  -9   4  -2   64.79   14.50
  -9   4  -2   81.89   24.40
   9  -4   2   67.79   11.80
   9  -4   2   71.69   11.90
   8   3  -2   56.79   10.40
   8   3  -2  143.49   27.80
   8   3  -2   93.49   11.80
  -8  -3   2  114.89   20.00
  -8  -3   2   77.79    9.80
  -8  -3   2   91.69   16.40
   7   3  -2 1016.60   60.69
   7   3  -2  931.31   56.29
   7   3  -2  865.31   56.29
  -7  -3   2  958.10   58.49
  -7  -3   2  872.51   55.59
  -7  -3   2  928.41   57.39
   6   3  -2 1190.48   73.29
   6   3  -2 1216.98   70.49
   6   3  -2 1114.29   70.49
  -6  -3   2 1212.08   71.49
  -6  -3   2 1198.58   70.79
  -6  -3   2 1235.48   70.19
  -6  -3   2 1161.88   73.49
   5   3  -2    6.50    4.90
   5   3  -2    6.90    4.80
   5   3  -2    0.20   11.20
  -5  -3   2    3.80    4.60
  -5  -3   2    5.10    3.30
  -5  -3   2   12.50    6.70
  -5  -3   2    2.30    5.20
   4   3  -2 1345.57   78.69
   4   3  -2 1319.87   78.29
   4   3  -2 1282.27   77.79
   4   3  -2 1417.16   80.39
   4   3  -2 1305.37   77.89
  -4  -3   2 1251.47   77.79
  -4  -3   2 1344.17   77.99
  -4  -3   2 1383.16   79.19
  -4  -3   2 1333.17   77.89
  -4  -3   2 1392.76   78.69
  -4  -3   2 1242.28   78.99
   3   3  -2 1270.47   76.69
   3   3  -2 1276.47   77.89
   3   3  -2 1339.47   77.19
   3   3  -2 1306.17   76.29
   3   3  -2 1320.27   76.49
  -3  -3   2 1293.67   76.39
  -3  -3   2 1401.26   76.69
  -3  -3   2 1302.77   76.79
  -3  -3   2 1224.18   77.29
  -3  -3   2 1235.08   76.69
  -3  -3   2 1383.26   77.39
  -3  -3   2 1316.47   76.39
   2   3  -2 1673.33   96.99
   2   3  -2 1614.94   97.49
   2   3  -2 1723.53   98.09
   2   3  -2 1732.03   97.39
   2   3  -2 1610.74   96.99
   2   3  -2 1560.54   97.19
   2   3  -2 1558.04   97.19
  -2  -3   2 1822.02   97.79
  -2  -3   2 1751.32   97.29
  -2  -3   2 1584.14   97.19
  -2  -3   2 1619.14   96.99
  -2  -3   2 1655.23   96.99
  -2  -3   2 1724.23   97.39
  -2  -3   2 1691.93   97.89
   1   3  -2  537.35   30.90
   1   3  -2  512.25   31.20
   1   3  -2  547.15   31.40
   1   3  -2  501.55   30.80
   1   3  -2  573.64   31.90
   1   3  -2  512.95   31.20
   1   3  -2  519.95   30.70
  -1  -3   2  492.35   30.90
  -1  -3   2  511.15   30.80
  -1  -3   2  496.05   31.20
  -1  -3   2  597.04   32.00
  -1  -3   2  459.45   31.20
  -1  -3   2  537.25   31.40
  -1  -3   2  525.85   30.80
   0   3  -2  965.10   60.59
   0   3  -2  970.00   60.69
   0   3  -2  979.50   61.29
   0   3  -2  990.80   60.29
   0   3  -2 1035.20   60.29
   0   3  -2 1154.08   60.19
   0  -3   2 1138.69   60.89
   0  -3   2 1009.70   60.19
   0  -3   2 1140.59   60.19
   0  -3   2 1003.00   60.29
   0  -3   2  987.90   61.19
  -1   3  -2 8332.07  468.65
  -1   3  -2 8423.96  468.85
   1  -3   2 7362.56  468.35
   1  -3   2 8214.28  468.65
  -2   3  -2 4576.54  245.18
  -2   3  -2 4402.26  244.78
  -2   3  -2 3993.50  245.18
   2  -3   2 3900.41  244.68
  -3   3  -2  908.51   53.19
  -3   3  -2  922.61   52.79
  -3   3  -2  944.61   53.89
  -3   3  -2  966.50   53.59
  -3   3  -2  888.41   53.79
   3  -3   2  796.72   53.09
   3  -3   2  930.11   53.39
  -4   3  -2 3094.49  168.28
  -4   3  -2 2675.13  168.18
  -4   3  -2 2992.80  168.68
  -4   3  -2 2773.62  168.38
  -4   3  -2 3034.10  169.38
  -4   3  -2 3276.47  169.38
  -4   3  -2 2984.00  168.88
   4  -3   2 2647.44  168.68
   4  -3   2 2841.12  168.68
   4  -3   2 2692.63  168.18
  -5   3  -2 1287.97   72.99
  -5   3  -2 1306.97   73.59
  -5   3  -2 1249.28   72.39
  -5   3  -2 1310.27   71.79
  -5   3  -2 1343.77   73.69
  -5   3  -2 1105.49   71.69
   5  -3   2 1203.18   72.39
   5  -3   2 1066.29   71.59
   5  -3   2 1211.98   72.69
  -6   3  -2   47.30    6.70
  -6   3  -2   64.19    9.50
  -6   3  -2   52.29    6.00
  -6   3  -2   49.20    6.40
  -6   3  -2   62.29   10.70
  -6   3  -2   49.20    8.80
   6  -3   2   57.29    7.80
   6  -3   2   64.19    8.60
  -7   3  -2  247.28   16.30
  -7   3  -2  257.17   21.40
   7  -3   2  255.17   18.40
   7  -3   2  238.48   20.20
  -8   3  -2  474.35   28.60
  -8   3  -2  429.46   33.20
  -8   3  -2  458.45   34.60
   8  -3   2  451.55   30.80
   8  -3   2  465.95   30.40
  -9   3  -2  273.77   20.00
  -9   3  -2  283.17   26.10
  -9   3  -2  268.47   29.20
   9  -3   2  269.67   24.80
   9  -3   2  259.57   20.60
   9   2  -2  205.68   16.80
  -9  -2   2  170.08   23.20
   8   2  -2  402.26   27.90
   8   2  -2  435.16   35.90
  -8  -2   2  418.26   32.40
  -8  -2   2  434.76   27.50
  -8  -2   2  406.16   29.80
   7   2  -2   58.29   13.50
   7   2  -2   43.20    6.70
   7   2  -2   58.69    9.80
  -7  -2   2   65.59   11.20
  -7  -2   2   59.69    7.20
   6   2  -2  486.35   32.30
   6   2  -2  514.45   33.00
   6   2  -2  526.15   32.70
   6   2  -2  547.55   37.80
  -6  -2   2  550.74   31.90
  -6  -2   2  533.05   34.90
  -6  -2   2  553.04   32.50
  -6  -2   2  555.84   34.40
   5   2  -2 1655.13   94.39
   5   2  -2 1562.54   94.39
   5   2  -2 1634.14   96.69
  -5  -2   2 1672.53   94.29
  -5  -2   2 1521.65   95.39
  -5  -2   2 1634.04   95.29
  -5  -2   2 1591.14   95.29
  -5  -2   2 1675.83   94.49
  -5  -2   2 1550.04   94.19
   4   2  -2 1698.33  101.19
   4   2  -2 1896.51  103.09
   4   2  -2 1657.33  101.49
   4   2  -2 1673.23  101.29
   4   2  -2 1810.52  102.19
  -4  -2   2 1813.62  102.29
  -4  -2   2 1800.52  101.99
  -4  -2   2 1703.93  102.19
  -4  -2   2 1687.33  101.19
  -4  -2   2 1676.03  101.59
  -4  -2   2 1722.83  101.29
  -4  -2   2 1685.03  101.69
   3   2  -2  227.48   15.20
   3   2  -2  234.58   15.90
   3   2  -2  240.88   15.10
   3   2  -2  274.97   18.30
   3   2  -2  261.47   15.80
   3   2  -2  243.38   15.50
   3   2  -2  243.78   16.10
  -3  -2   2  227.08   15.90
  -3  -2   2  239.48   15.40
  -3  -2   2  230.28   15.10
  -3  -2   2  255.77   16.00
  -3  -2   2  245.78   15.00
  -3  -2   2  247.38   16.50
  -3  -2   2  246.58   16.70
   2   2  -2 3919.71  224.18
   2   2  -2 4427.76  223.88
   2   2  -2 3700.83  223.58
   2   2  -2 3769.92  223.58
   2   2  -2 4172.18  224.28
   2   2  -2 3457.95  223.38
   2   2  -2 3585.34  223.38
   2   2  -2 4079.09  223.98
  -2  -2   2 3823.32  223.68
  -2  -2   2 4132.69  223.78
  -2  -2   2 3411.26  223.58
  -2  -2   2 3787.72  223.58
  -2  -2   2 3522.55  223.38
  -2  -2   2 3741.03  223.98
  -2  -2   2 4254.37  224.18
   1   2  -2 1858.11  103.29
   1   2  -2 1647.04  102.79
   1   2  -2 1991.60  104.09
   1   2  -2 1794.12  103.19
   1   2  -2 1631.54  102.89
   1   2  -2 1905.61  103.09
   1   2  -2 1606.04  102.99
   1   2  -2 1888.21  103.19
  -1  -2   2 1968.30  103.59
  -1  -2   2 1820.82  103.29
  -1  -2   2 1636.74  102.79
  -1  -2   2 1714.03  102.89
  -1  -2   2 1581.74  102.89
  -1  -2   2 1615.94  103.09
  -1  -2   2 1907.41  103.09
   0   2  -2 1922.81  118.09
   0   2  -2 2196.78  118.39
   0   2  -2 2179.18  118.69
   0   2  -2 1971.40  118.09
   0   2  -2 1940.41  118.59
   0   2  -2 2137.99  118.69
   0   2  -2 2020.40  118.09
   0  -2   2 2158.08  118.69
   0  -2   2 1822.82  118.19
   0  -2   2 2243.38  118.69
   0  -2   2 1953.00  118.09
   0  -2   2 2044.20  118.09
   0  -2   2 1890.61  118.09
  -1   2  -2 2126.59  122.09
  -1   2  -2 2199.38  121.99
  -1   2  -2 2039.10  121.39
  -1   2  -2 1894.21  121.39
  -1   2  -2 2132.49  121.79
  -1   2  -2 1916.31  121.39
   1  -2   2 2292.57  121.99
   1  -2   2 2074.89  121.59
   1  -2   2 2193.68  121.39
   1  -2   2 2081.59  121.69
  -2   2  -2 2769.82  176.58
  -2   2  -2 3443.66  177.58
  -2   2  -2 2845.72  176.58
  -2   2  -2 3076.49  177.18
  -2   2  -2 2860.61  176.78
   2  -2   2 2997.80  176.88
   2  -2   2 3446.36  177.18
   2  -2   2 2945.81  176.58
  -3   2  -2  555.74   31.50
  -3   2  -2  527.65   31.50
  -3   2  -2  542.75   32.70
  -3   2  -2  547.75   32.30
  -3   2  -2  574.24   32.10
   3  -2   2  515.55   31.50
   3  -2   2  526.75   32.00
   3  -2   2  577.34   32.00
   3  -2   2  475.75   31.80
  -4   2  -2  299.67   19.90
  -4   2  -2  284.57   17.60
  -4   2  -2  295.57   17.50
  -4   2  -2  288.07   18.20
  -4   2  -2  278.67   18.30
   4  -2   2  315.57   17.60
   4  -2   2  307.07   18.40
   4  -2   2  276.67   19.00
   4  -2   2  263.37   17.40
  -5   2  -2  834.22   51.79
  -5   2  -2  940.61   51.89
  -5   2  -2  889.61   52.49
  -5   2  -2  896.71   53.89
   5  -2   2  792.12   51.79
   5  -2   2  964.30   51.89
   5  -2   2  887.81   52.89
   5  -2   2  867.41   52.49
  -6   2  -2 1156.78   65.59
  -6   2  -2 1123.29   67.79
  -6   2  -2 1174.28   67.99
  -6   2  -2 1037.30   65.89
  -6   2  -2 1041.90   66.69
   6  -2   2 1092.59   66.59
   6  -2   2 1169.88   65.69
   6  -2   2 1156.88   66.49
  -7   2  -2  292.37   24.30
  -7   2  -2  309.57   24.90
  -7   2  -2  309.27   20.10
   7  -2   2  311.37   22.00
   7  -2   2  287.77   20.70
  -8   2  -2    1.70    5.70
  -8   2  -2    9.60   14.20
  -8   2  -2    3.30    9.80
   8  -2   2    5.10    7.00
   8  -2   2   11.70    9.00
  -9   2  -2  506.75   38.40
  -9   2  -2  444.06   35.50
  -9   2  -2  478.85   30.30
   9  -2   2  458.95   31.10
   9   1  -2    2.50    7.10
  -9  -1   2   10.10   12.40
  -9  -1   2   15.40    7.40
  -9  -1   2   10.20   10.60
   8   1  -2  217.98   17.00
   8   1  -2  234.38   16.30
  -8  -1   2  205.88   19.70
  -8  -1   2  226.68   17.10
  -8  -1   2  183.98   22.00
   7   1  -2 1518.05   88.39
   7   1  -2 1487.05   90.89
   7   1  -2 1493.55   87.79
  -7  -1   2 1466.65   89.39
   6   1  -2  622.04   37.80
   6   1  -2  666.23   42.30
   6   1  -2  645.64   38.30
  -6  -1   2  559.54   39.40
  -6  -1   2  632.84   37.70
  -6  -1   2  661.93   37.10
  -6  -1   2  648.34   39.40
  -6  -1   2  639.94   39.80
  -6  -1   2  584.84   37.70
   5   1  -2  477.65   30.90
   5   1  -2  497.05   30.80
   5   1  -2  583.44   35.70
   5   1  -2  536.25   31.30
  -5  -1   2  533.85   32.80
  -5  -1   2  558.54   32.50
  -5  -1   2  505.65   30.30
  -5  -1   2  482.65   31.10
  -5  -1   2  504.65   32.20
  -5  -1   2  458.65   30.80
   4   1  -2 4128.49  214.88
   4   1  -2 3891.41  214.28
   4   1  -2 3229.08  213.28
   4   1  -2 3847.52  213.68
   4   1  -2 3710.93  213.48
   4   1  -2 4195.48  214.28
   4   1  -2 3296.77  213.38
  -4  -1   2 3324.07  213.38
  -4  -1   2 3909.51  214.28
  -4  -1   2 3506.25  214.08
  -4  -1   2 3959.80  214.28
  -4  -1   2 3650.83  213.28
  -4  -1   2 3299.57  213.38
  -4  -1   2 3516.45  213.68
   3   1  -2 5484.75  285.47
   3   1  -2 5244.17  285.87
   3   1  -2 5197.88  285.47
   3   1  -2 4585.24  284.77
   3   1  -2 4498.95  284.87
   3   1  -2 4850.11  284.97
  -3  -1   2 5092.29  285.57
  -3  -1   2 4630.94  285.07
  -3  -1   2 4896.51  285.47
  -3  -1   2 5038.30  285.37
  -3  -1   2 4515.95  284.87
   2   1  -2   90.09    7.40
   2   1  -2  109.99   10.90
   2   1  -2  113.59    7.10
   2   1  -2  103.19    7.20
   2   1  -2  105.89    6.70
   2   1  -2  102.99    7.50
  -2  -1   2  113.49    7.80
  -2  -1   2   99.59    7.60
  -2  -1   2  101.19    9.80
  -2  -1   2  108.69    6.80
  -2  -1   2  108.29    7.10
  -2  -1   2  107.29    7.40
   1   1  -2 3500.15  202.08
   1   1  -2 3514.15  201.88
   1   1  -2 3320.07  201.78
  -1  -1   2 3489.45  201.88
  -1  -1   2 3522.35  201.78
  -1  -1   2 3475.05  202.08
  -1  -1   2 3482.55  201.58
  -1  -1   2 3523.45  201.58
  -1  -1   2 3512.45  201.58
  -1  -1   2 3427.86  201.78
   0   1  -2 1941.41  110.29
   0   1  -2 1906.11  110.29
   0   1  -2 1807.22  109.89
   0   1  -2 1978.50  110.19
   0   1  -2 1808.42  109.89
   0  -1   2 1679.53  109.79
   0  -1   2 1781.12  109.89
   0  -1   2 2023.60  109.99
   0  -1   2 1895.71  109.89
   0  -1   2 2059.59  110.39
   0  -1   2 1961.60  110.29
  -1   1  -2 3671.83  217.28
  -1   1  -2 3552.34  216.88
   1  -1   2 4122.09  217.28
   1  -1   2 3676.63  216.88
   1  -1   2 3682.83  216.78
  -2   1  -2  380.46   23.10
  -2   1  -2  373.66   22.20
  -2   1  -2  383.66   23.10
  -2   1  -2  364.96   22.10
   2  -1   2  373.76   22.10
   2  -1   2  400.16   22.90
   2  -1   2  353.96   22.40
  -3   1  -2 1673.03  101.49
  -3   1  -2 1752.62  101.89
  -3   1  -2 1821.32  101.69
  -3   1  -2 1769.62  102.39
  -3   1  -2 1701.43  101.49
   3  -1   2 1767.72  101.49
   3  -1   2 1874.01  101.89
   3  -1   2 1672.53  101.39
   3  -1   2 1685.83  101.69
  -4   1  -2 2907.01  171.78
  -4   1  -2 3041.40  172.98
  -4   1  -2 2873.91  171.78
  -4   1  -2 2940.41  172.08
   4  -1   2 2909.41  172.08
   4  -1   2 3055.69  171.78
   4  -1   2 2771.92  171.68
   4  -1   2 3167.58  172.08
  -5   1  -2 1121.09   70.69
  -5   1  -2 1203.58   71.29
  -5   1  -2 1330.17   72.79
   5  -1   2 1119.19   71.39
   5  -1   2 1278.77   71.49
  -6   1  -2  170.08   14.80
  -6   1  -2  132.79   11.60
  -6   1  -2  134.09   10.80
  -6   1  -2  162.38   16.50
   6  -1   2  153.48   12.20
   6  -1   2  144.49   13.80
   6  -1   2  145.39   11.10
  -7   1  -2 1074.29   68.29
  -7   1  -2 1208.88   71.09
  -7   1  -2 1195.18   71.39
   7  -1   2 1125.29   67.99
   7  -1   2 1159.88   68.89
   7  -1   2 1150.08   69.49
  -8   1  -2  304.67   21.30
  -8   1  -2  338.67   29.20
  -8   1  -2  322.07   26.70
   8  -1   2  297.77   22.10
   8  -1   2  298.87   23.50
  -9   1  -2   44.30    8.20
   9   0  -2  559.14   35.60
  -9   0   2  532.55   38.20
  -9   0   2  545.45   39.90
  -9   0   2  564.14   34.80
   8   0  -2   60.99    8.60
   8   0  -2   71.69   10.90
  -8   0   2   63.19   11.00
  -8   0   2   75.99   12.30
  -8   0   2   65.29    9.80
   7   0  -2  111.09   11.60
  -7   0   2  127.29   11.00
  -7   0   2  134.59   11.20
   6   0  -2 1051.39   65.29
   6   0  -2 1142.69   65.79
  -6   0   2 1230.38   66.99
  -6   0   2 1160.78   66.79
  -6   0   2 1005.00   65.09
  -6   0   2 1081.09   65.19
  -6   0   2 1091.59   66.49
   5   0  -2 2757.62  156.78
   5   0  -2 2564.14  155.78
   5   0  -2 2646.74  155.88
   5   0  -2 2795.22  157.78
  -5   0   2 2714.73  155.88
  -5   0   2 2520.65  156.28
  -5   0   2 2709.73  156.88
  -5   0   2 2617.64  155.88
  -5   0   2 2843.62  157.08
  -5   0   2 2629.84  156.88
   4   0  -2   40.00    4.90
   4   0  -2   63.49   12.90
   4   0  -2   51.29    6.80
   4   0  -2   42.10    5.30
   4   0  -2   50.59    5.60
   4   0  -2   37.30    4.80
   4   0  -2   38.20    6.50
  -4   0   2   35.80    4.20
  -4   0   2   40.50    7.00
  -4   0   2   37.40    5.40
  -4   0   2   33.60    6.90
  -4   0   2   58.39    9.30
  -4   0   2   43.80    6.50
   3   0  -2 1611.94   98.19
   3   0  -2 1660.33   96.89
   3   0  -2 1817.12   97.59
   3   0  -2 1591.04   97.19
   3   0  -2 1740.43   97.09
   3   0  -2 1780.22   97.49
   3   0  -2 1599.94   96.99
  -3   0   2 1648.24   96.99
  -3   0   2 1634.04   97.19
  -3   0   2 1638.94   96.99
  -3   0   2 1625.44   97.39
  -3   0   2 1591.84   97.89
  -3   0   2 1735.73   97.59
   2   0  -2 3090.09  184.38
   2   0  -2 3381.96  184.48
   2   0  -2 3067.29  184.88
   2   0  -2 3253.47  184.38
  -2   0   2 3055.19  184.78
  -2   0   2 3349.56  184.48
  -2   0   2 3137.29  184.08
  -2   0   2 3098.39  184.08
  -2   0   2 3223.68  184.38
  -2   0   2 3082.09  184.18
   1   0  -2 2381.56  135.59
   1   0  -2 2328.27  135.79
   1   0  -2 2223.28  135.29
   1   0  -2 2477.65  135.39
  -1   0   2 2218.78  135.69
  -1   0   2 2403.46  135.59
  -1   0   2 2420.06  135.39
  -1   0   2 2260.87  135.09
  -1   0   2 2251.77  135.09
   0   0  -2  154.38   10.20
   0   0  -2  167.78   11.60
   0   0  -2  164.38   10.30
   0   0  -2  181.58   11.10
   0   0   2  163.38   10.20
   0   0   2  161.68   11.40
   0   0   2  162.88   10.20
   0   0   2  161.18    9.90
   0   0   2  181.08   11.90
  -1   0  -2  665.23   39.70
  -1   0  -2  668.33   39.80
  -1   0  -2  645.94   39.70
  -1   0  -2  694.33   40.30
  -1   0  -2  738.23   40.60
   1   0   2  669.73   39.80
   1   0   2  737.53   40.50
   1   0   2  663.33   39.80
   1   0   2  657.33   39.70
   1   0   2  674.23   39.80
  -2   0  -2 3372.76  224.88
  -2   0  -2 4157.88  225.28
  -2   0  -2 4049.89  224.98
  -2   0  -2 3535.85  224.88
  -2   0  -2 4060.79  225.48
   2   0   2 4426.36  225.48
   2   0   2 4223.28  225.08
   2   0   2 3662.13  224.88
   2   0   2 3567.74  224.88
   2   0   2 3734.13  224.98
  -3   0  -2  942.71   60.29
  -3   0  -2 1115.19   60.59
  -3   0  -2 1175.58   61.49
  -3   0  -2 1011.20   60.39
   3   0   2  999.60   60.29
   3   0   2 1091.59   61.19
   3   0   2 1036.70   60.59
   3   0   2  918.81   60.29
   3   0   2 1009.30   60.59
  -4   0  -2  779.72   46.60
  -4   0  -2  776.12   45.70
  -4   0  -2  758.92   45.20
  -4   0  -2  753.02   45.20
   4   0   2  749.53   46.40
   4   0   2  767.32   45.70
   4   0   2  706.73   45.10
   4   0   2  791.52   45.20
   4   0   2  824.02   46.00
  -5   0  -2 1005.60   59.89
  -5   0  -2  955.40   58.99
  -5   0  -2 1008.00   60.49
  -5   0  -2 1019.10   60.59
  -5   0  -2  983.30   58.89
   5   0   2 1025.80   58.99
   5   0   2  989.40   59.49
   5   0   2 1027.20   59.29
  -6   0  -2  662.23   41.10
  -6   0  -2  597.54   39.00
  -6   0  -2  664.63   41.90
  -6   0  -2  658.43   38.60
   6   0   2  644.14   38.80
   6   0   2  650.23   39.50
   6   0   2  626.94   40.20
  -7   0  -2   37.30   11.30
  -7   0  -2   49.00   12.80
  -7   0  -2   36.00    6.40
   7   0   2   27.80    6.30
   7   0   2   28.60    8.80
   7   0   2   35.30    8.20
  -8   0  -2  178.58   23.20
  -8   0  -2  207.98   16.70
  -8   0  -2  204.18   22.20
   8   0   2  200.18   16.80
  10  -1  -2   29.50    9.00
 -10   1   2   44.50   14.80
   9  -1  -2  361.76   25.50
  -9   1   2  410.36   30.20
  -9   1   2  347.17   24.90
  -9   1   2  356.36   28.50
   8  -1  -2  636.24   40.30
   8  -1  -2  674.83   41.00
  -8   1   2  648.74   40.10
  -8   1   2  669.93   43.10
  -8   1   2  665.83   42.80
   7  -1  -2  757.92   44.20
   7  -1  -2  762.72   44.90
  -7   1   2  631.34   45.70
  -7   1   2  738.93   46.10
  -7   1   2  694.73   44.10
  -7   1   2  791.52   44.10
  -7   1   2  787.62   46.30
   6  -1  -2   18.10    4.20
   6  -1  -2   18.50    4.80
  -6   1   2   27.80    7.00
  -6   1   2   14.10    4.10
  -6   1   2   33.30    7.00
  -6   1   2   16.00    4.40
   5  -1  -2 2629.44  149.69
   5  -1  -2 2514.75  149.09
   5  -1  -2 2568.94  150.08
  -5   1   2 2567.54  149.19
  -5   1   2 2571.74  150.08
  -5   1   2 2463.55  149.69
  -5   1   2 2480.15  150.28
  -5   1   2 2763.32  150.58
  -5   1   2 2541.55  149.19
   4  -1  -2 2757.42  152.28
   4  -1  -2 2629.44  151.28
   4  -1  -2 2500.15  151.88
   4  -1  -2 2696.33  151.68
   4  -1  -2 2514.35  151.38
  -4   1   2 2454.15  152.38
  -4   1   2 2626.24  151.98
  -4   1   2 2610.44  151.38
  -4   1   2 2560.64  151.38
  -4   1   2 2717.33  152.28
   3  -1  -2 1056.59   58.09
   3  -1  -2 1066.09   58.29
   3  -1  -2 1033.30   58.89
   3  -1  -2  967.60   58.09
   3  -1  -2 1011.70   58.89
   3  -1  -2 1045.50   58.29
  -3   1   2 1015.90   58.79
  -3   1   2  883.41   58.69
  -3   1   2  982.30   58.29
  -3   1   2  979.20   58.09
  -3   1   2  912.41   59.79
  -3   1   2 1007.90   58.09
   2  -1  -2 1045.80   55.69
   2  -1  -2 1033.00   55.69
   2  -1  -2  872.41   55.19
   2  -1  -2  949.90   55.19
  -2   1   2  926.21   55.19
  -2   1   2  936.41   56.49
  -2   1   2  923.01   55.19
  -2   1   2  978.90   55.69
  -2   1   2 1031.30   55.69
  -2   1   2  788.62   55.29
   1  -1  -2 5476.75  308.07
   1  -1  -2 4662.63  307.77
  -1   1   2 5788.22  308.07
   0  -1  -2 2349.17  143.29
   0  -1  -2 2500.05  143.29
   0  -1  -2 2505.95  143.39
   0   1   2 2414.96  143.29
   0   1   2 2479.05  143.39
   0   1   2 2577.54  143.39
  -1  -1  -2 2108.89  124.99
  -1  -1  -2 2305.77  125.09
  -1  -1  -2 2111.59  124.69
  -1  -1  -2 1987.20  124.59
   1   1   2 2383.66  125.19
   1   1   2 2142.79  124.69
   1   1   2 1992.20  124.59
  -2  -1  -2 1424.96   81.59
  -2  -1  -2 1479.95   82.09
  -2  -1  -2 1305.57   81.39
   2   1   2 1443.46   81.99
   2   1   2 1344.27   81.59
   2   1   2 1433.66   81.69
   2   1   2 1381.16   82.59
   2   1   2 1395.96   81.39
   2   1   2 1381.36   81.49
  -3  -1  -2 4402.96  244.78
  -3  -1  -2 3864.21  244.58
  -3  -1  -2 4302.87  245.48
  -3  -1  -2 4143.99  244.58
   3   1   2 4245.58  245.28
   3   1   2 4235.58  244.68
   3   1   2 4183.68  244.78
   3   1   2 4303.17  244.88
   3   1   2 4045.20  244.58
   3   1   2 4571.64  245.18
   3   1   2 4069.49  244.58
  -4  -1  -2  986.20   59.59
  -4  -1  -2 1039.60   61.29
  -4  -1  -2  989.30   59.89
  -4  -1  -2 1009.90   59.69
   4   1   2 1032.10   60.49
   4   1   2 1011.10   60.19
   4   1   2  996.10   59.59
   4   1   2  998.40   59.99
   4   1   2 1067.19   60.39
  -5  -1  -2   -4.30    4.20
  -5  -1  -2   -1.20    7.90
  -5  -1  -2    3.30    6.00
  -5  -1  -2    7.00    5.40
   5   1   2   -2.50    4.80
   5   1   2    1.40    5.70
   5   1   2    0.40    6.30
  -6  -1  -2  666.13   41.20
   6   1   2  636.34   39.70
   6   1   2  619.94   38.70
  -7  -1  -2  599.54   41.00
  -7  -1  -2  635.64   41.60
  -7  -1  -2  626.74   37.70
   7   1   2  602.84   38.50
   7   1   2  604.64   38.00
  -8  -1  -2  112.89   13.50
  -8  -1  -2  137.49   20.40
  -8  -1  -2  145.79   24.00
   8   1   2  138.29   13.60
 -10   2   2  299.77   21.80
 -10   2   2  306.17   28.30
 -10   2   2  263.57   25.30
   9  -2  -2  233.88   18.80
  -9   2   2  247.68   23.50
  -9   2   2  240.38   18.30
  -9   2   2  238.48   22.40
   8  -2  -2   -5.40    5.10
   8  -2  -2    8.20    6.20
  -8   2   2    7.90    8.70
   7  -2  -2  617.04   36.50
   7  -2  -2  618.14   37.40
  -7   2   2  590.14   36.40
  -7   2   2  629.54   39.00
  -7   2   2  627.24   38.50
  -7   2   2  630.24   36.40
  -7   2   2  539.85   38.90
   6  -2  -2 1939.51  114.29
   6  -2  -2 1943.51  115.09
   6  -2  -2 1985.80  114.69
  -6   2   2 2026.50  115.19
  -6   2   2 1902.71  114.19
  -6   2   2 2077.69  115.79
  -6   2   2 1839.62  115.69
  -6   2   2 1944.51  114.09
   5  -2  -2 1734.93  104.29
   5  -2  -2 1736.63  105.09
   5  -2  -2 1756.52  104.29
   5  -2  -2 1827.62  104.89
   5  -2  -2 1914.31  105.59
  -5   2   2 1755.42  104.29
  -5   2   2 1790.52  104.39
  -5   2   2 1714.23  105.59
  -5   2   2 1796.52  106.09
  -5   2   2 1900.91  105.39
   4  -2  -2  388.66   21.60
   4  -2  -2  389.16   21.80
   4  -2  -2  301.87   21.90
   4  -2  -2  351.26   20.90
   4  -2  -2  339.67   21.10
  -4   2   2  335.37   21.00
  -4   2   2  397.66   21.40
  -4   2   2  352.56   21.10
  -4   2   2  327.17   22.30
  -4   2   2  337.67   21.60
   3  -2  -2 8634.14  550.74
   3  -2  -2 9860.31  550.44
  -3   2   2 9999.00  550.54
   2  -2  -2 2490.35  151.98
   2  -2  -2 2914.01  152.08
   2  -2  -2 2913.11  152.18
   2  -2  -2 2458.95  151.88
   2  -2  -2 2874.31  152.38
  -2   2   2 2783.52  152.28
  -2   2   2 2393.36  152.28
  -2   2   2 2391.86  151.98
  -2   2   2 2352.66  151.88
   1  -2  -2  202.18   12.00
   1  -2  -2  187.18   12.20
   1  -2  -2  197.98   12.00
  -1   2   2  204.78   12.40
  -1   2   2  192.98   12.90
  -1   2   2  192.88   12.20
  -1   2   2  194.98   12.00
  -1   2   2  199.18   12.10
   0  -2  -2 1342.37   75.09
   0  -2  -2 1274.17   74.99
   0  -2  -2 1166.98   75.09
   0   2   2 1342.37   75.19
   0   2   2 1324.97   74.99
  -1  -2  -2  890.31   54.19
  -1  -2  -2  937.71   54.19
  -1  -2  -2  944.81   54.29
   1   2   2 1000.40   54.99
   1   2   2  903.81   54.09
   1   2   2  906.01   54.59
   1   2   2  922.61   54.19
   1   2   2  936.41   54.39
   1   2   2  916.81   54.29
  -2  -2  -2  538.65   31.80
  -2  -2  -2  554.74   32.10
  -2  -2  -2  520.95   31.80
  -2  -2  -2  555.04   32.70
   2   2   2  468.75   32.70
   2   2   2  529.95   31.80
   2   2   2  562.14   32.80
   2   2   2  556.34   32.40
   2   2   2  533.95   31.90
   2   2   2  557.14   32.40
   2   2   2  520.05   31.70
  -3  -2  -2  430.76   25.50
  -3  -2  -2  431.56   26.90
  -3  -2  -2  397.86   25.10
  -3  -2  -2  411.86   25.50
   3   2   2  397.96   25.10
   3   2   2  422.66   26.40
   3   2   2  400.56   25.40
   3   2   2  412.56   25.30
   3   2   2  414.26   26.30
   3   2   2  391.56   26.20
   3   2   2  447.36   26.50
  -4  -2  -2  631.24   39.20
  -4  -2  -2  678.03   41.10
  -4  -2  -2  632.34   38.90
   4   2   2  639.64   39.20
   4   2   2  696.93   40.20
   4   2   2  673.13   40.40
   4   2   2  654.43   39.20
   4   2   2  619.54   40.00
  -5  -2  -2 1861.81  108.59
  -5  -2  -2 1788.02  106.99
  -5  -2  -2 1886.31  108.99
   5   2   2 1819.52  108.29
   5   2   2 1852.51  107.79
   5   2   2 1847.52  107.99
   5   2   2 1781.62  107.49
   5   2   2 1806.22  107.19
  -6  -2  -2  283.97   21.20
  -6  -2  -2  341.57   24.90
   6   2   2  351.86   23.60
   6   2   2  270.17   21.00
  -7  -2  -2  122.69   18.60
  -7  -2  -2  111.99   17.10
  -7  -2  -2  100.69   12.40
   7   2   2  115.29   12.30
  -8  -2  -2  445.36   34.10
   8   2   2  430.26   30.90
 -10   3   2   66.09    9.70
 -10   3   2   61.49   13.50
 -10   3   2   69.69   14.90
   9  -3  -2  810.52   50.99
  -9   3   2  819.82   49.99
  -9   3   2  845.12   52.89
  -9   3   2  823.22   53.29
   8  -3  -2  673.33   41.60
  -8   3   2  635.44   40.80
  -8   3   2  686.73   43.50
  -8   3   2  688.73   42.60
   7  -3  -2    6.10    4.60
   7  -3  -2   10.90    5.60
  -7   3   2   20.60   10.50
  -7   3   2   13.50    7.20
  -7   3   2   -0.70    4.30
   6  -3  -2  233.58   16.70
   6  -3  -2  304.97   17.80
  -6   3   2  310.37   18.70
  -6   3   2  235.68   16.70
  -6   3   2  241.88   16.50
   5  -3  -2 1295.57   77.09
   5  -3  -2 1215.68   77.19
   5  -3  -2 1357.56   77.79
   5  -3  -2 1221.38   78.29
   5  -3  -2 1378.86   77.99
  -5   3   2 1436.06   78.19
  -5   3   2 1488.85   78.79
  -5   3   2 1338.57   79.49
  -5   3   2 1285.97   77.19
  -5   3   2 1224.28   77.19
   4  -3  -2 2182.68  136.99
   4  -3  -2 2505.95  137.39
   4  -3  -2 2467.55  137.19
   4  -3  -2 2244.88  137.79
   4  -3  -2 2472.55  136.89
  -4   3   2 2356.76  137.39
  -4   3   2 2371.46  136.99
  -4   3   2 2465.45  137.99
  -4   3   2 2163.98  136.89
   3  -3  -2   39.30    3.60
   3  -3  -2   34.30    3.80
   3  -3  -2   27.80    3.90
   3  -3  -2   36.90    3.90
   3  -3  -2   36.30    4.70
   3  -3  -2   33.80    4.30
  -3   3   2   34.50    5.40
  -3   3   2   31.80    4.30
  -3   3   2   25.50    5.10
  -3   3   2   35.30    4.00
   2  -3  -2 2172.18  129.89
   2  -3  -2 2558.84  130.19
   2  -3  -2 2036.00  130.19
   2  -3  -2 2329.37  130.79
   2  -3  -2 2214.08  129.89
  -2   3   2 2224.78  129.89
  -2   3   2 2103.59  129.89
  -2   3   2 2319.57  130.49
  -2   3   2 2144.49  130.09
  -2   3   2 2282.67  130.29
   1  -3  -2 6445.76  378.66
   1  -3  -2 6264.67  378.56
   1  -3  -2 7543.05  378.76
  -1   3   2 6213.38  378.46
  -1   3   2 6999.00  378.76
  -1   3   2 6679.83  378.96
  -1   3   2 5953.50  378.56
  -1   3   2 6153.18  378.46
   0  -3  -2  478.25   29.30
   0  -3  -2  491.55   29.10
   0  -3  -2  549.65   29.50
   0   3   2  486.45   29.50
   0   3   2  488.05   29.80
   0   3   2  457.45   29.10
  -1  -3  -2  724.13   40.00
  -1  -3  -2  648.84   39.50
  -1  -3  -2  668.03   39.70
  -1  -3  -2  643.64   39.40
   1   3   2  673.23   40.00
   1   3   2  707.73   40.60
   1   3   2  655.43   40.20
   1   3   2  689.33   39.90
   1   3   2  671.53   39.50
   1   3   2  633.94   39.30
   1   3   2  661.13   39.60
  -2  -3  -2 1470.25   85.49
  -2  -3  -2 1407.06   85.19
  -2  -3  -2 1442.16   85.29
  -2  -3  -2 1501.45   85.99
   2   3   2 1538.75   85.89
   2   3   2 1486.25   85.69
   2   3   2 1437.06   85.89
   2   3   2 1507.45   86.09
   2   3   2 1449.95   85.29
   2   3   2 1375.66   85.09
   2   3   2 1439.76   85.19
  -3  -3  -2 2385.96  129.99
  -3  -3  -2 2227.58  129.19
  -3  -3  -2 2070.39  128.79
  -3  -3  -2 2144.29  128.89
   3   3   2 2023.30  129.49
   3   3   2 2100.19  128.89
   3   3   2 2186.98  128.99
   3   3   2 2311.07  129.39
   3   3   2 2362.16  129.89
   3   3   2 2303.57  129.59
  -4  -3  -2  118.39   11.40
  -4  -3  -2  105.19   13.40
   4   3   2   91.19   13.50
   4   3   2   75.79   10.40
   4   3   2  113.89   13.60
   4   3   2   95.69   11.70
  -5  -3  -2  369.06   26.00
  -5  -3  -2  329.57   23.90
   5   3   2  349.07   24.50
   5   3   2  307.07   25.20
   5   3   2  317.07   21.90
  -6  -3  -2  538.65   36.80
  -6  -3  -2  559.24   34.50
  -6  -3  -2  530.05   35.10
  -6  -3  -2  589.24   39.10
   6   3   2  544.25   34.50
  -7  -3  -2  403.06   32.80
  -7  -3  -2  369.86   30.90
  -7  -3  -2  333.27   26.40
  -7  -3  -2  379.66   25.30
   7   3   2  374.56   26.40
  10  -4  -2  302.17   25.70
 -10   4   2  322.07   28.00
 -10   4   2  322.77   23.00
 -10   4   2  326.17   27.80
   9  -4  -2   15.00    8.40
  -9   4   2   33.50   12.00
  -9   4   2   28.10   11.00
  -9   4   2   17.90    6.90
   8  -4  -2  503.35   31.30
  -8   4   2  454.85   29.70
  -8   4   2  491.15   31.80
  -8   4   2  492.85   33.30
   7  -4  -2 1064.99   64.59
   7  -4  -2 1125.69   65.59
  -7   4   2 1134.29   66.79
  -7   4   2 1046.40   64.39
  -7   4   2 1041.30   64.19
  -7   4   2 1177.98   66.09
   6  -4  -2  911.01   53.69
   6  -4  -2  955.10   54.49
   6  -4  -2  899.81   54.69
   6  -4  -2  953.50   53.39
  -6   4   2 1032.70   55.99
  -6   4   2  780.82   57.19
  -6   4   2  902.21   53.59
  -6   4   2  790.12   54.39
  -6   4   2  981.70   53.49
   5  -4  -2   11.40    5.50
   5  -4  -2   20.30    4.50
   5  -4  -2   15.20    5.00
   5  -4  -2   19.50    4.60
   5  -4  -2   12.80    4.10
   5  -4  -2   16.70    2.70
  -5   4   2    8.90    5.50
  -5   4   2   19.20    3.40
  -5   4   2   12.30    3.70
  -5   4   2   12.70    5.70
  -5   4   2   14.70    4.50
   4  -4  -2 1969.30  113.39
   4  -4  -2 1889.91  113.19
   4  -4  -2 2098.89  113.69
   4  -4  -2 1927.31  113.29
   4  -4  -2 1778.82  113.99
   4  -4  -2 1891.61  113.59
   4  -4  -2 2056.09  113.09
  -4   4   2 1974.60  113.09
  -4   4   2 1889.41  113.69
  -4   4   2 1860.21  113.19
  -4   4   2 2084.49  114.29
   3  -4  -2 3527.65  205.58
   3  -4  -2 3407.56  205.58
   3  -4  -2 3868.71  206.28
   3  -4  -2 3891.21  206.08
   3  -4  -2 3457.15  206.18
  -3   4   2 3685.03  206.28
  -3   4   2 3692.13  206.28
  -3   4   2 3302.47  205.58
  -3   4   2 3292.87  205.88
  -3   4   2 3331.67  205.58
   2  -4  -2  814.52   52.89
   2  -4  -2  926.71   52.69
   2  -4  -2  931.91   52.69
   2  -4  -2  834.42   53.29
  -2   4   2  981.20   53.59
  -2   4   2  894.91   52.69
  -2   4   2  930.61   52.69
  -2   4   2  943.81   53.09
  -2   4   2  862.31   52.99
   1  -4  -2  581.04   31.20
   1  -4  -2  506.45   30.50
   1  -4  -2  537.65   30.80
   1  -4  -2  521.65   30.60
   1  -4  -2  480.45   31.40
   1  -4  -2  498.15   30.80
  -1   4   2  499.45   31.00
  -1   4   2  519.05   30.60
  -1   4   2  515.85   30.80
   0  -4  -2 1974.70  118.89
   0  -4  -2 2031.50  118.99
   0  -4  -2 1947.61  119.09
   0  -4  -2 2124.19  119.19
   0   4   2 2059.09  118.99
   0   4   2 2037.30  119.09
   0   4   2 2119.29  119.29
   0   4   2 2072.79  118.99
  -1  -4  -2 1559.34   92.49
  -1  -4  -2 1479.95   92.29
  -1  -4  -2 1476.35   92.19
   1   4   2 1514.75   92.29
   1   4   2 1521.15   92.29
   1   4   2 1687.43   93.29
   1   4   2 1765.62   93.49
   1   4   2 1574.84   92.69
   1   4   2 1657.43   92.69
  -2  -4  -2  179.08   12.30
  -2  -4  -2  172.28   13.30
  -2  -4  -2  160.48   11.90
   2   4   2  162.58   15.80
   2   4   2  163.88   12.40
   2   4   2  183.88   13.90
   2   4   2  170.48   12.60
   2   4   2  165.28   14.60
   2   4   2  174.78   15.00
  -3  -4  -2  292.97   18.90
  -3  -4  -2  313.47   21.30
   3   4   2  302.17   19.50
   3   4   2  289.27   21.50
   3   4   2  261.87   21.60
   3   4   2  313.67   20.70
  -4  -4  -2 1137.89   65.39
  -4  -4  -2 1100.99   64.19
  -4  -4  -2 1092.09   65.99
   4   4   2 1107.89   65.09
   4   4   2 1075.49   64.39
   4   4   2  996.30   65.69
  -5  -4  -2  563.64   36.90
  -5  -4  -2  536.65   33.60
  -5  -4  -2  540.35   34.40
  -5  -4  -2  554.04   35.00
   5   4   2  524.55   33.60
   5   4   2  558.54   36.20
   5   4   2  479.05   36.40
  -6  -4  -2   -4.70   12.20
  -6  -4  -2   -9.00    7.00
  -6  -4  -2    1.00    9.00
  -6  -4  -2   -3.70   10.10
   6   4   2  -11.10    8.50
  -7  -4  -2  231.58   26.50
  -7  -4  -2  196.88   23.20
   7   4   2  211.98   21.00
  10  -5  -2  196.08   18.10
 -10   5   2  185.08   17.90
 -10   5   2  214.78   23.40
 -10   5   2  234.68   22.60
   9  -5  -2  565.84   34.90
  -9   5   2  543.05   33.30
  -9   5   2  495.25   37.30
   8  -5  -2  203.98   16.00
  -8   5   2  200.08   17.10
  -8   5   2  187.88   13.80
  -8   5   2  177.28   18.10
   7  -5  -2   62.79    9.40
  -7   5   2   43.10    5.90
  -7   5   2   73.59   11.10
  -7   5   2   54.99    6.50
  -7   5   2   73.79   10.40
   6  -5  -2 1026.40   57.89
   6  -5  -2 1005.70   56.99
   6  -5  -2 1008.80   58.39
  -6   5   2  903.81   57.29
  -6   5   2  847.32   57.99
  -6   5   2 1035.40   59.39
  -6   5   2 1020.70   57.19
   5  -5  -2 1582.44   90.69
   5  -5  -2 1608.24   91.29
   5  -5  -2 1571.64   91.69
   5  -5  -2 1687.93   91.59
  -5   5   2 1532.65   91.79
  -5   5   2 1396.46   90.89
  -5   5   2 1546.95   90.79
   4  -5  -2  299.17   17.90
   4  -5  -2  332.97   19.20
   4  -5  -2  289.57   18.90
   4  -5  -2  290.97   18.40
  -4   5   2  286.97   18.40
  -4   5   2  327.37   20.00
  -4   5   2  259.57   19.50
  -4   5   2  285.67   18.10
  -4   5   2  313.67   19.60
   3  -5  -2  594.44   33.80
   3  -5  -2  530.85   34.70
   3  -5  -2  503.25   34.40
   3  -5  -2  595.04   33.80
  -3   5   2  608.84   34.00
  -3   5   2  581.74   33.90
  -3   5   2  610.34   34.70
  -3   5   2  572.54   34.50
   2  -5  -2 2505.65  163.58
   2  -5  -2 2850.11  164.38
   2  -5  -2 2723.73  163.38
   2  -5  -2 2764.82  163.38
  -2   5   2 2824.62  163.48
  -2   5   2 2742.33  163.38
  -2   5   2 3153.08  163.68
  -2   5   2 2953.30  163.88
   1  -5  -2 1289.57   71.89
   1  -5  -2 1271.77   72.19
   1  -5  -2 1208.48   71.89
   1  -5  -2 1070.89   71.59
  -1   5   2 1187.88   71.99
  -1   5   2 1292.77   71.89
  -1   5   2 1291.87   72.29
   0  -5  -2   34.40    6.10
   0  -5  -2   36.30    5.80
   0  -5  -2   33.70    5.40
   0  -5  -2   32.70    5.00
   0  -5  -2   46.50    7.60
   0   5   2   24.60    8.60
   0   5   2   38.10    6.00
   0   5   2   39.40    7.60
   0   5   2   34.80    4.70
   0   5   2   34.00    6.70
  -1  -5  -2 1210.88   72.29
  -1  -5  -2 1321.17   73.59
  -1  -5  -2 1300.67   72.89
   1   5   2 1124.39   72.69
   1   5   2 1186.78   73.99
   1   5   2 1247.88   72.39
   1   5   2 1246.98   72.59
   1   5   2 1220.18   72.89
   1   5   2 1249.47   73.69
  -2  -5  -2  914.81   51.89
  -2  -5  -2  958.00   53.19
  -2  -5  -2  775.32   52.89
   2   5   2  856.71   53.49
   2   5   2  928.21   52.09
   2   5   2  797.62   52.49
   2   5   2  906.11   52.99
  -3  -5  -2  344.27   23.70
  -3  -5  -2  356.26   21.70
  -3  -5  -2  343.57   22.40
  -3  -5  -2  312.57   22.70
   3   5   2  362.46   22.20
   3   5   2  322.17   25.50
   3   5   2  337.57   24.50
  -4  -5  -2   10.60    6.50
  -4  -5  -2   -0.90    6.60
  -4  -5  -2   10.20    8.10
   4   5   2   -2.70    9.50
   4   5   2    0.90   11.20
   4   5   2    3.80    7.30
  -5  -5  -2  519.25   32.60
  -5  -5  -2  453.85   35.90
  -5  -5  -2  506.55   33.50
  -5  -5  -2  521.05   33.40
   5   5   2  519.65   34.50
   5   5   2  478.45   35.90
   5   5   2  510.65   32.80
  -6  -5  -2  449.16   32.90
  -6  -5  -2  441.46   35.60
  -6  -5  -2  436.26   30.90
  -6  -5  -2  431.26   29.70
   6   5   2  457.65   31.40
  10  -6  -2   37.90   11.70
 -10   6   2   31.90   13.30
 -10   6   2   18.90   10.20
   9  -6  -2   85.99   12.90
  -9   6   2   82.09   13.20
  -9   6   2  101.79   17.30
   8  -6  -2  818.32   49.00
  -8   6   2  900.01   49.20
  -8   6   2  745.63   47.00
  -8   6   2  721.43   50.19
   7  -6  -2 1043.20   60.19
  -7   6   2  899.21   59.79
  -7   6   2 1103.29   58.59
  -7   6   2  959.90   58.69
   6  -6  -2   26.50    6.60
   6  -6  -2   24.50    5.70
   6  -6  -2   33.50    5.60
  -6   6   2   25.90    7.50
  -6   6   2   15.60    6.40
  -6   6   2   29.30    5.00
  -6   6   2   27.00    3.70
  -6   6   2   23.00    4.40
   5  -6  -2  211.88   13.80
   5  -6  -2  193.88   11.40
   5  -6  -2  160.58   11.30
   5  -6  -2  186.68   12.90
   5  -6  -2  170.08   13.10
  -5   6   2  169.88   14.40
  -5   6   2  189.08   11.70
  -5   6   2  180.48   12.00
  -5   6   2  193.68   15.20
  -5   6   2  188.38   14.40
  -5   6   2  168.78   11.80
   4  -6  -2 1736.13   94.39
   4  -6  -2 1546.15   94.19
   4  -6  -2 1561.44   93.29
   4  -6  -2 1716.13   94.59
  -4   6   2 1620.94   94.79
  -4   6   2 1664.33   94.39
  -4   6   2 1492.25   93.29
  -4   6   2 1568.44   94.19
  -4   6   2 1538.75   93.39
   3  -6  -2 2274.17  122.49
   3  -6  -2 2277.17  122.29
   3  -6  -2 2052.69  120.89
   3  -6  -2 2010.70  120.89
  -3   6   2 2109.09  120.99
  -3   6   2 2017.90  120.99
  -3   6   2 1837.22  121.79
  -3   6   2 2072.59  121.69
   2  -6  -2   25.10    4.40
   2  -6  -2   29.60    8.30
   2  -6  -2   34.30    5.60
   2  -6  -2   35.80    5.10
   2  -6  -2   27.80    6.00
  -2   6   2   32.80    6.70
  -2   6   2   43.70    5.90
  -2   6   2   37.20    5.80
   1  -6  -2  831.72   54.49
   1  -6  -2  944.91   54.69
   1  -6  -2  851.11   55.89
   1  -6  -2 1009.20   54.59
  -1   6   2  958.90   55.49
  -1   6   2 1001.20   54.79
  -1   6   2  899.91   56.89
  -1   6   2  967.50   54.79
  -1   6   2  908.41   54.39
   0  -6  -2 2224.68  128.79
   0  -6  -2 2273.27  128.79
   0  -6  -2 2126.39  129.99
   0  -6  -2 2220.38  129.09
   0   6   2 2137.39  130.29
   0   6   2 2180.78  129.39
   0   6   2 2291.97  128.99
   0   6   2 2232.68  128.89
  -1  -6  -2  393.96   24.40
  -1  -6  -2  403.66   24.90
  -1  -6  -2  392.26   23.70
  -1  -6  -2  323.07   25.00
   1   6   2  395.06   24.50
   1   6   2  409.66   27.10
   1   6   2  417.46   24.20
   1   6   2  321.67   24.30
   1   6   2  399.66   25.30
  -2  -6  -2  248.88   18.00
  -2  -6  -2  227.08   15.10
  -2  -6  -2  185.58   14.90
  -2  -6  -2  202.38   16.50
   2   6   2  218.88   17.60
   2   6   2  243.48   16.00
   2   6   2  218.68   19.70
  -3  -6  -2  404.36   27.40
  -3  -6  -2  402.56   25.90
  -3  -6  -2  409.96   27.00
  -3  -6  -2  407.16   25.60
   3   6   2  393.66   28.90
  -4  -6  -2  759.62   48.20
  -4  -6  -2  870.81   51.69
  -4  -6  -2  767.82   48.70
  -4  -6  -2  745.23   49.40
   4   6   2  841.32   50.99
   4   6   2  787.42   48.80
   4   6   2  797.82   51.69
  -5  -6  -2   90.69   14.90
  -5  -6  -2   86.99   13.40
  -5  -6  -2   83.69   13.40
   5   6   2   68.59   13.40
   5   6   2   97.09   15.50
 -10   7   2  597.04   42.70
   9  -7  -2  269.87   21.70
  -9   7   2  307.97   25.80
   8  -7  -2   49.30    9.90
  -8   7   2   70.39   13.00
  -8   7   2   72.19   12.50
   7  -7  -2  317.67   21.80
  -7   7   2  320.47   20.70
  -7   7   2  274.77   19.00
  -7   7   2  334.57   22.50
   6  -7  -2  617.44   40.50
   6  -7  -2  660.23   40.90
  -6   7   2  660.03   41.30
  -6   7   2  678.23   39.10
  -6   7   2  704.43   39.10
   5  -7  -2  401.16   25.50
   5  -7  -2  392.96   23.30
   5  -7  -2  423.06   23.50
   5  -7  -2  410.36   25.60
  -5   7   2  402.66   26.20
  -5   7   2  391.46   25.80
  -5   7   2  339.77   26.40
  -5   7   2  390.16   23.70
  -5   7   2  398.06   23.70
   4  -7  -2   -4.30    6.60
   4  -7  -2   -0.20    5.50
   4  -7  -2    0.30    3.50
  -4   7   2    6.80    5.90
  -4   7   2   -4.00    4.80
  -4   7   2    7.50    4.00
   3  -7  -2  597.94   32.90
   3  -7  -2  577.94   34.30
   3  -7  -2  535.45   32.90
  -3   7   2  553.74   33.10
  -3   7   2  481.75   33.30
  -3   7   2  556.14   34.20
  -3   7   2  584.84   33.00
   2  -7  -2 2099.49  128.59
  -2   7   2 2349.67  128.59
  -2   7   2 2399.06  129.39
  -2   7   2 1986.40  128.79
   1  -7  -2  273.37   17.70
   1  -7  -2  236.68   19.70
  -1   7   2  284.37   18.10
  -1   7   2  280.67   18.60
  -1   7   2  316.87   21.80
  -1   7   2  317.57   19.90
   0  -7  -2  624.94   41.20
   0  -7  -2  768.92   43.60
   0  -7  -2  706.93   41.60
   0  -7  -2  720.43   42.10
   0   7   2  748.33   42.00
   0   7   2  684.73   42.20
   0   7   2  588.44   41.90
   0   7   2  745.43   43.00
   0   7   2  720.23   44.70
  -1  -7  -2 1024.60   61.49
  -1  -7  -2  908.41   62.29
  -1  -7  -2 1187.78   63.59
   1   7   2  924.31   62.09
   1   7   2 1097.79   62.69
   1   7   2 1078.89   61.79
   1   7   2 1076.39   64.19
  -2  -7  -2  469.95   31.30
  -2  -7  -2  495.75   31.50
  -2  -7  -2  454.05   32.80
   2   7   2  556.54   36.50
   2   7   2  525.85   33.00
   2   7   2  594.64   34.80
  -3  -7  -2   13.30    7.70
  -3  -7  -2   20.20    9.30
  -3  -7  -2   15.80    5.90
  -3  -7  -2   11.30    7.80
   3   7   2   12.00    8.10
   3   7   2   23.60   12.10
  -4  -7  -2  175.58   21.20
  -4  -7  -2  217.28   17.20
  -4  -7  -2  172.68   17.90
   4   7   2  196.58   21.50
   4   7   2  186.18   26.40
   4   7   2  200.38   18.40
  -5  -7  -2  173.28   20.10
  -5  -7  -2  171.38   16.00
  -5  -7  -2  151.38   23.40
   5   7   2  133.39   18.80
   9  -8  -2  266.67   22.30
  -9   8   2  317.97   26.20
  -9   8   2  278.57   27.10
   8  -8  -2  612.24   40.00
  -8   8   2  610.84   40.70
  -8   8   2  660.23   42.30
   7  -8  -2  239.58   17.60
   7  -8  -2  248.38   18.80
  -7   8   2  201.88   18.90
  -7   8   2  283.47   20.10
   6  -8  -2  167.88   14.50
   6  -8  -2  148.79   13.70
  -6   8   2  154.08   16.20
  -6   8   2  177.58   10.50
  -6   8   2  137.99   14.50
   5  -8  -2 1450.75   82.39
   5  -8  -2 1346.37   81.89
  -5   8   2 1321.67   81.59
  -5   8   2 1414.66   81.69
  -5   8   2 1359.76   80.29
  -5   8   2 1376.66   80.39
   4  -8  -2  852.01   46.30
   4  -8  -2  722.43   45.40
  -4   8   2  706.23   43.80
  -4   8   2  692.53   44.60
  -4   8   2  752.62   45.40
   3  -8  -2   49.60    8.60
   3  -8  -2   39.40    5.20
   3  -8  -2   33.80    7.20
  -3   8   2   48.10    7.40
  -3   8   2   44.10    6.30
  -3   8   2   24.90    5.70
   2  -8  -2  350.76   22.50
   2  -8  -2  390.16   25.10
  -2   8   2  358.76   23.30
  -2   8   2  386.66   22.80
  -2   8   2  360.66   25.40
  -2   8   2  358.36   27.60
   1  -8  -2  812.02   57.69
   1  -8  -2  978.60   55.99
  -1   8   2  991.50   57.19
  -1   8   2  962.00   59.19
  -1   8   2 1020.90   56.29
  -1   8   2  924.41   56.49
   0  -8  -2  550.44   33.10
   0  -8  -2  513.75   33.60
   0   8   2  582.04   37.50
  -1  -8  -2    5.50    7.60
  -1  -8  -2    0.20    5.60
  -1  -8  -2    3.30    6.30
   1   8   2   -1.50    9.50
   1   8   2    7.00    6.60
  -2  -8  -2  387.96   28.00
  -2  -8  -2  382.06   28.70
   2   8   2  413.06   30.20
   2   8   2  392.46   33.10
   2   8   2  470.15   27.60
  -3  -8  -2  532.15   37.80
  -3  -8  -2  572.04   34.70
  -3  -8  -2  472.65   36.10
   3   8   2  584.74   35.40
   3   8   2  558.64   38.80
   3   8   2  506.45   42.50
  -4  -8  -2  144.99   17.60
  -4  -8  -2  143.19   25.00
  -4  -8  -2  143.29   17.60
   4   8   2  109.79   17.00
   4   8   2  128.79   17.40
   4   8   2  131.69   24.50
   9  -9  -2   60.09   11.30
  -9   9   2   53.19   13.50
   8  -9  -2   81.49   13.60
  -8   9   2   85.49   15.00
  -8   9   2   68.39   13.80
   7  -9  -2  550.94   38.00
  -7   9   2  561.24   37.80
  -7   9   2  671.83   39.70
   6  -9  -2  453.45   27.80
   6  -9  -2  368.26   27.80
  -6   9   2  377.36   27.40
  -6   9   2  444.26   28.50
   5  -9  -2    1.40    8.70
   5  -9  -2    8.20    6.30
  -5   9   2   -2.80    9.70
  -5   9   2    8.70    3.10
   4  -9  -2  213.78   19.40
   4  -9  -2  256.77   18.70
  -4   9   2  247.78   15.50
   3  -9  -2  902.71   50.89
   3  -9  -2  758.52   53.79
  -3   9   2  928.31   51.09
   2  -9  -2  344.27   26.60
   2  -9  -2  341.97   21.40
  -2   9   2  354.96   32.10
   1  -9  -2    4.80    7.80
   1  -9  -2    5.20    4.80
  -1   9   2    9.40    5.50
  -1   9   2    3.80    9.80
  -1   9   2    5.10   12.60
   0  -9  -2  519.05   30.80
   0  -9  -2  434.26   33.40
   0   9   2  563.14   31.70
   0   9   2  520.85   34.00
   0   9   2  459.75   37.60
  -1  -9  -2  516.15   38.60
  -1  -9  -2  623.44   36.60
  -1  -9  -2  634.84   39.40
   1   9   2  550.74   43.10
   1   9   2  653.43   37.50
   1   9   2  577.74   39.70
  -2  -9  -2   16.90    8.40
  -2  -9  -2   32.20    9.90
   2   9   2   11.80   13.00
   2   9   2   27.90    9.30
   2   9   2   23.20   18.70
  -3  -9  -2   36.40   10.10
   3   9   2   35.70   23.80
   3   9   2   40.20   11.60
   3   9   2   33.80   14.30
   8 -10  -2   99.69   14.80
  -8  10   2  125.99   17.00
   7 -10  -2   16.50   10.80
   7 -10  -2    7.90   10.80
  -7  10   2   13.00   11.90
   6 -10  -2  359.66   28.00
   6 -10  -2  369.66   27.40
  -6  10   2  421.56   29.90
  -6  10   2  401.86   32.50
   5 -10  -2  471.85   30.80
   5 -10  -2  351.66   29.00
  -5  10   2  444.56   25.90
  -5  10   2  414.86   34.10
  -5  10   2  455.25   30.50
   4 -10  -2  130.99   16.00
  -4  10   2  104.39   17.90
  -4  10   2   97.99   16.40
   3 -10  -2    3.30    9.50
  -3  10   2   -3.60   10.60
  -3  10   2    0.20    5.50
  -3  10   2  -13.00   15.40
   2 -10  -2  542.45   38.50
  -2  10   2  643.04   35.50
  -2  10   2  542.55   42.40
  -2  10   2  572.84   38.10
   1 -10  -2  889.41   53.99
  -1  10   2  878.01   51.09
  -1  10   2  779.42   55.59
  -1  10   2  827.02   53.19
   0 -10  -2   42.30   10.80
   0  10   2   39.30   12.50
   0  10   2   45.90   19.40
   0  10   2   31.10    8.70
  -1 -10  -2  146.09   17.70
   1  10   2  125.49   15.50
   1  10   2  132.59   23.60
   1  10   2  110.59   16.00
   7 -11  -2  211.18   21.60
   7 -11  -2  163.48   18.80
  -7  11   2  256.57   29.20
  -7  11   2  220.08   29.30
   6 -11  -2  117.49   16.80
   6 -11  -2  182.48   20.20
  -6  11   2  150.48   27.60
  -6  11   2  169.48   21.60
   5 -11  -2   63.69   13.00
  -5  11   2   57.69   13.60
  -5  11   2   93.39    8.70
  -5  11   2   72.29   19.40
   4 -11  -2  910.11   53.49
  -4  11   2  749.62   56.29
  -4  11   2  827.12   49.30
  -4  11   2  814.62   52.69
   3 -11  -2  188.48   19.30
  -3  11   2  165.98   21.30
  -3  11   2  178.88   14.30
  -3  11   2  150.28   27.60
   2 -11  -2   22.20   12.80
  -2  11   2   28.30    7.90
  -2  11   2   44.10   19.70
  -2  11   2   23.70   13.20
   1 -11  -2  120.79   18.30
  -1  11   2  151.08   25.90
  -1  11   2  148.59   20.90
   0 -11  -2  369.36   30.50
   0  11   2  398.06   28.70
   0  11   2  460.75   37.10
   0  11   2  414.76   37.90
   5 -12  -2  147.39   19.50
  -5  12   2  122.59   18.60
  -5  12   2  116.89   22.50
   4 -12  -2   12.00   12.30
  -4  12   2  -13.10   13.60
  -4  12   2   10.80    6.40
  -4  12   2   -4.10   19.20
   3 -12  -2  286.37   25.60
  -3  12   2  253.27   27.40
  -3  12   2  250.07   19.40
  -1  12  -3  379.16   30.90
  -1  12  -3  406.36   25.00
  -1  12  -3  364.46   36.20
  -1  12  -3  387.86   30.50
   1 -12   3  304.37   28.40
  -2  12  -3  292.47   20.30
  -2  12  -3  260.37   26.10
  -2  12  -3  301.87   27.00
  -2  12  -3  310.07   32.90
   2 -12   3  272.67   25.00
  -3  12  -3   91.19   13.30
  -3  12  -3   86.89   21.90
   3 -12   3   88.79   17.40
  -4  12  -3  262.17   23.50
  -4  12  -3  285.37   27.90
  -4  12  -3  277.47   31.80
   4 -12   3  295.57   25.00
  -5  12  -3  335.87   30.20
  -5  12  -3  308.07   35.60
  -2 -11   3  239.08   21.50
   1  11  -3  422.36   34.70
   1  11  -3  438.26   38.80
   1  11  -3  478.75   30.70
   1  11  -3  468.75   36.20
  -1 -11   3  544.45   35.00
   0  11  -3  201.98   20.80
   0  11  -3  208.08   27.60
   0  11  -3  221.68   22.00
   0  11  -3  169.18   15.80
   0 -11   3  178.68   19.90
  -1  11  -3  122.29   11.80
  -1  11  -3  100.09   18.00
  -1  11  -3  111.69   16.50
  -1  11  -3  147.59   26.10
   1 -11   3   92.79   16.20
  -2  11  -3  546.65   39.90
  -2  11  -3  635.54   44.10
  -2  11  -3  619.24   36.30
  -2  11  -3  596.74   39.20
   2 -11   3  593.44   40.40
  -3  11  -3  389.16   32.80
  -3  11  -3  410.16   29.60
  -3  11  -3  343.27   30.60
   3 -11   3  396.16   28.90
   3 -11   3  370.46   27.70
  -4  11  -3   30.40   11.50
  -4  11  -3   29.30   15.10
   4 -11   3   10.50    9.20
   4 -11   3   20.70   10.80
  -5  11  -3  143.29   20.30
  -5  11  -3  128.19   18.30
  -5  11  -3  116.29   23.20
   5 -11   3  155.18   15.20
  -6  11  -3  346.57   31.00
  -6  11  -3  297.27   27.00
   6 -11   3  313.07   22.70
   3  10  -3  226.58   19.70
   3  10  -3  229.68   30.00
   3  10  -3  252.27   26.80
   3  10  -3  202.48   23.40
  -3 -10   3  229.68   22.50
  -3 -10   3  244.28   21.00
   2  10  -3   43.10    7.70
   2  10  -3   53.19   14.30
   2  10  -3   58.69   18.40
   2  10  -3   34.10   10.80
  -2 -10   3   43.50    9.20
  -2 -10   3   43.00   10.40
   1  10  -3  156.18   26.30
   1  10  -3  168.78   13.90
   1  10  -3  145.49   20.30
   1  10  -3  144.29   18.60
  -1 -10   3  148.39   17.50
  -1 -10   3  139.69   14.70
   0  10  -3  685.63   40.40
   0  10  -3  652.23   38.00
   0  10  -3  629.84   43.70
   0 -10   3  560.34   40.40
   0 -10   3  592.14   38.60
  -1  10  -3  379.96   29.20
  -1  10  -3  469.75   33.20
  -1  10  -3  441.36   29.80
   1 -10   3  385.06   28.60
   1 -10   3  346.17   26.00
  -2  10  -3   28.80    4.50
   2 -10   3   41.80   10.10
   2 -10   3   26.50    7.60
  -3  10  -3  473.65   33.70
  -3  10  -3  463.05   29.40
  -3  10  -3  455.35   31.80
   3 -10   3  465.25   31.60
   3 -10   3  427.26   29.10
  -4  10  -3  727.33   51.59
  -4  10  -3  775.32   44.70
  -4  10  -3  740.13   47.00
  -4  10  -3  726.93   45.40
   4 -10   3  663.03   46.80
   4 -10   3  761.02   44.70
  -5  10  -3  134.29   13.40
  -5  10  -3  150.18   15.10
  -5  10  -3  146.19   17.60
   5 -10   3  126.29   14.00
  -6  10  -3   15.80    7.70
  -6  10  -3    1.80   13.50
   6 -10   3    5.30    8.30
   7 -10   3  422.06   28.70
   4   9  -3    9.80   11.70
   4   9  -3   -2.00   20.20
   4   9  -3   -4.70    7.50
  -4  -9   3    0.40    8.70
  -4  -9   3   -4.50    8.30
   3   9  -3  257.07   30.90
   3   9  -3  204.68   20.80
   3   9  -3  252.17   22.00
   3   9  -3  216.98   17.00
  -3  -9   3  178.08   16.80
  -3  -9   3  213.28   17.90
  -3  -9   3  221.98   18.60
   2   9  -3  667.63   45.50
   2   9  -3  588.94   37.80
   2   9  -3  641.84   40.20
   2   9  -3  640.34   41.10
  -2  -9   3  586.54   37.80
  -2  -9   3  612.34   39.80
  -2  -9   3  608.94   38.60
   1   9  -3  516.05   31.60
   1   9  -3  566.84   38.50
  -1  -9   3  480.55   33.60
  -1  -9   3  508.45   31.40
  -1  -9   3  497.25   32.10
   0   9  -3   16.60    6.70
   0   9  -3   40.90   14.10
   0   9  -3    0.20    5.40
   0  -9   3    0.10    8.20
   0  -9   3   12.30    6.20
   0  -9   3    3.40    4.50
  -1   9  -3  494.65   31.90
  -1   9  -3  544.25   37.50
  -1   9  -3  507.45   30.40
   1  -9   3  505.55   30.40
   1  -9   3  485.95   31.30
  -2   9  -3 1573.54   88.79
  -2   9  -3 1543.05   91.59
  -2   9  -3 1513.25   91.19
  -2   9  -3 1521.35   89.69
   2  -9   3 1461.35   89.29
  -3   9  -3  404.26   27.40
  -3   9  -3  411.46   25.80
  -3   9  -3  416.56   28.80
   3  -9   3  380.16   25.60
  -4   9  -3  237.28   20.00
  -4   9  -3  213.78   17.40
  -4   9  -3  206.28   17.20
  -4   9  -3  236.98   15.90
  -4   9  -3  187.28   15.10
   4  -9   3  219.98   16.20
  -5   9  -3  786.72   46.10
  -5   9  -3  758.62   47.20
  -5   9  -3  768.02   47.80
  -5   9  -3  795.52   48.50
  -5   9  -3  685.73   46.60
   5  -9   3  801.02   46.60
  -6   9  -3  411.86   27.80
  -6   9  -3  408.76   26.00
  -6   9  -3  463.95   28.70
  -6   9  -3  365.66   26.90
  -6   9  -3  387.66   27.90
   6  -9   3  328.57   26.10
   6  -9   3  440.16   27.20
  -7   9  -3   19.10    9.80
  -7   9  -3   12.70   18.00
  -7   9  -3    2.60   11.00
   7  -9   3   13.90    9.60
   7  -9   3    2.80   10.40
  -8   9  -3   57.99   14.90
   8  -9   3   41.60   14.10
   8  -9   3   84.49   13.70
   5   8  -3  254.67   26.40
   5   8  -3  267.17   21.60
   5   8  -3  302.37   26.50
   5   8  -3  294.37   36.40
  -5  -8   3  297.77   27.60
  -5  -8   3  285.47   22.30
  -5  -8   3  285.97   22.20
   4   8  -3  918.71   56.19
   4   8  -3  952.60   62.79
   4   8  -3  995.60   58.99
   4   8  -3  858.81   58.19
  -4  -8   3  960.90   57.69
  -4  -8   3  852.71   55.99
  -4  -8   3  985.20   59.19
   3   8  -3  301.87   29.30
   3   8  -3  267.47   21.30
   3   8  -3  229.18   18.60
   3   8  -3  266.17   22.80
  -3  -8   3  235.48   17.80
   2   8  -3  145.59   12.70
   2   8  -3  192.58   22.20
   2   8  -3  162.68   14.70
  -2  -8   3  158.58   12.50
  -2  -8   3  146.59   13.00
  -2  -8   3  122.49   13.10
   1   8  -3  968.10   55.09
   1   8  -3  934.11   58.69
   1   8  -3  854.91   55.29
   1   8  -3  945.31   56.09
  -1  -8   3  939.61   56.79
  -1  -8   3  966.90   55.09
  -1  -8   3  902.81   55.29
   0   8  -3  562.64   38.60
   0   8  -3  585.24   36.90
   0   8  -3  564.84   36.10
   0   8  -3  706.33   40.40
   0   8  -3  616.54   36.10
   0  -8   3  627.04   38.10
   0  -8   3  564.14   36.50
  -1   8  -3   98.89    8.80
  -1   8  -3  120.99   12.40
  -1   8  -3  118.29    8.70
  -1   8  -3  134.89   11.60
   1  -8   3   98.69    9.90
   1  -8   3   92.89   11.30
   1  -8   3  107.89    8.50
  -2   8  -3   81.29    6.90
  -2   8  -3  101.89   12.30
  -2   8  -3   75.79   11.30
  -2   8  -3   94.29    7.20
  -2   8  -3   98.29   14.20
  -2   8  -3  103.39   10.70
   2  -8   3   98.79   10.30
   2  -8   3   93.69    6.90
   2  -8   3   92.29   10.70
   2  -8   3   72.29    7.40
  -3   8  -3 1121.19   62.09
  -3   8  -3 1069.29   62.39
  -3   8  -3  921.81   60.69
  -3   8  -3 1023.00   60.49
   3  -8   3 1018.80   60.49
   3  -8   3  977.40   61.89
  -4   8  -3  848.22   51.79
  -4   8  -3  842.42   52.59
  -4   8  -3  943.01   53.29
  -4   8  -3  877.21   52.29
  -4   8  -3  874.81   51.39
   4  -8   3  860.41   53.09
   4  -8   3  827.12   51.49
   4  -8   3  820.92   51.39
  -5   8  -3   37.40    8.30
  -5   8  -3   25.90    8.40
  -5   8  -3   27.30    7.40
  -5   8  -3    9.50    7.50
  -5   8  -3   23.60    5.80
   5  -8   3   20.60    8.60
   5  -8   3    8.40    7.30
  -6   8  -3  259.57   21.50
  -6   8  -3  289.57   19.50
  -6   8  -3  285.77   21.50
  -6   8  -3  278.97   21.10
  -6   8  -3  292.37   22.00
   6  -8   3  329.27   20.30
   6  -8   3  257.77   20.40
  -7   8  -3  616.64   38.60
  -7   8  -3  662.53   42.70
   7  -8   3  711.93   40.40
   7  -8   3  532.95   39.70
  -8   8  -3  167.68   24.10
  -8   8  -3  154.28   20.40
   8  -8   3  131.69   16.00
   6   7  -3  406.76   27.60
   6   7  -3  353.26   44.10
  -6  -7   3  413.46   31.70
  -6  -7   3  387.26   27.80
   5   7  -3  166.08   20.40
   5   7  -3  149.69   19.00
   5   7  -3  138.29   27.80
   5   7  -3  147.79   15.00
  -5  -7   3  168.28   19.30
  -5  -7   3  164.98   15.00
   4   7  -3   56.29   16.50
   4   7  -3   81.79   12.10
   4   7  -3   77.59   10.70
  -4  -7   3   62.09   10.30
  -4  -7   3   77.49   10.10
  -4  -7   3   89.99   15.20
  -4  -7   3   76.59    9.60
   3   7  -3 1290.87   81.69
   3   7  -3 1345.97   81.19
  -3  -7   3 1420.86   81.39
  -3  -7   3 1306.47   80.09
  -3  -7   3 1455.35   81.99
  -3  -7   3 1355.56   80.09
   2   7  -3  944.01   55.09
   2   7  -3  863.31   54.59
   2   7  -3 1031.40   58.09
   2   7  -3  927.61   54.29
  -2  -7   3  938.81   54.39
  -2  -7   3  834.52   55.39
  -2  -7   3  889.31   53.89
   1   7  -3   95.79   11.40
   1   7  -3   81.89    8.00
   1   7  -3  106.09   11.50
   1   7  -3   87.59    9.00
  -1  -7   3   80.79    7.90
  -1  -7   3   68.69    9.50
  -1  -7   3   76.09    8.90
   0   7  -3  492.05   32.60
   0   7  -3  534.05   32.30
   0   7  -3  581.54   34.80
   0   7  -3  549.65   31.30
   0  -7   3  539.05   31.10
   0  -7   3  477.25   32.10
   0  -7   3  560.94   33.10
   0  -7   3  451.85   32.30
  -1   7  -3 2265.17  128.79
  -1   7  -3 2217.28  128.79
  -1   7  -3 2429.56  130.69
  -1   7  -3 2164.78  129.29
  -1   7  -3 2324.07  130.79
   1  -7   3 2106.59  129.19
   1  -7   3 1956.50  130.29
   1  -7   3 2265.37  128.79
  -2   7  -3  776.72   47.20
  -2   7  -3  796.42   46.50
  -2   7  -3  863.01   48.40
  -2   7  -3  767.82   45.80
  -2   7  -3  707.73   46.30
  -2   7  -3  885.41   48.20
  -2   7  -3  730.83   45.70
   2  -7   3  758.12   47.90
   2  -7   3  774.32   46.60
  -3   7  -3    4.50    6.50
  -3   7  -3   11.10    7.50
  -3   7  -3   10.80    4.60
  -3   7  -3    6.80    4.10
   3  -7   3    2.20    5.30
   3  -7   3    4.00    5.40
   3  -7   3    8.30    6.10
  -4   7  -3  725.53   49.60
  -4   7  -3  806.02   50.19
  -4   7  -3  863.51   49.90
  -4   7  -3  874.31   50.39
  -4   7  -3  838.82   48.80
   4  -7   3  844.32   49.20
  -5   7  -3 1198.68   71.29
  -5   7  -3 1178.58   71.19
  -5   7  -3 1237.78   71.49
  -5   7  -3 1183.48   70.29
   5  -7   3 1232.78   70.89
   5  -7   3 1135.09   70.39
  -6   7  -3  149.69   14.90
  -6   7  -3  154.28   16.40
  -6   7  -3  149.19   12.80
  -6   7  -3  139.79   14.30
  -6   7  -3  152.88   13.70
   6  -7   3  166.58   15.00
   6  -7   3  137.79   13.20
  -7   7  -3   17.90   10.80
  -7   7  -3   26.50    7.30
   7  -7   3   13.60    8.60
   7  -7   3   22.80    8.90
  -8   7  -3  405.86   30.50
  -8   7  -3  330.27   29.70
   7   6  -3   20.90    9.10
   7   6  -3    7.50   23.20
  -7  -6   3   11.40    8.30
  -7  -6   3   15.60   11.10
   6   6  -3  127.09   20.70
   6   6  -3  117.29   13.80
   6   6  -3   91.79   18.10
  -6  -6   3   81.89   12.60
  -6  -6   3  127.29   17.80
  -6  -6   3   90.49   13.00
  -6  -6   3  109.59   11.00
   5   6  -3  861.71   51.19
   5   6  -3  747.53   50.49
   5   6  -3  811.52   49.50
   5   6  -3  841.62   55.49
  -5  -6   3  782.52   49.70
  -5  -6   3  859.81   51.69
  -5  -6   3  864.21   49.90
  -5  -6   3  763.12   49.70
   4   6  -3  887.01   54.39
   4   6  -3  869.01   56.09
   4   6  -3  858.91   53.59
  -4  -6   3  880.41   52.99
  -4  -6   3  943.01   54.19
  -4  -6   3  828.32   52.09
  -4  -6   3  864.71   52.79
   3   6  -3   49.70   10.50
   3   6  -3   36.10    7.00
   3   6  -3   52.99   11.40
   3   6  -3   39.60    5.40
  -3  -6   3   36.40    6.20
  -3  -6   3   26.30    5.90
  -3  -6   3   60.59   11.00
  -3  -6   3   39.20    6.40
   2   6  -3  415.06   25.60
   2   6  -3  415.56   25.40
   2   6  -3  435.06   26.90
   2   6  -3  426.26   28.90
  -2  -6   3  410.16   25.30
  -2  -6   3  429.66   26.50
  -2  -6   3  374.66   25.40
   1   6  -3 1407.96   86.49
   1   6  -3 1454.75   86.59
   1   6  -3 1546.75   88.69
   1   6  -3 1427.86   87.59
   1   6  -3 1454.65   86.99
   1   6  -3 1532.55   87.59
  -1  -6   3 1430.16   86.99
  -1  -6   3 1613.94   87.89
  -1  -6   3 1462.45   86.49
   0   6  -3  842.32   47.20
   0   6  -3  746.53   46.80
   0   6  -3  824.02   47.10
   0   6  -3  717.13   48.10
   0   6  -3  756.12   48.50
   0   6  -3  827.72   47.70
   0   6  -3  879.61   49.60
   0  -6   3  835.32   48.60
   0  -6   3  828.02   47.00
   0  -6   3  760.52   47.10
   0  -6   3  766.32   47.50
   0  -6   3  750.72   47.30
   0  -6   3  888.11   49.70
  -1   6  -3   24.20    5.20
  -1   6  -3   20.10    6.30
  -1   6  -3   21.10    6.20
  -1   6  -3   25.00    3.40
  -1   6  -3   24.60    7.70
  -1   6  -3   27.20    4.90
  -1   6  -3   24.30    3.10
   1  -6   3   20.60    5.70
   1  -6   3   32.40    4.90
   1  -6   3   22.50    3.00
   1  -6   3   30.30    4.50
   1  -6   3   25.60    4.30
  -2   6  -3  547.85   32.10
  -2   6  -3  569.64   32.00
  -2   6  -3  567.04   34.00
  -2   6  -3  546.85   34.60
  -2   6  -3  581.94   34.40
  -2   6  -3  550.54   32.70
   2  -6   3  471.85   35.00
   2  -6   3  525.35   34.10
  -3   6  -3 2235.28  141.39
  -3   6  -3 2551.14  141.79
  -3   6  -3 2312.27  140.49
   3  -6   3 2400.86  140.89
   3  -6   3 2585.04  142.09
  -4   6  -3  411.16   25.20
  -4   6  -3  404.46   25.20
  -4   6  -3  363.06   25.30
  -4   6  -3  373.96   23.70
   4  -6   3  385.26   24.60
  -5   6  -3  553.44   33.70
  -5   6  -3  553.24   34.10
  -5   6  -3  487.55   33.90
  -5   6  -3  527.75   33.20
  -5   6  -3  541.85   32.60
   5  -6   3  567.74   33.60
   5  -6   3  537.25   32.80
  -6   6  -3  849.32   50.59
  -6   6  -3  754.72   49.30
  -6   6  -3  804.52   49.10
  -6   6  -3  821.32   50.19
   6  -6   3  787.62   49.00
   6  -6   3  860.31   49.60
  -7   6  -3  438.56   39.50
  -7   6  -3  362.26   26.70
   7  -6   3  338.17   24.50
   7  -6   3  301.57   23.80
  -8   6  -3    5.70   15.30
  -8   6  -3   -2.60   12.90
   8  -6   3   31.80    9.70
   8  -6   3  -13.40   11.50
  -9   6  -3  118.49   24.40
  -9   6  -3  100.69   20.40
   9  -6   3   88.49   13.10
   9  -6   3  122.19   19.60
   7   5  -3  444.26   29.80
   7   5  -3  442.06   30.80
   7   5  -3  450.05   40.80
  -7  -5   3  472.15   34.00
  -7  -5   3  451.45   32.30
  -7  -5   3  468.55   30.10
   6   5  -3  397.96   26.40
   6   5  -3  367.86   27.00
   6   5  -3  379.36   34.70
  -6  -5   3  419.86   26.20
  -6  -5   3  398.76   25.60
  -6  -5   3  390.76   26.50
  -6  -5   3  430.66   29.60
   5   5  -3    6.50   12.30
   5   5  -3    3.10    7.40
   5   5  -3    5.50    5.80
  -5  -5   3    5.60    4.90
  -5  -5   3    8.90    5.20
  -5  -5   3    9.00    6.10
   4   5  -3  625.74   40.50
   4   5  -3  666.73   41.80
   4   5  -3  718.03   44.60
   4   5  -3  684.03   41.40
  -4  -5   3  628.64   40.50
  -4  -5   3  665.53   40.90
  -4  -5   3  743.03   42.30
  -4  -5   3  666.53   41.10
   3   5  -3 3689.83  223.78
   3   5  -3 4030.80  225.68
   3   5  -3 3664.83  223.78
   3   5  -3 3907.51  224.78
   3   5  -3 3720.53  224.08
  -3  -5   3 4048.09  224.18
  -3  -5   3 4219.28  225.08
  -3  -5   3 3569.74  224.38
  -3  -5   3 3805.32  223.78
   2   5  -3  533.35   33.10
   2   5  -3  546.35   33.70
   2   5  -3  603.04   36.00
   2   5  -3  529.25   32.30
   2   5  -3  543.95   32.30
   2   5  -3  558.64   33.70
   2   5  -3  512.35   33.00
  -2  -5   3  562.64   33.80
  -2  -5   3  476.45   32.90
  -2  -5   3  583.34   35.40
  -2  -5   3  539.45   32.30
  -2  -5   3  521.65   32.40
  -2  -5   3  501.85   33.10
   1   5  -3 1926.31  111.09
   1   5  -3 1945.81  111.09
   1   5  -3 1969.10  111.09
   1   5  -3 1985.20  111.89
   1   5  -3 1833.52  111.29
   1   5  -3 1765.22  112.49
   1   5  -3 1763.12  111.89
   1   5  -3 1946.91  112.19
  -1  -5   3 1963.00  111.19
  -1  -5   3 1836.52  112.39
  -1  -5   3 1915.91  111.99
  -1  -5   3 2048.79  111.29
  -1  -5   3 1827.62  111.29
  -1  -5   3 1977.30  111.09
   0   5  -3 1677.13   96.09
   0   5  -3 1741.43   94.89
   0   5  -3 1512.85   94.89
   0   5  -3 1834.72   96.09
   0   5  -3 1582.64   95.09
   0   5  -3 1579.94   96.19
   0   5  -3 1576.24   95.59
   0   5  -3 1684.73   94.89
   0  -5   3 1615.24   96.19
   0  -5   3 1436.86   95.79
   0  -5   3 1587.24   95.09
   0  -5   3 1557.74   94.99
   0  -5   3 1717.03   94.89
   0  -5   3 1725.53   94.89
  -1   5  -3 1753.82   93.59
  -1   5  -3 1627.64   92.09
  -1   5  -3 1712.13   93.49
  -1   5  -3 1417.46   93.19
  -1   5  -3 1509.05   92.29
  -1   5  -3 1500.75   92.49
  -1   5  -3 1728.23   92.09
   1  -5   3 1429.76   92.19
   1  -5   3 1537.45   92.39
   1  -5   3 1539.05   93.39
   1  -5   3 1680.53   92.09
  -2   5  -3   72.09    9.80
  -2   5  -3   72.99    4.70
  -2   5  -3   50.09    7.50
  -2   5  -3   67.39    8.40
  -2   5  -3   62.89    4.90
   2  -5   3   67.39    8.30
   2  -5   3   57.09    7.00
  -3   5  -3  425.36   26.10
  -3   5  -3  391.36   25.90
  -3   5  -3  430.66   26.30
  -3   5  -3  391.46   24.70
   3  -5   3  420.56   25.60
  -4   5  -3 1211.68   69.99
  -4   5  -3 1161.98   68.79
  -4   5  -3 1237.88   69.39
  -4   5  -3 1282.57   69.89
  -4   5  -3  996.40   69.79
   4  -5   3 1148.19   68.89
   4  -5   3 1191.18   69.39
  -5   5  -3 1851.51  106.99
  -5   5  -3 1946.01  107.59
   5  -5   3 1772.82  106.69
   5  -5   3 1705.63  106.39
  -6   5  -3   37.20    8.30
  -6   5  -3   24.20    8.40
  -6   5  -3   13.30    5.50
  -6   5  -3   21.50    8.30
   6  -5   3   18.60    6.40
   6  -5   3    7.50    7.10
  -7   5  -3  647.44   42.60
  -7   5  -3  593.54   40.80
   7  -5   3  617.34   38.70
   7  -5   3  601.64   38.30
  -8   5  -3  469.65   28.20
  -8   5  -3  477.95   35.20
  -8   5  -3  487.85   35.70
   8  -5   3  448.06   31.20
   8  -5   3  468.15   33.00
  -9   5  -3  186.28   22.70
  -9   5  -3  202.38   27.10
   9  -5   3  208.28   20.20
   9  -5   3  168.58   16.60
   8   4  -3  112.99   16.90
   8   4  -3  120.69   23.90
  -8  -4   3  150.08   14.50
  -8  -4   3  112.69   16.90
  -8  -4   3  100.29   19.70
   7   4  -3    9.40    6.40
   7   4  -3    8.70    7.10
   7   4  -3   30.60   18.70
  -7  -4   3   13.40   10.50
  -7  -4   3    2.20    6.80
  -7  -4   3   17.20    9.50
   6   4  -3  774.52   49.99
   6   4  -3  886.01   54.79
   6   4  -3  754.22   49.99
  -6  -4   3  836.12   50.39
  -6  -4   3  780.12   49.90
  -6  -4   3  899.11   52.09
  -6  -4   3  827.92   49.20
   5   4  -3 1216.68   78.29
   5   4  -3 1323.27   80.79
   5   4  -3 1310.67   77.79
  -5  -4   3 1400.16   79.49
  -5  -4   3 1315.87   78.69
  -5  -4   3 1302.37   77.59
  -5  -4   3 1366.36   77.89
   4   4  -3  303.37   21.60
   4   4  -3  368.16   26.20
   4   4  -3  312.47   20.90
   4   4  -3  310.07   22.60
  -4  -4   3  333.97   21.00
  -4  -4   3  310.07   20.80
  -4  -4   3  349.87   23.00
  -4  -4   3  343.17   21.70
   3   4  -3  373.46   22.00
   3   4  -3  342.07   21.30
   3   4  -3  336.47   25.70
   3   4  -3  347.27   21.60
   3   4  -3  365.66   23.10
   3   4  -3  338.07   22.20
   3   4  -3  324.87   22.40
  -3  -4   3  326.87   21.40
  -3  -4   3  367.36   21.90
  -3  -4   3  312.77   24.10
  -3  -4   3  305.17   22.70
  -3  -4   3  367.46   23.30
  -3  -4   3  349.27   21.70
  -3  -4   3  360.26   22.00
   2   4  -3 3036.00  182.58
   2   4  -3 3171.68  181.28
   2   4  -3 2874.41  181.48
   2   4  -3 3328.17  181.88
   2   4  -3 3303.87  181.68
   2   4  -3 3162.58  182.18
   2   4  -3 3075.29  181.28
   2   4  -3 3226.68  182.08
  -2  -4   3 2917.01  181.88
  -2  -4   3 2967.60  182.38
  -2  -4   3 3047.40  181.58
  -2  -4   3 3196.28  181.28
  -2  -4   3 3237.48  182.18
  -2  -4   3 3147.89  181.68
  -2  -4   3 3116.39  181.28
   1   4  -3 1429.46   82.19
   1   4  -3 1395.46   83.29
   1   4  -3 1316.47   82.09
   1   4  -3 1503.65   82.79
   1   4  -3 1426.56   82.99
   1   4  -3 1437.26   81.99
   1   4  -3 1358.76   82.09
   1   4  -3 1448.85   82.69
  -1  -4   3 1450.45   81.99
  -1  -4   3 1429.26   81.99
  -1  -4   3 1322.77   82.09
  -1  -4   3 1270.57   82.59
  -1  -4   3 1464.95   82.29
  -1  -4   3 1440.16   83.19
   0   4  -3   24.10    3.50
   0   4  -3   25.30    3.00
   0   4  -3   34.20    4.00
   0   4  -3   26.60    5.20
   0  -4   3   21.90    3.30
   0  -4   3   24.80    3.00
   0  -4   3   30.10    5.10
   0  -4   3   26.60    3.70
   0  -4   3   27.80    5.40
  -1   4  -3  523.15   30.80
  -1   4  -3  434.16   30.40
  -1   4  -3  483.75   30.70
  -1   4  -3  510.55   29.40
  -1   4  -3  536.45   29.40
  -1   4  -3  484.45   29.50
  -1   4  -3  484.55   30.30
   1  -4   3  497.15   30.70
   1  -4   3  505.85   30.80
   1  -4   3  493.85   29.80
   1  -4   3  560.54   29.40
  -2   4  -3 1925.31  111.09
  -2   4  -3 1812.42  110.29
  -2   4  -3 2164.48  111.49
  -2   4  -3 2058.39  111.49
  -2   4  -3 1883.21  110.19
  -2   4  -3 1626.54  110.19
   2  -4   3 1838.62  110.69
  -3   4  -3 1329.17   78.39
  -3   4  -3 1382.66   77.69
  -3   4  -3 1382.16   78.19
   3  -4   3 1208.88   77.29
  -4   4  -3   24.00    6.90
  -4   4  -3   19.10    6.00
  -4   4  -3    9.30    5.20
  -4   4  -3   10.60    2.10
   4  -4   3   13.00    4.40
   4  -4   3   12.20    5.40
  -5   4  -3  820.22   58.19
  -5   4  -3 1032.80   58.99
  -5   4  -3  969.00   57.29
  -5   4  -3  936.21   57.99
  -5   4  -3 1100.69   56.69
  -5   4  -3  951.10   56.69
   5  -4   3  975.40   57.59
   5  -4   3  992.00   57.79
  -6   4  -3 1110.29   69.49
  -6   4  -3 1193.98   71.19
  -6   4  -3 1222.88   71.39
  -6   4  -3 1057.79   68.59
  -6   4  -3 1269.67   68.69
   6  -4   3 1179.78   70.19
   6  -4   3 1200.38   69.79
  -7   4  -3  148.29   10.20
  -7   4  -3  143.19   17.20
  -7   4  -3  121.69   18.10
   7  -4   3  122.49   12.60
   7  -4   3  144.89   14.90
  -8   4  -3  146.89   20.00
  -8   4  -3  126.49   22.40
  -8   4  -3  137.49   11.90
   8  -4   3  120.19   19.70
   8  -4   3  149.19   15.20
  -9   4  -3  318.57   31.70
  -9   4  -3  313.97   21.60
  -9   4  -3  295.07   32.90
   9  -4   3  321.17   23.80
   9  -4   3  351.66   25.90
   8   3  -3  551.84   35.60
   8   3  -3  556.54   45.00
   8   3  -3  552.84   36.90
  -8  -3   3  538.25   35.30
  -8  -3   3  547.05   37.70
  -8  -3   3  594.64   39.50
   7   3  -3  519.65   39.50
   7   3  -3  525.35   34.00
  -7  -3   3  544.55   33.80
  -7  -3   3  548.45   36.10
  -7  -3   3  556.94   36.80
   6   3  -3   20.30   12.90
   6   3  -3    6.10    5.90
   6   3  -3   12.20    5.20
   6   3  -3   10.90    5.00
  -6  -3   3    0.70    5.10
  -6  -3   3   11.90    8.90
  -6  -3   3   10.20    6.20
  -6  -3   3   11.00    3.70
   5   3  -3  332.37   27.60
   5   3  -3  331.17   22.90
   5   3  -3  353.26   22.40
  -5  -3   3  351.86   23.70
  -5  -3   3  374.66   24.50
  -5  -3   3  338.97   22.20
  -5  -3   3  375.76   21.90
   4   3  -3 1756.82  107.09
   4   3  -3 1970.50  109.39
   4   3  -3 1853.71  107.69
   4   3  -3 1651.23  106.99
   4   3  -3 2080.29  107.99
  -4  -3   3 1952.40  108.39
  -4  -3   3 1764.82  107.09
  -4  -3   3 1834.32  108.09
  -4  -3   3 1736.73  108.29
  -4  -3   3 1907.31  107.79
  -4  -3   3 1618.04  106.99
  -4  -3   3 1880.41  107.19
   3   3  -3 1625.84   96.09
   3   3  -3 1677.53   96.59
   3   3  -3 1568.34   95.89
   3   3  -3 1633.34   96.29
   3   3  -3 1864.51   96.59
   3   3  -3 1692.23   96.79
   3   3  -3 1751.62   97.79
   3   3  -3 1588.74   95.99
  -3  -3   3 1609.14   95.89
  -3  -3   3 1615.54   96.69
  -3  -3   3 1527.25   95.89
  -3  -3   3 1565.64   96.29
  -3  -3   3 1587.24   97.09
  -3  -3   3 1651.03   96.39
  -3  -3   3 1706.13   96.29
   2   3  -3   25.70    3.60
   2   3  -3   30.30    6.40
   2   3  -3   22.60    3.30
   2   3  -3   16.30    3.10
   2   3  -3   21.50    3.10
   2   3  -3   28.40    4.60
   2   3  -3   33.70    6.80
   2   3  -3   21.00    4.40
  -2  -3   3   15.50    3.10
  -2  -3   3   25.30    4.10
  -2  -3   3   25.30    5.80
  -2  -3   3   20.90    4.60
  -2  -3   3   21.00    4.90
  -2  -3   3   29.60    4.40
  -2  -3   3   20.10    3.20
   1   3  -3 3090.69  188.08
   1   3  -3 3291.77  188.28
   1   3  -3 3288.17  188.58
   1   3  -3 2971.10  188.48
   1   3  -3 3205.48  188.78
   1   3  -3 3282.27  188.98
   1   3  -3 3212.58  188.08
  -1  -3   3 3179.18  188.88
  -1  -3   3 3166.58  188.28
  -1  -3   3 3151.08  188.08
  -1  -3   3 3580.84  188.78
  -1  -3   3 3418.26  188.38
  -1  -3   3 3302.67  188.08
   0   3  -3 6998.10  365.56
   0   3  -3 6622.74  365.16
   0   3  -3 5340.37  364.76
   0   3  -3 6199.18  365.56
   0   3  -3 6446.15  365.66
   0  -3   3 6446.65  365.56
   0  -3   3 6360.46  364.86
   0  -3   3 6124.69  364.86
   0  -3   3 6663.53  365.56
   0  -3   3 5766.42  364.96
  -1   3  -3  233.08   15.20
  -1   3  -3  210.78   14.10
  -1   3  -3  235.68   14.00
  -1   3  -3  257.87   15.40
  -1   3  -3  241.18   15.20
  -1   3  -3  220.78   13.80
   1  -3   3  245.48   15.30
   1  -3   3  228.58   14.70
  -2   3  -3  696.83   41.80
  -2   3  -3  702.83   40.70
  -2   3  -3  749.13   41.80
  -2   3  -3  677.03   40.70
  -2   3  -3  670.23   40.70
  -2   3  -3  686.33   41.20
   2  -3   3  704.43   41.30
  -3   3  -3 1515.85  102.99
  -3   3  -3 1695.83  102.09
  -3   3  -3 1792.62  101.99
  -3   3  -3 1919.61  102.99
  -3   3  -3 1733.93  101.89
  -3   3  -3 1820.82  103.19
  -3   3  -3 1746.03  102.09
   3  -3   3 1868.21  101.99
   3  -3   3 1688.33  102.19
   3  -3   3 1777.42  102.79
  -4   3  -3 1617.64   90.39
  -4   3  -3 1578.84   88.79
  -4   3  -3 1517.25   90.29
  -4   3  -3 1540.25   89.09
  -4   3  -3 1504.95   89.79
  -4   3  -3 1466.25   88.79
   4  -3   3 1464.95   89.29
   4  -3   3 1535.75   89.59
   4  -3   3 1519.95   88.79
  -5   3  -3  133.99    8.60
  -5   3  -3  116.79   12.00
  -5   3  -3  127.09   10.60
  -5   3  -3  106.79   13.70
  -5   3  -3  115.39    8.70
   5  -3   3  120.69   11.40
   5  -3   3  127.79   10.30
   5  -3   3  112.99    8.80
  -6   3  -3  311.07   22.70
  -6   3  -3  332.57   23.90
  -6   3  -3  283.67   19.60
  -6   3  -3  318.87   19.50
  -6   3  -3  312.27   21.10
   6  -3   3  321.27   21.10
   6  -3   3  303.97   22.60
   6  -3   3  337.17   19.90
  -7   3  -3  948.01   61.19
  -7   3  -3 1001.40   61.19
  -7   3  -3 1017.10   57.59
   7  -3   3  986.80   58.89
   7  -3   3  919.81   59.09
  -8   3  -3  326.07   27.80
  -8   3  -3  328.07   21.70
  -8   3  -3  343.77   30.00
   8  -3   3  312.57   22.80
   8  -3   3  318.77   26.30
  -9   3  -3    2.30   18.20
  -9   3  -3   -1.40    7.10
   9  -3   3    6.00    7.40
   9  -3   3   13.00   11.40
  -9  -2   3  319.17   27.10
  -9  -2   3  292.17   25.90
  -9  -2   3  310.27   24.30
   8   2  -3    9.20    6.60
  -8  -2   3    4.10    7.50
  -8  -2   3    3.30    8.20
  -8  -2   3    4.50    8.50
   7   2  -3  491.75   38.10
   7   2  -3  483.85   31.20
   7   2  -3  501.25   31.80
  -7  -2   3  507.05   31.40
  -7  -2   3  525.65   34.30
   6   2  -3 1174.78   72.79
   6   2  -3 1216.18   72.99
   6   2  -3 1349.47   76.59
   6   2  -3 1189.28   72.69
  -6  -2   3 1183.48   72.59
  -6  -2   3 1227.88   73.89
  -6  -2   3 1292.07   74.29
  -6  -2   3 1230.18   71.99
   5   2  -3  931.21   52.99
   5   2  -3  839.62   52.79
   5   2  -3  964.30   56.19
   5   2  -3  908.01   53.09
  -5  -2   3  838.52   54.49
  -5  -2   3  874.01   52.69
  -5  -2   3  908.61   52.29
  -5  -2   3  775.32   52.59
  -5  -2   3  939.41   54.29
  -5  -2   3  933.61   53.89
   4   2  -3    5.40    3.80
   4   2  -3    6.00    4.50
   4   2  -3   14.40    4.20
   4   2  -3   26.10    9.30
   4   2  -3   14.20    3.70
   4   2  -3   13.40    4.60
  -4  -2   3   16.70    6.10
  -4  -2   3    6.50    3.80
  -4  -2   3    5.60    4.30
  -4  -2   3   12.20    6.80
  -4  -2   3   11.10    4.90
  -4  -2   3   17.50    5.00
   3   2  -3 1951.90  115.89
   3   2  -3 1855.01  115.39
   3   2  -3 2243.28  117.09
   3   2  -3 2236.18  116.09
   3   2  -3 1837.02  115.49
   3   2  -3 1926.01  115.49
   3   2  -3 1958.90  116.09
  -3  -2   3 1898.51  115.49
  -3  -2   3 1929.61  115.69
  -3  -2   3 2054.89  116.09
  -3  -2   3 2121.19  115.59
  -3  -2   3 1894.81  116.39
  -3  -2   3 1980.00  116.19
  -3  -2   3 1887.11  115.49
   2   2  -3 6723.63  367.96
   2   2  -3 6361.46  368.16
   2   2  -3 6309.07  368.16
   2   2  -3 6265.27  368.66
   2   2  -3 6321.77  367.66
   2   2  -3 6579.64  368.26
  -2  -2   3 6103.89  368.16
  -2  -2   3 6348.56  367.66
  -2  -2   3 6366.36  367.86
  -2  -2   3 6006.10  368.46
  -2  -2   3 6393.26  368.16
  -2  -2   3 6339.97  367.66
   1   2  -3 1028.50   70.29
   1   2  -3 1246.38   70.29
   1   2  -3 1235.98   70.79
   1   2  -3 1233.88   71.29
   1   2  -3 1254.57   70.99
   1   2  -3 1250.67   70.69
   1   2  -3 1209.58   70.59
   1   2  -3 1215.28   70.29
  -1  -2   3 1240.28   70.89
  -1  -2   3 1247.78   70.29
  -1  -2   3 1279.07   70.79
  -1  -2   3 1241.28   70.29
  -1  -2   3 1116.29   70.29
  -1  -2   3 1209.28   70.79
  -1  -2   3 1111.39   70.99
   0   2  -3 1369.46   89.59
   0   2  -3 1577.74   89.19
   0   2  -3 1634.04   89.09
   0   2  -3 1539.25   88.59
   0  -2   3 1507.45   88.59
   0  -2   3 1460.45   88.69
   0  -2   3 1420.26   88.39
   0  -2   3 1600.24   89.69
   0  -2   3 1613.74   89.19
  -1   2  -3 2384.56  134.19
  -1   2  -3 1999.10  134.89
  -1   2  -3 2332.27  134.59
   1  -2   3 2412.56  134.49
   1  -2   3 2354.36  134.19
   1  -2   3 2397.76  134.39
  -2   2  -3 1784.62  101.79
  -2   2  -3 1755.32  101.79
  -2   2  -3 1675.23  101.69
  -2   2  -3 1678.83  101.69
   2  -2   3 1805.92  101.79
   2  -2   3 1813.72  102.09
  -3   2  -3  136.19    8.90
  -3   2  -3  132.09    8.60
  -3   2  -3  110.49   16.60
  -3   2  -3  125.69    8.30
  -3   2  -3  123.99   11.60
   3  -2   3  122.89    8.40
   3  -2   3  132.09    8.50
   3  -2   3  134.39    9.90
   3  -2   3  124.29    9.10
  -4   2  -3  334.17   19.20
  -4   2  -3  309.57   20.70
  -4   2  -3  291.77   18.40
  -4   2  -3  309.17   18.40
   4  -2   3  322.57   18.50
   4  -2   3  278.57   18.40
   4  -2   3  295.87   19.80
   4  -2   3  288.17   19.00
  -5   2  -3 1397.46   89.09
  -5   2  -3 1604.14   91.09
  -5   2  -3 1494.25   89.49
  -5   2  -3 1536.95   89.09
   5  -2   3 1521.75   89.89
   5  -2   3 1615.44   89.19
  -6   2  -3  826.32   49.50
  -6   2  -3  749.82   46.90
  -6   2  -3  860.41   49.99
   6  -2   3  752.92   48.20
   6  -2   3  806.62   48.00
   6  -2   3  766.02   47.00
  -7   2  -3   39.50   13.20
  -7   2  -3   25.50    5.90
  -7   2  -3   40.80   11.70
   7  -2   3   33.00    9.10
   7  -2   3   38.80    7.10
  -8   2  -3  298.57   19.90
  -8   2  -3  310.27   28.90
  -8   2  -3  260.77   24.20
   8  -2   3  286.17   21.00
   9   1  -3  512.65   33.10
  -9  -1   3  523.35   36.40
  -9  -1   3  467.05   32.70
  -9  -1   3  526.85   36.80
   8   1  -3  280.17   20.30
   8   1  -3  287.87   20.80
  -8  -1   3  297.27   24.40
  -8  -1   3  285.07   20.60
  -8  -1   3  292.47   23.30
   7   1  -3  463.05   28.50
   7   1  -3  461.65   29.00
   7   1  -3  442.36   35.20
  -7  -1   3  452.15   30.40
   6   1  -3   15.40    5.10
   6   1  -3   27.30   11.10
   6   1  -3   21.00    5.00
   6   1  -3   16.20    5.50
  -6  -1   3   10.30    4.60
  -6  -1   3   22.40    5.90
  -6  -1   3    9.80    4.40
  -6  -1   3   26.90    6.60
   5   1  -3 2710.53  157.48
   5   1  -3 2905.91  158.38
   5   1  -3 2583.04  157.18
   5   1  -3 2879.41  159.48
  -5  -1   3 2781.22  158.28
  -5  -1   3 2574.74  158.48
  -5  -1   3 2595.34  157.18
  -5  -1   3 2740.83  158.28
  -5  -1   3 2538.15  157.18
   4   1  -3 1882.41  107.39
   4   1  -3 1787.42  107.29
   4   1  -3 1831.02  107.19
   4   1  -3 1772.82  109.09
   4   1  -3 1911.31  108.19
   4   1  -3 1993.30  108.19
  -4  -1   3 1862.71  106.99
  -4  -1   3 1747.03  107.69
  -4  -1   3 1867.41  108.19
  -4  -1   3 1832.62  107.29
  -4  -1   3 1890.61  108.19
  -4  -1   3 1713.83  108.39
  -4  -1   3 1837.52  107.29
   3   1  -3  840.72   48.60
   3   1  -3  776.42   49.70
   3   1  -3  866.81   48.50
   3   1  -3  817.52   47.70
   3   1  -3  835.02   48.00
   3   1  -3  825.62   47.90
   3   1  -3  836.12   47.90
   3   1  -3  780.72   48.80
  -3  -1   3  821.62   48.60
  -3  -1   3  804.12   48.30
  -3  -1   3  747.23   48.90
  -3  -1   3  830.02   48.60
  -3  -1   3  816.52   47.90
  -3  -1   3  828.82   47.90
   2   1  -3 3845.02  208.18
   2   1  -3 3446.66  208.88
   2   1  -3 3641.44  208.58
   2   1  -3 3497.95  208.48
   2   1  -3 3782.52  208.58
   2   1  -3 3514.85  208.08
  -2  -1   3 3451.15  208.48
  -2  -1   3 3549.45  208.88
  -2  -1   3 3591.54  208.38
  -2  -1   3 3369.86  208.78
  -2  -1   3 3614.94  208.48
  -2  -1   3 3738.03  208.08
   1   1  -3 7946.91  491.35
  -1  -1   3 8817.92  491.35
  -1  -1   3 8650.04  491.45
   0   1  -3   45.40    4.00
   0   1  -3   48.50    3.90
   0   1  -3   45.70    5.90
   0   1  -3   42.10    5.70
   0   1  -3   43.40    6.80
   0  -1   3   49.90    5.60
   0  -1   3   39.80    5.80
   0  -1   3   42.80    4.20
   0  -1   3   40.60    4.10
   0  -1   3   43.20    4.20
  -1   1  -3   65.19    4.10
  -1   1  -3   55.99    5.40
  -1   1  -3   76.59    7.60
  -1   1  -3   74.39    5.00
   1  -1   3   59.09    5.30
   1  -1   3   55.79    5.10
   1  -1   3   69.19    6.90
   1  -1   3   57.29    5.10
  -2   1  -3 1022.00   61.89
  -2   1  -3 1076.59   61.89
  -2   1  -3 1069.49   61.99
  -2   1  -3 1095.39   62.79
   2  -1   3 1069.89   62.19
   2  -1   3 1056.69   61.89
   2  -1   3 1050.89   63.49
  -3   1  -3 1552.04   94.49
  -3   1  -3 1696.03   94.59
  -3   1  -3 1757.42   95.69
  -3   1  -3 1545.25   94.49
   3  -1   3 1654.73   94.89
   3  -1   3 1506.75   94.39
   3  -1   3 1657.93   94.49
  -4   1  -3  361.16   25.40
  -4   1  -3  478.15   25.90
  -4   1  -3  399.66   25.30
   4  -1   3  432.26   25.30
   4  -1   3  425.86   26.20
  -5   1  -3   19.60    5.20
  -5   1  -3   20.90    4.60
  -5   1  -3   21.00    4.10
  -5   1  -3   33.50    8.70
   5  -1   3   30.30    7.40
  -6   1  -3 1116.19   68.09
  -6   1  -3 1039.00   66.09
  -6   1  -3 1106.69   63.39
   6  -1   3 1026.70   64.09
   6  -1   3 1086.79   63.49
   6  -1   3 1085.49   64.59
  -7   1  -3 1213.28   70.19
  -7   1  -3 1163.28   73.09
  -7   1  -3 1170.88   73.29
   7  -1   3 1182.58   71.29
   7  -1   3 1194.78   70.99
  -8   1  -3    7.20   15.70
  -8   1  -3   -4.20    7.50
  -8   1  -3   19.50   13.60
   8  -1   3   -4.80    7.80
   9   0  -3  232.88   18.40
  -9   0   3  201.98   21.80
  -9   0   3  255.27   23.90
  -9   0   3  232.18   18.90
   8   0  -3  465.35   32.60
   8   0  -3  521.75   33.30
  -8   0   3  560.44   35.90
  -8   0   3  486.55   32.40
  -8   0   3  575.94   35.60
   7   0  -3 1593.34   94.79
   7   0  -3 1629.64   95.39
  -7   0   3 1704.23   96.59
  -7   0   3 1697.43   96.49
  -7   0   3 1423.56   94.59
  -7   0   3 1645.44   94.69
   6   0  -3  474.85   33.80
   6   0  -3  530.15   29.60
   6   0  -3  489.75   29.30
  -6   0   3  462.15   29.30
  -6   0   3  498.55   29.00
  -6   0   3  416.36   31.60
  -6   0   3  484.15   30.80
  -6   0   3  457.65   30.30
   5   0  -3   63.29    6.30
   5   0  -3   59.09    6.90
   5   0  -3   49.50   12.20
   5   0  -3   58.39    8.50
   5   0  -3   60.19    7.80
   5   0  -3   74.99    9.30
   5   0  -3   60.09    7.90
  -5   0   3   45.70    9.10
  -5   0   3   56.19    9.30
  -5   0   3   59.39    7.30
  -5   0   3   58.29   11.80
  -5   0   3   55.79    7.50
  -5   0   3   52.09    8.00
   4   0  -3 1163.48   65.59
   4   0  -3 1085.49   64.69
   4   0  -3 1087.59   65.19
   4   0  -3 1103.69   64.59
   4   0  -3 1164.08   64.89
   4   0  -3 1065.59   66.99
   4   0  -3 1152.68   65.49
  -4   0   3 1068.99   65.09
  -4   0   3 1108.69   64.69
  -4   0   3  988.70   65.99
  -4   0   3 1119.59   64.69
  -4   0   3 1105.19   65.39
  -4   0   3 1153.78   65.69
   3   0  -3 1929.51  114.49
   3   0  -3 2061.19  114.59
   3   0  -3 2051.09  115.09
   3   0  -3 1974.70  114.19
   3   0  -3 1984.00  115.09
   3   0  -3 2059.59  114.99
   3   0  -3 1991.80  115.99
  -3   0   3 1900.91  114.49
  -3   0   3 1914.01  114.69
  -3   0   3 1914.41  114.69
  -3   0   3 1953.40  115.09
  -3   0   3 1940.71  114.99
  -3   0   3 1926.21  115.59
   2   0  -3 2473.35  147.79
   2   0  -3 2435.36  146.19
   2   0  -3 2468.45  146.49
   2   0  -3 2813.02  146.99
   2   0  -3 2537.85  147.09
  -2   0   3 2829.72  146.79
  -2   0   3 2473.15  146.19
  -2   0   3 2512.65  146.49
  -2   0   3 2491.95  147.49
  -2   0   3 2144.39  146.79
   1   0  -3 3928.11  260.77
   1   0  -3 4548.45  261.57
   1   0  -3 4955.00  261.67
   1   0  -3 4737.93  261.27
  -1   0   3 3967.40  260.77
  -1   0   3 3861.81  260.77
  -1   0   3 4761.62  261.27
  -1   0   3 4965.60  261.57
  -1   0   3 4777.22  261.57
   0   0  -3 9045.40  488.35
   0   0  -3 8590.44  488.55
   0   0   3 7300.47  487.65
   0   0   3 9066.79  488.55
   0   0   3 8094.09  488.15
   1   0   3 7906.51  480.85
   1   0   3 8753.42  481.05
   1   0   3 8240.78  480.95
  -2   0  -3  166.58   11.90
  -2   0  -3  160.48   10.10
  -2   0  -3  158.68   10.20
  -2   0  -3  163.98   12.00
  -2   0  -3  144.49   10.20
   2   0   3  178.68   12.30
   2   0   3  150.58   10.10
   2   0   3  150.68   10.90
   2   0   3  150.78   10.20
   2   0   3  160.68   10.30
  -3   0  -3  293.07   18.40
  -3   0  -3  301.67   19.60
  -3   0  -3  309.77   20.60
  -3   0  -3  294.57   18.40
  -3   0  -3  307.27   18.70
   3   0   3  272.57   18.20
   3   0   3  314.27   20.30
   3   0   3  292.17   19.10
   3   0   3  318.57   19.20
  -4   0  -3 2104.09  126.79
  -4   0  -3 2188.48  126.99
  -4   0  -3 2134.69  126.79
  -4   0  -3 2191.68  128.09
   4   0   3 2141.09  127.19
   4   0   3 2273.37  127.79
   4   0   3 2213.38  126.89
  -5   0  -3  481.95   31.10
  -5   0  -3  547.55   33.90
  -5   0  -3  502.95   30.90
   5   0   3  511.35   31.10
   5   0   3  519.25   32.30
   5   0   3  515.25   32.00
  -6   0  -3   17.60   13.10
   6   0   3   14.20    7.80
   6   0   3   17.30    5.60
  -7   0  -3   29.80   12.30
  -7   0  -3   30.20    6.30
  -7   0  -3   24.30   14.20
   7   0   3   37.20    7.60
   7   0   3   21.40   10.90
  -8   0  -3  632.34   45.10
  -8   0  -3  629.34   38.10
  -8   0  -3  575.34   42.50
   8   0   3  585.74   38.40
  10  -1  -3  139.29   14.50
 -10   1   3  150.18   21.80
 -10   1   3  112.09   22.30
 -10   1   3  118.19   17.10
   9  -1  -3  494.75   33.00
  -9   1   3  504.65   35.80
  -9   1   3  513.25   32.40
  -9   1   3  517.15   36.30
   8  -1  -3  666.03   41.00
   8  -1  -3  669.43   41.70
  -8   1   3  675.93   41.00
  -8   1   3  629.84   43.40
  -8   1   3  729.83   45.10
   7  -1  -3    8.00    5.30
   7  -1  -3    2.10    4.50
  -7   1   3    4.30    4.90
  -7   1   3    5.20    6.90
  -7   1   3   14.10    7.20
  -7   1   3    6.50    5.10
   6  -1  -3  997.70   58.39
   6  -1  -3 1020.50   58.89
  -6   1   3  992.70   58.39
  -6   1   3 1022.40   60.09
  -6   1   3  997.50   58.39
  -6   1   3  891.41   60.19
  -6   1   3 1011.20   59.69
   5  -1  -3 2060.69  109.29
   5  -1  -3 1969.50  110.19
   5  -1  -3 1744.03  109.29
   5  -1  -3 1869.41  109.59
   5  -1  -3 1899.81  110.49
   5  -1  -3 1729.03  109.19
  -5   1   3 1761.02  109.29
  -5   1   3 1928.61  111.09
  -5   1   3 1803.32  109.29
  -5   1   3 1881.41  110.59
  -5   1   3 1994.00  110.29
   4  -1  -3  984.10   51.79
   4  -1  -3  908.21   51.59
   4  -1  -3  789.72   51.79
   4  -1  -3  876.21   52.19
   4  -1  -3  783.82   51.19
  -4   1   3  976.90   53.39
  -4   1   3  825.62   51.89
  -4   1   3  764.12   51.19
  -4   1   3  955.50   52.49
  -4   1   3  891.71   51.49
   3  -1  -3  223.78   13.90
   3  -1  -3  193.48   12.50
   3  -1  -3  213.88   13.50
   3  -1  -3  176.38   12.70
   3  -1  -3  205.28   12.80
  -3   1   3  184.98   12.60
  -3   1   3  220.78   16.50
  -3   1   3  222.68   13.60
  -3   1   3  187.88   12.70
  -3   1   3  206.28   13.90
   2  -1  -3 1750.42  116.69
   2  -1  -3 1934.21  116.59
   2  -1  -3 2277.57  117.19
   2  -1  -3 2085.99  116.59
   2  -1  -3 1851.31  116.49
   2  -1  -3 2190.38  117.29
  -2   1   3 2182.38  117.79
  -2   1   3 1867.41  116.59
  -2   1   3 2118.69  117.29
  -2   1   3 1961.40  117.39
  -2   1   3 1855.01  116.49
   1  -1  -3 4629.34  254.17
   1  -1  -3 4219.98  253.67
   1  -1  -3 4150.38  253.67
   1  -1  -3 4809.92  254.67
  -1   1   3 4728.53  254.57
  -1   1   3 3986.00  253.67
  -1   1   3 4041.00  253.67
  -1   1   3 4248.08  253.77
  -1   1   3 4580.14  254.17
   0  -1  -3  330.17   19.30
   0  -1  -3  301.97   17.70
   0  -1  -3  284.87   17.60
   0   1   3  309.57   19.60
   0   1   3  274.67   17.70
   0   1   3  272.87   17.60
   0   1   3  299.47   17.80
  -1  -1  -3 1910.41  110.99
  -1  -1  -3 1995.40  111.79
  -1  -1  -3 1977.80  111.49
  -1  -1  -3 1777.02  110.99
   1   1   3 1754.72  111.79
   1   1   3 1898.51  110.99
   1   1   3 2116.19  111.89
   1   1   3 1860.31  110.89
   1   1   3 1892.41  110.99
  -2  -1  -3 2181.98  128.59
  -2  -1  -3 2247.08  129.19
  -2  -1  -3 2328.87  129.39
  -2  -1  -3 2235.08  128.69
  -2  -1  -3 2058.79  128.59
   2   1   3 2275.67  128.79
   2   1   3 2210.88  128.59
   2   1   3 2073.19  128.59
   2   1   3 2182.18  128.59
   2   1   3 2096.09  128.59
   2   1   3 2448.46  129.59
  -3  -1  -3  759.22   43.20
  -3  -1  -3  686.53   41.50
  -3  -1  -3  713.03   41.60
  -3  -1  -3  702.93   41.70
   3   1   3  710.63   42.00
   3   1   3  678.33   42.50
   3   1   3  677.03   41.70
   3   1   3  697.73   41.60
   3   1   3  649.24   41.50
   3   1   3  740.63   42.90
  -4  -1  -3   -2.70    5.10
  -4  -1  -3   -4.10    4.20
  -4  -1  -3    3.80    4.10
  -4  -1  -3    1.30    7.70
   4   1   3   -1.30    4.70
   4   1   3    0.50    5.90
   4   1   3   -0.10    4.20
  -5  -1  -3  440.76   29.30
  -5  -1  -3  369.16   25.90
  -5  -1  -3  417.66   25.50
   5   1   3  402.46   28.40
   5   1   3  429.26   27.20
   5   1   3  424.96   26.00
  -6  -1  -3  928.71   55.59
  -6  -1  -3  857.21   54.19
  -6  -1  -3  846.82   51.79
   6   1   3  826.32   51.79
   6   1   3  863.21   52.59
  -7  -1  -3  200.58   17.20
  -7  -1  -3  215.28   22.70
  -7  -1  -3  273.77   26.50
   7   1   3  242.98   18.00
  -8  -1  -3   16.30   13.40
 -10   2   3  174.88   21.00
 -10   2   3  141.59   18.60
 -10   2   3  195.38   23.10
   9  -2  -3   33.80    8.50
  -9   2   3   34.50    8.00
  -9   2   3   48.30   11.40
  -9   2   3   59.79   11.90
   8  -2  -3  763.52   46.80
   8  -2  -3  693.43   45.90
  -8   2   3  805.62   47.90
  -8   2   3  793.82   48.80
   7  -2  -3 1044.70   63.09
   7  -2  -3 1027.00   62.49
  -7   2   3 1169.28   64.79
  -7   2   3  969.60   62.39
  -7   2   3 1126.69   64.09
  -7   2   3 1028.10   62.49
   6  -2  -3  581.44   35.70
   6  -2  -3  575.04   34.90
   6  -2  -3  587.24   34.50
  -6   2   3  583.74   34.50
  -6   2   3  585.34   36.40
  -6   2   3  553.14   34.40
  -6   2   3  536.45   38.90
  -6   2   3  596.04   35.90
   5  -2  -3  290.17   18.90
   5  -2  -3  279.67   19.20
   5  -2  -3  298.67   19.60
   5  -2  -3  326.87   20.80
   5  -2  -3  303.37   20.00
  -5   2   3  352.76   21.40
  -5   2   3  339.47   25.50
  -5   2   3  295.77   19.10
  -5   2   3  280.27   19.10
  -5   2   3  340.97   20.60
   4  -2  -3 3388.96  200.38
   4  -2  -3 3612.44  200.88
   4  -2  -3 3507.55  200.58
   4  -2  -3 3819.22  201.58
   4  -2  -3 3209.88  200.58
   4  -2  -3 3707.13  200.98
   4  -2  -3 3726.63  201.08
  -4   2   3 3158.28  200.58
  -4   2   3 3422.26  200.58
  -4   2   3 3014.50  200.88
  -4   2   3 3734.33  201.68
  -4   2   3 3288.77  202.08
  -4   2   3 3353.26  201.08
   3  -2  -3 4099.39  245.28
   3  -2  -3 4005.40  245.08
   3  -2  -3 4691.03  245.78
   3  -2  -3 4143.69  245.08
   3  -2  -3 4425.96  245.68
   3  -2  -3 4652.13  245.38
  -3   2   3 4097.29  245.08
  -3   2   3 4537.55  245.88
  -3   2   3 4230.38  246.38
  -3   2   3 4267.37  245.78
  -3   2   3 3898.31  245.08
  -3   2   3 3676.63  245.18
   2  -2  -3  245.08   15.40
   2  -2  -3  259.77   16.30
   2  -2  -3  226.38   15.70
   2  -2  -3  263.77   15.30
   2  -2  -3  249.28   15.10
  -2   2   3  234.68   15.20
  -2   2   3  254.17   16.00
  -2   2   3  265.37   16.40
  -2   2   3  249.48   15.30
   1  -2  -3 3888.61  219.48
   1  -2  -3 4087.99  219.28
   1  -2  -3 4073.79  218.88
   1  -2  -3 3526.75  218.68
   1  -2  -3 3481.45  218.78
  -1   2   3 3584.54  218.78
  -1   2   3 3916.71  219.38
  -1   2   3 3906.01  219.28
  -1   2   3 3483.05  218.78
   0  -2  -3 3170.38  207.68
   0  -2  -3 3456.65  207.48
   0  -2  -3 3745.53  208.28
   0  -2  -3 3855.11  208.38
   0  -2  -3 3585.94  207.48
   0  -2  -3 3471.55  207.48
   0   2   3 3525.85  207.48
   0   2   3 3502.45  207.58
   0   2   3 3485.55  207.58
   0   2   3 3974.90  208.28
  -1  -2  -3 1184.98   72.39
  -1  -2  -3 1265.37   72.39
  -1  -2  -3 1242.28   72.39
  -1  -2  -3 1235.18   72.89
   1   2   3 1337.67   73.39
   1   2   3 1294.77   72.59
   1   2   3 1173.78   72.29
   1   2   3 1192.38   72.39
  -2  -2  -3   17.10    3.80
  -2  -2  -3   22.70    4.00
  -2  -2  -3   27.30    6.00
   2   2   3   32.50    5.10
   2   2   3   17.20    6.20
   2   2   3   28.40    4.20
   2   2   3   25.60    4.80
   2   2   3   22.20    4.30
  -3  -2  -3 1099.99   65.99
  -3  -2  -3 1191.78   67.39
  -3  -2  -3 1122.09   66.19
  -3  -2  -3 1077.69   65.89
   3   2   3 1111.89   65.99
   3   2   3 1067.39   66.89
   3   2   3 1074.89   66.89
   3   2   3 1172.58   67.29
   3   2   3 1187.48   66.59
  -4  -2  -3 1148.79   65.19
  -4  -2  -3 1024.60   63.19
  -4  -2  -3  981.50   63.19
   4   2   3 1140.99   65.09
   4   2   3 1024.30   63.39
   4   2   3 1066.79   63.29
   4   2   3 1084.09   63.79
   4   2   3 1106.19   63.79
  -5  -2  -3  436.46   29.40
   5   2   3  450.35   27.40
   5   2   3  352.06   35.80
   5   2   3  392.76   26.30
   5   2   3  371.56   25.90
  -6  -2  -3   26.30   10.30
  -6  -2  -3   21.40    6.60
  -6  -2  -3   22.80   12.80
   6   2   3   16.90    7.10
  -7  -2  -3  485.85   37.90
  -7  -2  -3  443.36   30.30
  -7  -2  -3  449.46   34.00
  10  -3  -3  418.96   31.20
 -10   3   3  425.96   33.10
 -10   3   3  398.96   29.10
 -10   3   3  476.65   33.70
   9  -3  -3  705.13   44.30
  -9   3   3  727.03   46.80
  -9   3   3  711.83   43.60
  -9   3   3  688.13   45.90
   8  -3  -3   82.39   11.10
  -8   3   3  104.79   13.10
  -8   3   3   86.99   14.60
   7  -3  -3  420.86   27.00
  -7   3   3  445.36   27.80
  -7   3   3  386.76   25.90
  -7   3   3  393.26   26.00
  -7   3   3  466.15   28.80
   6  -3  -3 1464.75   96.99
   6  -3  -3 1737.13   96.99
   6  -3  -3 1675.43   96.29
  -6   3   3 1801.42   98.19
  -6   3   3 1591.04   96.59
  -6   3   3 1640.84   96.29
  -6   3   3 1466.75   98.79
  -6   3   3 1826.02   97.49
   5  -3  -3 1028.40   59.89
   5  -3  -3 1078.79   59.79
   5  -3  -3 1055.29   60.49
   5  -3  -3  986.30   61.09
   5  -3  -3 1065.59   59.59
  -5   3   3 1004.20   59.89
  -5   3   3 1093.49   61.49
  -5   3   3  898.41   63.29
  -5   3   3 1036.60   60.59
  -5   3   3  938.61   60.59
  -5   3   3 1051.59   59.89
   4  -3  -3    2.00    3.00
   4  -3  -3    5.90    3.80
   4  -3  -3    3.40    3.70
   4  -3  -3    3.40    3.60
   4  -3  -3    3.50    2.80
   4  -3  -3    3.40    2.10
  -4   3   3   -1.60    3.20
  -4   3   3   -0.20    5.70
  -4   3   3    0.00    3.00
  -4   3   3    3.70    4.30
  -4   3   3    3.70    2.90
   3  -3  -3 1339.87   77.19
   3  -3  -3 1094.49   77.59
   3  -3  -3 1445.36   77.49
   3  -3  -3 1321.27   77.59
   3  -3  -3 1331.67   77.09
  -3   3   3 1438.66   77.89
  -3   3   3 1292.77   77.09
  -3   3   3 1318.87   77.19
  -3   3   3 1335.77   77.79
   2  -3  -3 1164.98   69.99
   2  -3  -3 1231.38   70.49
   2  -3  -3 1126.19   69.89
   2  -3  -3 1346.87   70.29
  -2   3   3 1217.98   70.69
  -2   3   3 1153.88   69.99
  -2   3   3 1262.47   70.49
  -2   3   3 1113.39   69.89
  -2   3   3 1183.98   70.19
   1  -3  -3 1103.19   61.79
   1  -3  -3  948.01   61.49
   1  -3  -3  955.80   61.59
  -1   3   3 1128.19   61.79
  -1   3   3 1236.08   62.69
  -1   3   3  965.60   61.69
   0  -3  -3   49.20    5.50
   0  -3  -3   51.19    5.40
   0  -3  -3   33.90    5.40
   0  -3  -3   41.60    5.20
   0   3   3   63.69    8.10
   0   3   3   44.50    5.30
   0   3   3   41.40    5.50
   0   3   3   60.09    6.30
  -1  -3  -3 1922.81  113.39
  -1  -3  -3 1908.01  113.79
  -1  -3  -3 1936.01  113.49
  -1  -3  -3 1837.92  113.29
   1   3   3 1988.70  113.59
   1   3   3 1953.20  113.39
   1   3   3 1884.71  113.29
   1   3   3 1849.71  113.09
   1   3   3 2143.99  114.39
   1   3   3 2045.20  113.99
  -2  -3  -3 1798.22  105.99
  -2  -3  -3 1812.32  105.89
  -2  -3  -3 1947.41  106.79
  -2  -3  -3 1760.92  105.89
   2   3   3 1842.12  106.19
   2   3   3 1766.22  106.39
   2   3   3 1810.02  106.49
   2   3   3 1841.62  105.99
   2   3   3 1800.32  105.79
   2   3   3 1718.03  105.79
   2   3   3 1865.01  106.99
  -3  -3  -3  216.58   17.20
  -3  -3  -3  208.68   14.10
   3   3   3  212.08   14.50
   3   3   3  203.68   14.80
   3   3   3  197.08   17.60
   3   3   3  196.78   16.00
   3   3   3  201.78   16.50
  -4  -3  -3  357.56   26.20
  -4  -3  -3  372.76   23.30
   4   3   3  346.07   26.90
   4   3   3  389.26   23.70
   4   3   3  372.06   23.80
   4   3   3  372.36   25.10
   4   3   3  349.07   25.20
  -5  -3  -3  845.92   51.79
  -5  -3  -3  835.32   49.99
  -5  -3  -3  803.72   52.39
   5   3   3  865.41   50.19
   5   3   3  797.32   51.19
  -6  -3  -3  215.78   20.60
  -6  -3  -3  213.48   18.10
  -6  -3  -3  202.38   24.70
  -7  -3  -3   12.30    9.10
  -7  -3  -3    6.30   15.50
  -7  -3  -3    4.90   16.10
  10  -4  -3   18.70    8.80
 -10   4   3   14.40   11.40
 -10   4   3   18.10   12.20
 -10   4   3    5.90    8.80
   9  -4  -3  243.18   19.80
  -9   4   3  294.07   23.50
  -9   4   3  259.87   23.50
  -9   4   3  226.38   18.90
   8  -4  -3 1168.18   72.59
  -8   4   3 1225.08   73.19
  -8   4   3 1171.58   71.49
  -8   4   3 1297.27   74.49
   7  -4  -3  577.44   36.00
   7  -4  -3  619.04   36.80
   7  -4  -3  566.84   35.20
  -7   4   3  580.94   37.40
  -7   4   3  572.04   34.80
  -7   4   3  570.44   34.90
   6  -4  -3  303.97   19.30
   6  -4  -3  331.87   18.90
   6  -4  -3  316.97   19.60
   6  -4  -3  310.27   20.30
  -6   4   3  288.67   21.50
  -6   4   3  286.77   24.10
  -6   4   3  242.48   27.70
  -6   4   3  277.97   20.00
  -6   4   3  333.77   19.20
  -6   4   3  309.67   19.10
   5  -4  -3  711.43   39.60
   5  -4  -3  694.13   38.60
   5  -4  -3  670.53   39.00
   5  -4  -3  592.24   39.00
   5  -4  -3  660.23   39.20
  -5   4   3  612.14   43.10
  -5   4   3  638.74   38.80
  -5   4   3  670.63   38.70
  -5   4   3  645.24   39.90
  -5   4   3  647.74   40.30
   4  -4  -3 1947.51  120.19
   4  -4  -3 2043.40  119.19
   4  -4  -3 2040.40  119.39
   4  -4  -3 2308.37  119.89
   4  -4  -3 1876.41  119.59
  -4   4   3 1994.80  119.29
  -4   4   3 2249.57  120.29
  -4   4   3 1957.40  119.39
   3  -4  -3  884.51   55.19
   3  -4  -3  831.42   54.49
   3  -4  -3 1053.79   55.09
   3  -4  -3  876.51   54.59
   3  -4  -3 1018.50   55.39
  -3   4   3 1014.00   55.69
  -3   4   3  843.22   54.69
  -3   4   3 1056.89   55.49
  -3   4   3  811.92   54.49
  -3   4   3  945.31   54.99
   2  -4  -3  311.17   21.50
   2  -4  -3  352.06   21.10
   2  -4  -3  329.57   21.90
   2  -4  -3  348.77   21.00
   2  -4  -3  380.96   21.60
  -2   4   3  345.77   21.50
  -2   4   3  347.47   22.60
  -2   4   3  358.86   21.30
  -2   4   3  362.36   21.60
  -2   4   3  347.97   21.00
   1  -4  -3 1688.83   97.79
   1  -4  -3 1677.13   97.79
   1  -4  -3 1659.83   97.99
   1  -4  -3 1610.74   98.69
  -1   4   3 1684.43   98.09
  -1   4   3 1750.52   98.89
  -1   4   3 1705.13   97.89
  -1   4   3 1663.23   97.79
   0  -4  -3 4328.07  253.77
   0  -4  -3 4710.13  254.27
   0  -4  -3 4240.18  253.87
   0  -4  -3 4139.09  253.67
   0   4   3 4236.98  253.97
   0   4   3 4282.07  253.77
   0   4   3 4671.33  254.77
  -1  -4  -3   98.59    9.20
  -1  -4  -3  122.49    9.90
  -1  -4  -3  100.09    8.80
  -1  -4  -3   78.49    9.30
   1   4   3   84.79   12.20
   1   4   3   98.39   11.70
   1   4   3  106.49    9.50
   1   4   3  105.39   11.60
   1   4   3  105.79    9.30
   1   4   3   94.69    8.90
  -2  -4  -3 1822.62   99.29
  -2  -4  -3 1646.24   98.09
   2   4   3 1612.44   99.09
   2   4   3 1597.64   98.79
   2   4   3 1684.43   98.59
   2   4   3 1670.73   99.59
   2   4   3 1718.93   98.39
  -3  -4  -3  994.10   60.69
  -3  -4  -3 1137.29   62.79
   3   4   3  956.10   62.09
   3   4   3 1018.80   61.49
   3   4   3 1033.20   60.99
  -4  -4  -3  427.96   27.70
   4   4   3  376.86   25.80
   4   4   3  331.27   27.30
   4   4   3  382.16   24.70
  -5  -4  -3    2.70   11.80
  -5  -4  -3   -0.90    6.80
   5   4   3    9.30   11.40
   5   4   3   12.00   10.50
  -6  -4  -3  270.87   27.70
  -6  -4  -3  262.27   20.20
  -6  -4  -3  243.08   22.00
  -6  -4  -3  261.47   25.30
   6   4   3  230.58   22.00
  10  -5  -3  443.46   30.70
 -10   5   3  453.55   32.80
 -10   5   3  443.26   29.80
 -10   5   3  455.05   34.60
   9  -5  -3  283.67   20.60
  -9   5   3  259.57   19.40
  -9   5   3  273.47   24.10
  -9   5   3  254.77   21.00
   8  -5  -3   35.60    8.20
  -8   5   3   37.70    5.90
  -8   5   3   53.29    8.50
  -8   5   3   33.40   10.20
   7  -5  -3  628.44   42.50
   7  -5  -3  710.23   44.10
   7  -5  -3  706.63   43.20
  -7   5   3  826.22   43.80
  -7   5   3  746.23   44.80
  -7   5   3  640.64   42.20
  -7   5   3  717.13   42.10
   6  -5  -3 1713.83  102.89
   6  -5  -3 1887.61  103.49
   6  -5  -3 1869.61  103.09
   6  -5  -3 1815.82  102.79
   6  -5  -3 1811.02  103.69
  -6   5   3 1761.92  103.29
  -6   5   3 1806.72  102.79
  -6   5   3 1583.24  104.29
  -6   5   3 1619.04  102.79
   5  -5  -3  207.38   16.60
   5  -5  -3  243.68   16.00
   5  -5  -3  247.18   15.20
   5  -5  -3  262.57   14.70
   5  -5  -3  265.47   15.40
  -5   5   3  227.88   15.20
  -5   5   3  201.28   16.60
  -5   5   3  247.38   14.80
  -5   5   3  192.58   14.80
  -5   5   3  221.08   17.60
   4  -5  -3  638.04   37.90
   4  -5  -3  631.34   37.20
   4  -5  -3  540.05   38.00
   4  -5  -3  626.34   37.00
  -4   5   3  636.44   37.40
  -4   5   3  692.93   38.20
  -4   5   3  626.44   38.20
  -4   5   3  608.84   37.10
  -4   5   3  653.43   38.90
   3  -5  -3 1238.48   81.79
   3  -5  -3 1569.94   82.39
   3  -5  -3 1334.67   81.19
   3  -5  -3 1503.25   81.89
   3  -5  -3 1415.96   81.29
  -3   5   3 1351.86   82.39
  -3   5   3 1465.55   81.89
  -3   5   3 1347.67   81.69
  -3   5   3 1386.16   81.39
  -3   5   3 1318.57   81.29
   2  -5  -3 1639.24   99.29
   2  -5  -3 1783.12  100.39
   2  -5  -3 1858.81   99.89
   2  -5  -3 1758.62   99.79
   2  -5  -3 1854.31  100.39
  -2   5   3 1662.03   99.39
  -2   5   3 1685.43  100.49
  -2   5   3 1737.43   99.69
  -2   5   3 1480.95   99.59
  -2   5   3 1588.74   99.69
   1  -5  -3    8.80    5.20
   1  -5  -3    6.90    4.10
   1  -5  -3    7.30    4.00
   1  -5  -3    9.70    4.20
   1  -5  -3    6.80    2.80
   1  -5  -3   18.00    4.50
  -1   5   3    3.30    5.00
  -1   5   3    7.90    4.60
  -1   5   3   10.20    6.80
   0  -5  -3  630.14   37.30
   0  -5  -3  637.94   36.80
   0  -5  -3  667.53   37.50
   0  -5  -3  532.05   37.00
   0  -5  -3  617.44   37.30
   0   5   3  588.14   39.30
   0   5   3  626.54   38.70
   0   5   3  608.54   37.10
   0   5   3  652.23   37.10
   0   5   3  609.44   37.60
  -1  -5  -3  720.13   45.60
  -1  -5  -3  802.12   45.80
  -1  -5  -3  773.32   44.90
   1   5   3  717.83   45.50
   1   5   3  742.33   46.80
   1   5   3  775.02   45.70
   1   5   3  788.82   45.20
   1   5   3  718.43   45.00
  -2  -5  -3  911.61   55.89
  -2  -5  -3  842.22   56.79
   2   5   3  945.01   56.99
   2   5   3 1001.30   56.99
   2   5   3  951.90   56.19
   2   5   3 1009.60   57.99
  -3  -5  -3   47.20    8.50
  -3  -5  -3   26.40    5.80
   3   5   3   34.10    9.10
   3   5   3   45.00   10.70
   3   5   3   27.30    6.90
  -4  -5  -3  506.65   32.70
  -4  -5  -3  436.76   34.30
  -4  -5  -3  519.05   31.70
   4   5   3  519.85   33.60
   4   5   3  481.45   35.00
   4   5   3  534.15   33.50
  -5  -5  -3  405.36   30.60
  -5  -5  -3  421.66   31.00
  -5  -5  -3  437.86   29.20
  -5  -5  -3  478.95   34.10
   5   5   3  442.26   30.20
   5   5   3  472.65   33.50
  -6  -5  -3  117.49   25.00
  -6  -5  -3  118.09   17.60
  -6  -5  -3  114.89   19.00
   6   5   3   82.39   13.90
 -10   6   3  119.29   20.10
 -10   6   3   91.19   13.30
   9  -6  -3  601.54   37.30
  -9   6   3  534.35   35.40
  -9   6   3  595.24   37.20
   8  -6  -3  395.26   25.80
  -8   6   3  368.06   27.70
  -8   6   3  383.86   25.90
  -8   6   3  371.46   24.00
   7  -6  -3   44.60    8.00
  -7   6   3   37.30    8.00
  -7   6   3   39.00    5.80
  -7   6   3   49.60    8.40
   6  -6  -3  436.06   28.60
   6  -6  -3  464.15   27.90
  -6   6   3  477.45   29.90
  -6   6   3  423.36   27.30
  -6   6   3  448.66   27.20
   5  -6  -3 1395.36   78.39
   5  -6  -3 1239.18   79.69
   5  -6  -3 1382.76   79.29
   5  -6  -3 1383.66   78.29
   5  -6  -3 1375.36   79.39
  -5   6   3 1340.77   78.49
  -5   6   3 1351.96   78.39
  -5   6   3 1331.87   79.29
  -5   6   3 1282.77   79.79
   4  -6  -3  931.81   52.79
   4  -6  -3  938.91   52.59
   4  -6  -3  909.21   51.59
   4  -6  -3  768.82   52.49
   4  -6  -3  890.51   51.49
  -4   6   3  902.11   51.79
  -4   6   3  847.62   53.19
  -4   6   3  912.41   52.69
  -4   6   3  868.21   51.69
  -4   6   3  812.62   52.49
   3  -6  -3   -0.20    4.90
   3  -6  -3   -1.80    6.40
   3  -6  -3   -5.70    3.60
   3  -6  -3    3.60    4.10
   3  -6  -3   -2.10    3.50
  -3   6   3    5.20    5.60
  -3   6   3   -0.40    7.20
  -3   6   3    8.20    5.50
  -3   6   3   -0.90    4.80
  -3   6   3   -4.60    5.10
   2  -6  -3 2087.09  118.49
   2  -6  -3 1940.41  117.69
   2  -6  -3 2263.37  119.39
  -2   6   3 1895.91  117.79
  -2   6   3 1924.61  118.29
   1  -6  -3 1257.17   84.29
   1  -6  -3 1297.57   85.79
   1  -6  -3 1523.15   84.59
  -1   6   3 1544.15   84.79
  -1   6   3 1484.55   84.79
  -1   6   3 1576.64   85.29
   0  -6  -3  254.57   17.40
   0  -6  -3  209.08   15.40
   0  -6  -3  234.58   15.80
   0   6   3  212.68   15.90
   0   6   3  280.17   17.40
   0   6   3  194.18   16.40
  -1  -6  -3  110.59   10.40
  -1  -6  -3  103.29   11.30
  -1  -6  -3  100.99   11.30
  -1  -6  -3   91.79   11.80
   1   6   3   99.79   12.40
   1   6   3  107.99   11.80
   1   6   3  110.49   15.00
   1   6   3  113.19   10.70
  -2  -6  -3  981.60   57.29
  -2  -6  -3  908.91   58.39
  -2  -6  -3  899.01   58.79
  -2  -6  -3 1028.30   58.89
   2   6   3  987.60   58.29
   2   6   3 1028.00   57.69
   2   6   3  917.81   59.59
  -3  -6  -3  539.15   35.00
  -3  -6  -3  524.45   36.10
  -3  -6  -3  604.84   36.80
   3   6   3  485.35   37.10
   3   6   3  570.94   35.00
   3   6   3  576.14   36.30
  -4  -6  -3   50.09   13.80
  -4  -6  -3   47.40   10.20
  -4  -6  -3   40.80    8.40
  -4  -6  -3   57.59   11.70
   4   6   3   38.50   14.50
   4   6   3   57.49   12.60
   4   6   3   43.60   10.60
  -5  -6  -3  121.29   15.80
  -5  -6  -3  113.79   16.20
  -5  -6  -3  101.79   17.00
   5   6   3  127.69   20.20
   5   6   3  150.88   18.50
 -10   7   3  359.06   30.70
   9  -7  -3   17.00    9.40
  -9   7   3    8.10   11.80
   8  -7  -3  471.85   31.50
  -8   7   3  465.05   33.40
  -8   7   3  493.15   30.40
  -8   7   3  486.45   29.30
   7  -7  -3  884.21   54.79
   7  -7  -3  889.31   54.09
  -7   7   3  867.71   55.79
  -7   7   3 1031.10   56.09
  -7   7   3  828.32   53.69
  -7   7   3  919.41   53.19
   6  -7  -3  269.47   19.90
   6  -7  -3  299.47   19.50
  -6   7   3  274.57   18.00
  -6   7   3  270.37   17.80
  -6   7   3  286.67   20.90
  -6   7   3  294.17   21.00
   5  -7  -3   72.89   10.70
   5  -7  -3   67.89   10.60
   5  -7  -3   87.69    9.90
  -5   7   3   87.59    8.30
  -5   7   3   95.39   12.50
  -5   7   3   85.39    8.20
  -5   7   3   94.69   11.40
   4  -7  -3  650.03   37.90
   4  -7  -3  658.23   39.40
   4  -7  -3  567.84   39.40
   4  -7  -3  625.64   39.20
  -4   7   3  701.43   39.20
  -4   7   3  653.53   39.30
  -4   7   3  611.44   38.30
  -4   7   3  672.43   38.40
   3  -7  -3  797.32   50.19
   3  -7  -3  826.12   50.79
   3  -7  -3  846.42   51.99
   3  -7  -3  921.01   51.49
  -3   7   3  943.31   50.89
  -3   7   3  892.71   51.59
  -3   7   3  754.72   50.99
   2  -7  -3  408.66   25.90
   2  -7  -3  397.16   23.80
  -2   7   3  387.16   24.20
  -2   7   3  358.46   24.30
  -2   7   3  386.66   25.20
   1  -7  -3   30.50    5.70
   1  -7  -3   40.70    8.90
   1  -7  -3   51.19    7.70
  -1   7   3   36.70    8.20
  -1   7   3   37.30    7.00
  -1   7   3   45.10   11.30
  -1   7   3   39.70    6.10
   0  -7  -3 1200.58   66.19
   0  -7  -3  998.40   66.79
   0  -7  -3 1021.20   67.59
   0  -7  -3 1102.89   66.39
   0   7   3 1119.39   68.89
   0   7   3 1219.18   66.49
   0   7   3 1182.18   67.09
  -1  -7  -3  952.10   57.19
  -1  -7  -3  975.90   56.29
   1   7   3  904.81   58.79
  -2  -7  -3   22.30    8.30
  -2  -7  -3   22.50    6.40
  -2  -7  -3   16.00    6.10
  -2  -7  -3   20.60    8.50
   2   7   3   19.50   12.00
   2   7   3   27.10    8.20
   2   7   3   22.10   11.30
  -3  -7  -3  408.96   29.10
  -3  -7  -3  423.56   27.80
  -3  -7  -3  404.46   27.40
   3   7   3  441.96   31.70
   3   7   3  417.56   28.50
   3   7   3  365.76   36.80
  -4  -7  -3  469.55   30.30
  -4  -7  -3  409.16   31.60
  -4  -7  -3  411.06   33.70
   4   7   3  415.66   37.50
   4   7   3  477.15   32.90
   4   7   3  468.05   31.50
   9  -8  -3  346.97   25.70
  -9   8   3  374.46   28.60
  -9   8   3  349.77   29.00
   8  -8  -3  203.98   17.90
  -8   8   3  221.18   13.60
  -8   8   3  194.98   21.90
  -8   8   3  174.78   19.70
   7  -8  -3   71.79    9.90
   7  -8  -3   89.19   12.40
  -7   8   3   85.69   11.50
  -7   8   3   85.69    7.80
  -7   8   3   78.49   13.50
   6  -8  -3  885.41   48.60
   6  -8  -3  764.62   48.60
  -6   8   3  801.22   46.60
  -6   8   3  708.63   48.60
   5  -8  -3  846.52   52.19
   5  -8  -3  782.42   52.09
  -5   8   3  872.91   51.99
  -5   8   3  934.41   52.19
   4  -8  -3   21.70    6.60
   4  -8  -3   19.40    8.40
   4  -8  -3   21.10    4.10
  -4   8   3   16.30    7.20
  -4   8   3   17.20    5.50
  -4   8   3   24.20    5.90
   3  -8  -3  429.66   28.90
   3  -8  -3  419.56   29.10
  -3   8   3  469.15   27.30
  -3   8   3  474.05   29.60
  -3   8   3  424.26   27.70
   2  -8  -3 1081.89   62.39
   2  -8  -3 1047.30   60.19
  -2   8   3  999.90   61.29
  -2   8   3 1049.40   60.39
  -2   8   3  917.51   62.69
   1  -8  -3  489.45   28.00
   1  -8  -3  442.96   32.10
  -1   8   3  428.76   32.40
  -1   8   3  470.25   29.30
  -1   8   3  403.36   30.80
   0  -8  -3   13.30    6.20
   0  -8  -3   17.20    3.80
   0  -8  -3   23.40    8.30
   0  -8  -3   25.70    5.80
   0   8   3   28.00    8.00
   0   8   3   16.70    9.60
  -1  -8  -3  391.16   26.80
  -1  -8  -3  287.77   24.00
  -1  -8  -3  377.66   22.90
   1   8   3  318.07   30.70
   1   8   3  378.26   26.50
   1   8   3  343.97   24.40
  -2  -8  -3  448.76   29.90
  -2  -8  -3  453.15   32.20
  -2  -8  -3  477.65   32.00
   2   8   3  408.16   36.10
   2   8   3  489.95   31.00
   2   8   3  466.65   33.10
  -3  -8  -3  147.09   22.10
  -3  -8  -3  140.59   18.60
  -3  -8  -3  148.59   17.00
   3   8   3  166.08   29.60
   3   8   3  149.69   18.60
   3   8   3  170.28   21.20
  -9   9   3   35.70   13.40
   8  -9  -3  530.35   39.20
  -8   9   3  651.43   41.50
  -8   9   3  633.24   40.70
   7  -9  -3  267.47   22.90
   7  -9  -3  313.67   22.30
  -7   9   3  312.07   23.70
  -7   9   3  322.77   24.50
   6  -9  -3   18.20    7.60
   6  -9  -3   18.60    9.90
  -6   9   3   13.00    8.90
  -6   9   3   14.90    4.10
  -6   9   3    7.90   11.60
   5  -9  -3  296.67   23.30
   5  -9  -3  302.47   23.80
  -5   9   3  374.86   20.80
  -5   9   3  359.56   24.80
  -5   9   3  336.67   22.50
   4  -9  -3  933.71   55.09
   4  -9  -3  706.03   51.19
  -4   9   3  861.61   51.59
  -4   9   3  849.91   49.60
   3  -9  -3  273.57   18.40
   3  -9  -3  287.47   23.50
  -3   9   3  269.87   24.90
  -3   9   3  282.27   21.60
   2  -9  -3    2.20    5.00
   2  -9  -3    5.10    8.00
  -2   9   3   -2.70   14.80
  -2   9   3  -10.90    9.30
  -2   9   3    2.60    6.40
   1  -9  -3  541.05   37.70
   1  -9  -3  595.54   35.00
  -1   9   3  562.44   38.40
  -1   9   3  617.64   35.50
  -1   9   3  519.45   39.60
   0  -9  -3  610.54   39.40
   0  -9  -3  695.73   42.80
   0   9   3  621.14   45.60
   0   9   3  664.13   40.40
   0   9   3  650.73   42.20
  -1  -9  -3   71.39   15.00
   1   9   3   90.69   14.50
   1   9   3  123.99   18.90
   1   9   3   96.99   19.00
  -2  -9  -3   35.60   11.50
  -2  -9  -3   16.00    9.40
   2   9   3   20.50    9.90
   2   9   3   39.80   13.30
   2   9   3   28.70   19.50
   8 -10  -3   14.10   10.40
  -8  10   3    5.80   14.60
   7 -10  -3  212.08   18.70
   7 -10  -3  193.08   18.80
  -7  10   3  222.28   22.30
   6 -10  -3  457.75   32.00
   6 -10  -3  418.06   31.60
  -6  10   3  531.05   33.20
   5 -10  -3  113.29   14.50
   5 -10  -3   86.19   14.40
  -5  10   3  132.29   19.90
  -5  10   3  106.59   10.30
   4 -10  -3   26.40   10.10
  -4  10   3   33.90   14.80
  -4  10   3   45.30    6.30
  -4  10   3   44.90   12.80
  -3  10   3  469.35   31.70
  -3  10   3  399.86   34.50
  -3  10   3  473.55   28.40
   2 -10  -3  425.66   33.00
  -2  10   3  518.25   33.30
  -2  10   3  450.35   38.10
  -2  10   3  494.55   30.20
   1 -10  -3   27.90   10.50
  -1  10   3   33.60    8.80
  -1  10   3   29.00   18.70
  -1  10   3   20.60   12.20
   0 -10  -3  112.09   16.90
   0  10   3  128.89   15.40
   0  10   3  106.09   22.20
   0  10   3   99.39   16.80
  -1 -10  -3  435.76   31.30
   1  10   3  358.26   38.90
   1  10   3  428.76   33.20
   1  10   3  425.56   30.90
   7 -11  -3   24.00   13.60
   7 -11  -3   39.00   12.30
  -7  11   3   32.70   15.60
   6 -11  -3   74.09   16.00
   6 -11  -3   76.49   13.40
  -6  11   3   76.79   11.10
  -6  11   3   67.09   14.90
  -6  11   3  104.19   21.20
   5 -11  -3  430.56   30.80
  -5  11   3  398.26   31.60
  -5  11   3  398.06   37.10
  -5  11   3  410.16   26.10
   4 -11  -3  508.15   34.40
  -4  11   3  399.16   38.00
  -4  11   3  477.15   34.90
  -4  11   3  499.85   30.20
   3 -11  -3    0.40   11.30
  -3  11   3   17.60   17.30
  -3  11   3  -25.40   12.80
  -3  11   3    6.40    7.70
   2 -11  -3   98.69   17.70
  -2  11   3   95.69   22.30
  -2  11   3  111.79   17.10
  -2  11   3  131.59   14.40
   1 -11  -3  295.37   26.60
  -1  11   3  313.37   27.50
  -1  11   3  316.87   35.40
  -1  11   3  374.36   24.20
   4 -12  -3  215.28   28.70
  -1  12  -4   76.59   23.70
  -1  12  -4   90.99   13.70
  -1  12  -4   72.79   13.50
   1 -12   4   75.89   16.60
  -2  12  -4   31.90   12.90
  -2  12  -4   -1.50   19.30
  -2  12  -4    4.40   12.20
   2 -12   4    6.90   11.10
  -3  12  -4  512.35   41.80
  -3  12  -4  534.85   37.10
   3 -12   4  452.35   35.70
  -4  12  -4  304.57   27.80
   4 -12   4  304.27   25.50
   1  11  -4  157.78   29.80
   1  11  -4  143.69   18.60
   1  11  -4  120.39   14.30
   1  11  -4  119.79   20.00
  -1 -11   4  140.09   19.70
   0  11  -4  197.78   16.10
   0  11  -4  211.58   22.40
   0  11  -4  180.28   21.90
   0  11  -4  242.98   30.70
   0 -11   4  186.88   17.90
   0 -11   4  199.48   20.90
  -1  11  -4  605.84   36.40
  -1  11  -4  588.74   38.90
  -1  11  -4  633.34   41.10
  -1  11  -4  652.63   44.80
   1 -11   4  514.75   39.80
   1 -11   4  556.74   37.20
  -2  11  -4  177.18   26.80
  -2  11  -4  167.38   13.20
  -2  11  -4  176.38   20.40
  -2  11  -4  154.38   19.30
   2 -11   4  144.79   18.20
   2 -11   4  156.48   15.80
  -3  11  -4   64.79   16.60
  -3  11  -4   57.79   13.00
  -3  11  -4   34.40   12.10
   3 -11   4   56.79   12.20
   3 -11   4   40.30    9.70
  -4  11  -4   65.89   13.70
  -4  11  -4   79.19   11.50
  -4  11  -4   95.99   17.90
   4 -11   4   64.19   10.40
  -5  11  -4  484.65   36.70
  -5  11  -4  489.15   38.70
   5 -11   4  503.35   32.10
  -6  11  -4  140.29   22.50
   6 -11   4  216.78   17.50
   3  10  -4  100.29   12.80
   3  10  -4   96.39   22.80
   3  10  -4   65.09   14.60
   3  10  -4  122.19   20.00
  -3 -10   4  102.59   14.70
  -3 -10   4   98.99   17.70
   2  10  -4  153.98   14.60
   2  10  -4  156.18   20.00
   2  10  -4  166.28   27.50
   2  10  -4  193.58   21.90
  -2 -10   4  169.88   16.50
  -2 -10   4  131.59   17.20
   1  10  -4  649.54   41.30
   1  10  -4  640.84   46.70
   1  10  -4  600.04   42.00
   1  10  -4  655.43   38.40
  -1 -10   4  565.24   40.80
  -1 -10   4  631.04   39.20
   0  10  -4  477.35   35.30
   0  10  -4  424.76   31.20
   0  10  -4  434.36   27.10
   0 -10   4  396.36   28.10
   0 -10   4  408.16   30.00
  -1  10  -4    1.70   15.20
  -1  10  -4   13.70    6.20
  -1  10  -4   10.00    7.20
  -1  10  -4   15.00   10.00
   1 -10   4   -1.70    8.60
   1 -10   4    2.10    8.00
  -2  10  -4  354.16   27.10
  -2  10  -4  357.96   21.80
  -2  10  -4  361.06   30.10
  -2  10  -4  381.06   24.30
   2 -10   4  335.37   23.60
   2 -10   4  320.17   25.90
  -3  10  -4  508.05   33.80
  -3  10  -4  457.65   35.10
  -3  10  -4  471.95   30.40
   3 -10   4  467.95   31.30
   3 -10   4  509.05   33.50
  -4  10  -4  274.07   22.40
  -4  10  -4  268.77   18.70
  -4  10  -4  252.77   30.10
  -4  10  -4  233.28   20.40
   4 -10   4  262.67   19.40
  -5  10  -4   10.10    9.50
  -5  10  -4    5.00   12.00
   5 -10   4    9.20    8.40
  -6  10  -4  378.86   34.20
   6 -10   4  395.56   26.80
   7 -10   4  257.27   23.80
   4   9  -4  241.18   31.50
   4   9  -4  239.78   28.60
   4   9  -4  233.38   24.50
   4   9  -4  236.28   20.00
  -4  -9   4  250.37   21.70
  -4  -9   4  227.38   19.50
  -4  -9   4  244.58   19.60
   3   9  -4  563.14   40.20
   3   9  -4  633.74   46.40
   3   9  -4  594.44   39.50
   3   9  -4  610.04   37.30
  -3  -9   4  582.94   37.40
  -3  -9   4  594.74   38.60
  -3  -9   4  576.54   36.40
   2   9  -4  195.08   20.20
   2   9  -4  233.88   25.50
   2   9  -4  211.58   21.10
   2   9  -4  213.08   16.20
  -2  -9   4  231.68   16.90
  -2  -9   4  203.38   15.30
  -2  -9   4  192.98   17.80
   1   9  -4    9.00   15.00
   1   9  -4    5.70    8.20
   1   9  -4    3.50    8.20
   1   9  -4    4.00    5.70
  -1  -9   4    6.00    7.20
  -1  -9   4   -2.20    5.40
  -1  -9   4    0.80    7.60
   0   9  -4  472.55   34.60
   0   9  -4  420.56   32.50
   0   9  -4  512.55   31.20
   0  -9   4  552.94   33.40
   0  -9   4  477.25   30.50
  -1   9  -4  903.51   59.99
  -1   9  -4  990.10   55.49
  -1   9  -4  927.61   56.39
   1  -9   4  953.30   58.69
   1  -9   4  934.91   56.39
  -2   9  -4  284.27   18.00
  -2   9  -4  306.37   19.70
  -2   9  -4  345.97   24.20
   2  -9   4  250.77   20.00
   2  -9   4  270.37   22.00
  -3   9  -4   82.89   14.70
  -3   9  -4   69.89   13.30
  -3   9  -4   59.69   10.10
   3  -9   4   69.89   12.40
   3  -9   4   70.79   11.70
  -4   9  -4  788.12   54.99
  -4   9  -4  921.71   54.69
  -4   9  -4  961.70   57.09
  -4   9  -4  980.70   56.99
   4  -9   4  938.61   55.19
  -5   9  -4  646.54   42.10
  -5   9  -4  618.04   39.80
  -5   9  -4  687.43   41.80
  -5   9  -4  692.33   42.60
   5  -9   4  630.84   40.80
  -6   9  -4   23.30    8.70
  -6   9  -4   17.00   10.10
   6  -9   4   31.90    9.30
  -7   9  -4  144.09   19.10
  -7   9  -4  190.28   22.90
   5   8  -4  460.15   30.80
   5   8  -4  465.75   43.00
   5   8  -4  430.96   34.00
  -5  -8   4  481.35   31.70
  -5  -8   4  475.15   31.80
   4   8  -4  443.86   29.20
   4   8  -4  456.85   32.10
   4   8  -4  443.06   39.70
   4   8  -4  434.26   32.10
  -4  -8   4  465.25   30.90
   3   8  -4   16.90    7.00
   3   8  -4   38.70   17.10
   3   8  -4   25.20    9.80
   3   8  -4   23.70    8.90
  -3  -8   4   32.80    6.60
   2   8  -4  651.63   38.70
   2   8  -4  705.43   44.80
   2   8  -4  600.34   43.00
   2   8  -4  669.13   39.70
  -2  -8   4  635.74   38.40
  -2  -8   4  571.54   40.00
  -2  -8   4  638.64   39.10
   1   8  -4 2000.90  110.59
   1   8  -4 1790.72  105.59
   1   8  -4 1799.72  107.59
   1   8  -4 1756.02  106.09
  -1  -8   4 1772.92  107.19
  -1  -8   4 1808.42  105.49
  -1  -8   4 1716.43  105.69
   0   8  -4  206.78   19.80
   0   8  -4  191.28   15.10
   0   8  -4  166.48   11.90
   0   8  -4  192.48   16.00
   0   8  -4  153.68   12.80
   0  -8   4  171.88   14.70
   0  -8   4  162.68   12.50
   0  -8   4  150.38   14.10
  -1   8  -4  771.62   44.70
  -1   8  -4  757.42   47.20
  -1   8  -4  745.83   44.70
  -1   8  -4  773.92   48.10
  -1   8  -4  739.53   45.40
   1  -8   4  736.33   45.40
   1  -8   4  729.93   44.70
   1  -8   4  694.83   45.50
   1  -8   4  870.71   47.60
  -2   8  -4  666.13   42.00
  -2   8  -4  731.83   43.00
  -2   8  -4  714.53   42.10
  -2   8  -4  775.32   45.30
  -2   8  -4  752.42   44.90
   2  -8   4  729.53   43.30
   2  -8   4  649.54   44.50
  -3   8  -4  495.45   30.80
  -3   8  -4  482.85   29.90
  -3   8  -4  372.86   27.50
  -3   8  -4  433.96   27.30
   3  -8   4  431.76   28.10
   3  -8   4  455.15   29.60
  -4   8  -4   19.40    8.00
  -4   8  -4   24.10    6.60
  -4   8  -4   24.00    5.20
  -4   8  -4   25.50    9.50
   4  -8   4   16.30    7.50
  -5   8  -4  134.59   16.10
  -5   8  -4  154.78   12.40
  -5   8  -4  152.68   15.10
  -5   8  -4  150.98   14.70
  -5   8  -4  160.08   14.80
   5  -8   4  162.28   13.90
  -6   8  -4  452.95   29.80
  -6   8  -4  394.06   29.10
  -6   8  -4  391.06   32.00
  -6   8  -4  395.56   33.90
  -6   8  -4  409.16   26.30
   6  -8   4  465.35   28.50
  -7   8  -4  477.15   34.60
  -7   8  -4  360.86   32.20
   7  -8   4  483.95   30.20
  -8   8  -4   -9.60   16.10
  -8   8  -4  -20.60   14.60
   8  -8   4   -7.10   11.40
   6   7  -4   76.09   23.20
   6   7  -4   64.39    9.90
   6   7  -4   43.80   12.30
  -6  -7   4   64.79   10.40
  -6  -7   4   96.39   19.30
   5   7  -4  152.08   29.40
   5   7  -4  146.79   17.90
   5   7  -4  152.98   15.20
  -5  -7   4  161.38   15.20
  -5  -7   4  168.38   19.60
  -5  -7   4  166.98   14.20
   4   7  -4  494.65   34.00
   4   7  -4  496.65   37.20
   4   7  -4  459.55   30.80
  -4  -7   4  461.95   30.90
  -4  -7   4  522.55   34.10
  -4  -7   4  510.95   31.60
  -4  -7   4  473.85   30.40
   3   7  -4 1141.89   68.19
   3   7  -4 1175.28   69.19
  -3  -7   4 1089.09   68.39
  -3  -7   4 1089.79   67.29
  -3  -7   4 1204.28   67.69
   2   7  -4   36.90   11.80
   2   7  -4   14.40    5.70
   2   7  -4   25.10    7.10
   2   7  -4   18.00    5.00
   2   7  -4   27.00    7.90
  -2  -7   4   25.50    5.40
  -2  -7   4   15.80    5.80
  -2  -7   4   20.30    6.80
   1   7  -4  677.63   43.00
   1   7  -4  633.84   39.30
   1   7  -4  665.63   40.00
   1   7  -4  711.53   41.40
   1   7  -4  652.33   39.10
  -1  -7   4  651.63   39.60
  -1  -7   4  585.34   40.50
  -1  -7   4  677.53   39.10
   0   7  -4 1017.80   61.19
   0   7  -4 1066.99   60.89
   0   7  -4 1099.09   62.89
   0   7  -4 1078.79   63.59
   0   7  -4  862.81   62.59
   0  -7   4 1143.69   62.79
   0  -7   4 1031.70   61.19
   0  -7   4 1056.89   60.79
   0  -7   4  970.60   61.19
  -1   7  -4 1200.88   67.39
  -1   7  -4 1195.08   67.29
  -1   7  -4 1252.77   69.49
  -1   7  -4 1172.98   67.69
  -1   7  -4 1205.98   69.79
   1  -7   4 1118.29   67.79
   1  -7   4 1100.69   67.19
   1  -7   4 1138.89   67.89
   1  -7   4 1103.19   67.29
   1  -7   4 1033.20   68.99
  -2   7  -4  129.89   13.20
  -2   7  -4  141.09   10.60
  -2   7  -4  152.28    9.10
  -2   7  -4  135.69    9.40
  -2   7  -4  123.49   14.50
   2  -7   4  131.09   12.10
   2  -7   4  156.18   13.10
  -3   7  -4  737.53   43.50
  -3   7  -4  696.73   41.40
  -3   7  -4  662.23   43.40
   3  -7   4  698.93   42.30
  -4   7  -4  597.54   36.50
  -4   7  -4  566.44   36.30
  -4   7  -4  550.04   34.30
  -4   7  -4  562.44   36.70
   4  -7   4  593.34   35.60
  -5   7  -4  592.74   36.60
  -5   7  -4  588.44   37.20
  -5   7  -4  577.44   37.50
  -5   7  -4  561.84   35.10
   5  -7   4  599.64   36.60
  -6   7  -4  137.39   14.80
  -6   7  -4  133.59   16.50
  -6   7  -4  132.89   11.00
  -6   7  -4  120.19   15.70
   6  -7   4  105.79   14.20
   6  -7   4  155.38   14.00
  -7   7  -4  509.95   36.60
  -7   7  -4  514.55   36.30
   7  -7   4  516.75   33.60
  -8   7  -4  316.97   29.60
  -8   7  -4  322.17   30.50
   8  -7   4  338.47   26.10
   7   6  -4   67.69   11.00
   7   6  -4   75.89   24.80
  -7  -6   4   76.89   10.70
  -7  -6   4  119.09   19.30
   6   6  -4  742.23   53.09
   6   6  -4  711.43   44.30
   6   6  -4  703.03   44.80
  -6  -6   4  684.53   45.20
  -6  -6   4  796.32   47.90
  -6  -6   4  713.83   44.60
  -6  -6   4  706.53   44.40
   5   6  -4  527.95   35.80
   5   6  -4  568.14   42.40
   5   6  -4  514.25   34.40
  -5  -6   4  539.85   35.30
  -5  -6   4  616.54   37.80
  -5  -6   4  541.35   34.40
   4   6  -4   13.40    7.80
   4   6  -4   12.50    6.40
  -4  -6   4    9.30    6.90
  -4  -6   4    3.70    5.40
  -4  -6   4   10.00    5.20
  -4  -6   4   14.10    8.20
   3   6  -4  583.04   36.00
   3   6  -4  594.54   39.30
   3   6  -4  560.04   35.00
   3   6  -4  567.64   36.70
  -3  -6   4  589.64   35.30
  -3  -6   4  539.75   34.70
  -3  -6   4  584.04   35.80
   2   6  -4 1658.03  103.19
   2   6  -4 1752.72  101.29
   2   6  -4 1688.83  102.59
   2   6  -4 1687.53  101.29
   2   6  -4 1694.03  101.19
   2   6  -4 1704.93  101.59
  -2  -6   4 1818.12  101.39
  -2  -6   4 1766.52  101.09
  -2  -6   4 1810.22  102.39
   1   6  -4  722.93   45.40
   1   6  -4  783.62   45.40
   1   6  -4  760.42   47.20
   1   6  -4  806.22   45.50
   1   6  -4  743.93   46.00
   1   6  -4  742.03   48.50
   1   6  -4  737.43   46.70
  -1  -6   4  837.22   46.90
  -1  -6   4  810.42   45.40
  -1  -6   4  772.72   45.80
  -1  -6   4  731.83   45.90
   0   6  -4    6.10    3.40
   0   6  -4    6.80    4.30
   0   6  -4   -0.10    3.70
   0   6  -4    5.10    3.70
   0   6  -4    4.20    8.40
   0   6  -4   -5.60    5.80
   0   6  -4    9.20    6.20
   0  -6   4   -4.30    7.30
   0  -6   4    4.10    3.60
   0  -6   4    9.50    5.60
   0  -6   4    6.40    3.20
   0  -6   4   -0.10    4.70
   0  -6   4    0.00    4.80
  -1   6  -4 1011.30   70.39
  -1   6  -4 1334.57   69.89
  -1   6  -4 1273.57   69.89
  -1   6  -4 1219.78   71.89
  -1   6  -4 1159.78   70.09
  -1   6  -4 1158.98   71.59
   1  -6   4 1189.28   70.09
   1  -6   4 1208.28   70.39
   1  -6   4 1179.68   69.79
   1  -6   4 1155.58   71.59
   1  -6   4 1282.27   69.79
  -2   6  -4 2095.19  122.09
  -2   6  -4 2319.87  120.99
  -2   6  -4 2010.10  121.19
  -2   6  -4 2166.58  122.79
  -2   6  -4 2005.40  120.99
  -2   6  -4 2174.18  122.69
   2  -6   4 2086.89  121.69
   2  -6   4 1811.12  122.69
  -3   6  -4  374.36   24.00
  -3   6  -4  322.97   21.30
  -3   6  -4  390.66   23.50
   3  -6   4  319.97   22.70
  -4   6  -4  299.47   20.90
  -4   6  -4  304.47   21.20
  -4   6  -4  288.57   20.50
  -4   6  -4  285.37   18.60
   4  -6   4  319.07   20.50
  -5   6  -4  800.42   49.20
  -5   6  -4  823.12   51.09
  -5   6  -4  887.91   51.69
  -5   6  -4  806.42   49.80
   5  -6   4  854.01   50.49
  -6   6  -4  511.95   35.30
  -6   6  -4  502.15   34.80
  -6   6  -4  531.05   32.90
  -6   6  -4  627.84   36.10
   6  -6   4  505.15   33.40
   6  -6   4  566.94   34.30
  -7   6  -4   39.30   13.80
  -7   6  -4   29.30   13.70
   7  -6   4   37.10    9.00
   7  -6   4   23.20    9.30
  -8   6  -4  167.98   22.60
  -8   6  -4  178.78   24.30
   8  -6   4  139.29   15.90
   7   5  -4  188.78   33.30
   7   5  -4  250.97   18.30
   7   5  -4  259.17   20.40
  -7  -5   4  237.08   21.70
  -7  -5   4  223.88   21.90
  -7  -5   4  268.87   19.20
   6   5  -4    4.90    8.00
   6   5  -4    8.40    5.90
   6   5  -4    5.80   15.70
   6   5  -4    1.60    6.70
  -6  -5   4   12.50    5.80
  -6  -5   4    5.20    6.60
  -6  -5   4   18.10    7.50
  -6  -5   4   28.40    9.80
   5   5  -4  520.95   42.00
   5   5  -4  505.95   34.70
  -5  -5   4  542.65   34.50
  -5  -5   4  568.24   33.70
  -5  -5   4  560.24   33.30
   4   5  -4 1153.28   72.09
   4   5  -4 1215.28   71.89
   4   5  -4 1189.28   71.19
   4   5  -4 1211.98   74.39
  -4  -5   4 1205.18   71.09
  -4  -5   4 1277.37   72.79
  -4  -5   4 1191.38   71.79
  -4  -5   4 1198.48   71.59
   3   5  -4  382.86   25.40
   3   5  -4  403.06   24.60
   3   5  -4  361.76   23.30
   3   5  -4  342.57   23.70
   3   5  -4  348.77   23.30
   3   5  -4  375.46   23.80
  -3  -5   4  386.26   24.10
  -3  -5   4  357.76   23.20
  -3  -5   4  406.86   25.60
  -3  -5   4  372.96   23.90
   2   5  -4  158.88   11.90
   2   5  -4  162.18   13.10
   2   5  -4  151.08   12.50
   2   5  -4  170.08   14.80
   2   5  -4  164.08   13.90
   2   5  -4  167.38   11.90
   2   5  -4  172.28   12.20
   2   5  -4  178.98   18.50
  -2  -5   4  171.68   12.20
  -2  -5   4  172.48   12.70
  -2  -5   4  168.48   12.00
  -2  -5   4  168.18   12.60
   1   5  -4 1574.34   91.89
   1   5  -4 1573.84   90.99
   1   5  -4 1577.44   92.99
   1   5  -4 1584.94   90.99
   1   5  -4 1547.85   91.99
   1   5  -4 1575.74   92.39
   1   5  -4 1495.05   91.19
  -1  -5   4 1464.55   92.59
  -1  -5   4 1403.66   91.49
  -1  -5   4 1740.23   92.29
  -1  -5   4 1745.13   93.39
  -1  -5   4 1547.35   90.99
  -1  -5   4 1538.15   91.19
  -1  -5   4 1468.25   91.09
   0   5  -4 2046.20  115.39
   0   5  -4 1902.11  113.99
   0   5  -4 1915.31  113.99
   0   5  -4 2064.99  115.69
   0   5  -4 2124.89  115.19
   0   5  -4 1934.81  114.89
   0   5  -4 1917.11  113.89
   0  -5   4 1856.31  113.99
   0  -5   4 1774.52  114.49
   0  -5   4 2124.19  115.29
   0  -5   4 1984.50  113.99
   0  -5   4 1876.61  115.29
   0  -5   4 1946.61  113.89
  -1   5  -4  162.38   11.90
  -1   5  -4  219.68   13.50
  -1   5  -4  193.68   12.10
  -1   5  -4  188.38   13.80
  -1   5  -4  165.88   11.70
   1  -5   4  202.18   14.50
   1  -5   4  182.58   11.70
  -2   5  -4  892.61   50.89
  -2   5  -4  792.12   48.90
  -2   5  -4  785.62   49.00
  -2   5  -4  807.62   50.49
  -2   5  -4  865.71   50.69
  -2   5  -4  895.11   48.90
   2  -5   4  833.72   49.80
  -3   5  -4 1763.52  115.09
  -3   5  -4 1946.61  113.59
  -3   5  -4 1882.21  112.69
  -3   5  -4 2149.08  114.39
   3  -5   4 1956.40  113.39
  -4   5  -4  472.05   28.60
  -4   5  -4  422.56   26.80
  -4   5  -4  468.95   28.90
   4  -5   4  448.76   27.60
   4  -5   4  400.76   26.80
  -5   5  -4   12.00    8.30
  -5   5  -4   10.70    4.10
  -5   5  -4   13.00    7.90
   5  -5   4    9.50    5.30
   5  -5   4   12.50    6.80
  -6   5  -4  286.37   22.40
  -6   5  -4  358.26   25.20
  -6   5  -4  291.47   23.80
   6  -5   4  358.16   22.70
   6  -5   4  344.17   21.80
  -7   5  -4  616.74   42.30
  -7   5  -4  643.24   41.80
   7  -5   4  636.74   39.40
   7  -5   4  579.94   38.60
  -8   5  -4  105.49   21.10
  -8   5  -4  121.99   23.40
   8  -5   4  146.99   17.90
   8  -5   4  126.99   13.50
   8   4  -4   62.09   21.40
   8   4  -4   52.49   10.20
   8   4  -4   45.40    8.10
  -8  -4   4   57.09    9.40
  -8  -4   4   52.49   12.80
  -8  -4   4   52.39   12.50
   7   4  -4  332.37   23.00
   7   4  -4  329.47   36.40
   7   4  -4  306.77   21.90
  -7  -4   4  321.37   24.40
  -7  -4   4  312.77   22.10
  -7  -4   4  308.17   24.80
   6   4  -4  853.21   55.79
   6   4  -4  919.11   55.19
  -6  -4   4  903.81   55.89
  -6  -4   4  954.10   54.69
  -6  -4   4  957.10   57.29
   5   4  -4  464.05   28.90
   5   4  -4  441.56   30.40
   5   4  -4  447.46   29.10
   5   4  -4  488.15   34.70
  -5  -4   4  457.95   30.10
  -5  -4   4  463.45   28.80
  -5  -4   4  497.85   31.00
  -5  -4   4  467.65   28.80
   4   4  -4  498.15   30.30
   4   4  -4  438.96   34.00
   4   4  -4  461.85   30.50
   4   4  -4  489.25   29.40
  -4  -4   4  484.85   29.30
  -4  -4   4  481.55   30.70
  -4  -4   4  466.45   30.00
  -4  -4   4  508.55   29.60
   3   4  -4 2316.87  138.59
   3   4  -4 2424.86  139.79
   3   4  -4 2327.07  137.99
   3   4  -4 2262.47  137.69
   3   4  -4 2458.45  139.39
   3   4  -4 2205.68  137.59
   3   4  -4 2338.47  138.09
   3   4  -4 2563.04  138.29
  -3  -4   4 2282.67  137.69
  -3  -4   4 2419.16  138.79
  -3  -4   4 2473.95  138.29
  -3  -4   4 2166.68  137.89
  -3  -4   4 2486.55  138.39
   2   4  -4 3308.27  189.18
   2   4  -4 3018.70  188.28
   2   4  -4 3461.25  189.48
   2   4  -4 3654.43  188.88
   2   4  -4 3005.00  188.38
   2   4  -4 3125.09  188.88
   2   4  -4 3383.56  189.98
   2   4  -4 3150.18  188.48
  -2  -4   4 3173.58  189.68
  -2  -4   4 3406.76  189.18
  -2  -4   4 3561.64  188.98
  -2  -4   4 2994.40  188.28
  -2  -4   4 3034.80  188.28
  -2  -4   4 3111.79  188.48
   1   4  -4   26.20    5.30
   1   4  -4   21.60    4.40
   1   4  -4   20.50    3.90
   1   4  -4   28.10    5.20
   1   4  -4   28.50    7.50
   1   4  -4   23.60    3.60
   1   4  -4   27.70    5.60
  -1  -4   4   27.40    3.50
  -1  -4   4   21.00    4.30
  -1  -4   4   25.40    3.80
  -1  -4   4   20.10    3.90
  -1  -4   4   32.30    6.20
  -1  -4   4   23.00    6.70
  -1  -4   4   20.20    4.60
   0   4  -4 2688.53  152.78
   0   4  -4 2588.24  151.58
   0   4  -4 2918.71  152.88
   0   4  -4 2702.23  152.08
   0   4  -4 2291.57  152.38
   0   4  -4 2650.43  151.58
   0   4  -4 2648.14  151.68
   0  -4   4 2711.83  151.68
   0  -4   4 2540.75  151.58
   0  -4   4 2685.23  152.68
   0  -4   4 2638.54  151.58
   0  -4   4 2322.67  152.58
   0  -4   4 2565.24  151.78
  -1   4  -4 1998.70  128.89
  -1   4  -4 2345.37  129.89
  -1   4  -4 2147.39  128.99
  -1   4  -4 2210.78  128.99
  -1   4  -4 2056.79  129.89
  -1   4  -4 2336.17  130.19
  -1   4  -4 2434.76  130.39
   1  -4   4 2226.98  129.89
   1  -4   4 2432.86  128.99
   1  -4   4 2095.59  128.89
   1  -4   4 2162.28  129.29
  -2   4  -4  842.62   50.09
  -2   4  -4  781.62   48.40
  -2   4  -4  829.92   49.60
  -2   4  -4  766.62   48.60
  -2   4  -4  830.32   48.60
  -2   4  -4  878.01   50.29
   2  -4   4  899.91   48.50
  -3   4  -4   57.49    5.20
  -3   4  -4   53.69    8.80
  -3   4  -4   54.69    4.80
  -3   4  -4   64.09    7.60
  -3   4  -4   65.69    9.90
  -3   4  -4   47.50    5.20
  -3   4  -4   60.99    5.50
   3  -4   4   50.59    5.00
   3  -4   4   62.19    9.20
  -4   4  -4  616.64   36.10
  -4   4  -4  557.14   39.20
  -4   4  -4  641.64   38.60
  -4   4  -4  629.14   38.30
  -4   4  -4  644.44   36.00
   4  -4   4  578.44   36.70
   4  -4   4  630.64   37.20
  -5   4  -4  970.70   57.19
  -5   4  -4  862.51   56.19
  -5   4  -4  893.51   54.69
  -5   4  -4  992.90   54.69
  -5   4  -4  885.01   55.09
   5  -4   4  997.00   54.69
   5  -4   4  936.91   55.59
   5  -4   4  936.71   56.09
  -6   4  -4  427.46   31.70
   6  -4   4  350.56   25.40
   6  -4   4  441.16   26.90
  -7   4  -4   90.99   18.40
  -7   4  -4   47.00   12.00
  -7   4  -4   49.10    7.00
   7  -4   4   61.79   10.00
   7  -4   4   55.89    8.90
  -8   4  -4  557.04   42.30
  -8   4  -4  535.75   41.00
  -8   4  -4  587.44   34.80
   8  -4   4  566.24   36.80
   8  -4   4  593.04   38.30
   8   3  -4  466.95   41.90
   8   3  -4  468.95   31.80
   8   3  -4  485.85   30.90
  -8  -3   4  484.85   31.00
  -8  -3   4  463.15   33.20
  -8  -3   4  471.85   33.30
   7   3  -4   29.90    6.50
   7   3  -4   20.70    7.30
  -7  -3   4   25.20    9.70
  -7  -3   4   24.80    7.00
  -7  -3   4   18.20   10.30
   6   3  -4  698.13   43.20
   6   3  -4  604.54   38.60
   6   3  -4  584.24   37.70
   6   3  -4  618.24   37.90
  -6  -3   4  585.74   37.60
  -6  -3   4  636.94   41.40
  -6  -3   4  611.44   37.40
  -6  -3   4  623.64   38.90
   5   3  -4 1219.58   73.39
   5   3  -4 1143.59   72.69
   5   3  -4 1325.77   76.09
   5   3  -4 1235.18   72.79
  -5  -3   4 1139.69   72.59
  -5  -3   4 1247.28   73.69
  -5  -3   4 1252.17   72.49
  -5  -3   4 1311.77   74.19
   4   3  -4  379.96   25.60
   4   3  -4  436.76   31.30
   4   3  -4  410.76   26.00
   4   3  -4  469.95   27.20
   4   3  -4  430.16   25.80
   4   3  -4  423.56   27.00
  -4  -3   4  413.36   25.90
  -4  -3   4  393.36   27.10
  -4  -3   4  410.46   27.10
  -4  -3   4  420.16   26.80
  -4  -3   4  440.06   25.90
   3   3  -4  119.59   11.00
   3   3  -4  129.49    9.30
   3   3  -4  134.69    9.80
   3   3  -4  148.59   16.60
   3   3  -4  139.69   10.60
   3   3  -4  132.19   11.70
   3   3  -4  114.09    9.40
  -3  -3   4  127.19    9.60
  -3  -3   4  126.69   10.70
  -3  -3   4  128.99   10.60
  -3  -3   4  129.99    9.70
  -3  -3   4  124.69    9.70
  -3  -3   4  107.89   12.60
  -3  -3   4  125.49   12.10
   2   3  -4 1007.40   59.59
   2   3  -4  991.50   59.49
   2   3  -4 1000.20   58.69
   2   3  -4  926.11   58.79
   2   3  -4 1079.39   59.19
   2   3  -4 1000.10   58.69
   2   3  -4  997.00   59.09
   2   3  -4  978.70   60.59
  -2  -3   4  955.50   60.09
  -2  -3   4  977.60   58.89
  -2  -3   4 1023.00   59.29
  -2  -3   4  994.70   58.69
  -2  -3   4 1014.90   58.69
  -2  -3   4 1073.79   59.29
   1   3  -4 2488.15  142.69
   1   3  -4 2381.96  142.59
   1   3  -4 2280.97  141.99
   1   3  -4 2442.86  143.19
   1   3  -4 2578.64  142.09
   1   3  -4 2398.66  142.39
   1   3  -4 2536.65  142.99
   1   3  -4 2435.86  142.09
  -1  -3   4 2530.15  141.99
  -1  -3   4 2339.47  142.09
  -1  -3   4 2578.84  142.09
  -1  -3   4 2380.16  141.99
  -1  -3   4 2273.07  142.69
  -1  -3   4 2424.66  142.99
  -1  -3   4 2602.74  142.59
   0   3  -4 1102.59   67.69
   0   3  -4 1181.38   66.69
   0   3  -4 1154.98   66.69
   0   3  -4 1231.28   67.89
   0   3  -4 1139.29   67.29
   0   3  -4  992.40   67.39
   0  -3   4 1121.79   67.59
   0  -3   4 1237.08   67.79
   0  -3   4 1246.78   66.79
   0  -3   4 1099.39   66.89
   0  -3   4 1147.09   66.69
   0  -3   4 1084.29   66.49
  -1   3  -4    9.30    2.50
  -1   3  -4    6.90    3.90
  -1   3  -4    9.30    4.80
  -1   3  -4   10.20    2.60
  -1   3  -4   15.70    4.70
   1  -3   4    4.40    3.90
   1  -3   4   11.70    4.30
   1  -3   4   13.00    2.80
   1  -3   4   10.40    2.60
  -2   3  -4 2911.51  172.28
  -2   3  -4 3078.39  173.48
  -2   3  -4 2721.53  172.28
  -2   3  -4 2855.71  172.68
  -2   3  -4 2977.00  173.48
   2  -3   4 3072.99  172.78
   2  -3   4 3139.09  172.28
   2  -3   4 3006.90  173.28
  -3   3  -4 1823.92  107.49
  -3   3  -4 1688.93  105.99
  -3   3  -4 1827.32  107.49
  -3   3  -4 1750.02  107.49
  -3   3  -4 1775.72  105.99
  -3   3  -4 1815.22  106.09
   3  -3   4 2024.40  107.29
   3  -3   4 1892.31  106.09
   3  -3   4 1827.82  106.59
  -4   3  -4   16.30    7.60
  -4   3  -4   20.80    7.70
  -4   3  -4    2.80    5.60
  -4   3  -4   13.20    3.40
  -4   3  -4   17.10    3.50
  -4   3  -4    6.50    3.10
   4  -3   4   13.30    5.70
   4  -3   4   13.80    3.80
   4  -3   4   11.70    4.10
  -5   3  -4  409.66   25.20
  -5   3  -4  445.86   28.40
  -5   3  -4  387.76   26.70
  -5   3  -4  404.06   25.60
  -5   3  -4  451.75   25.10
   5  -3   4  434.36   25.40
   5  -3   4  431.06   26.70
   5  -3   4  366.06   25.70
  -6   3  -4  746.53   42.90
   6  -3   4  708.53   44.50
   6  -3   4  713.03   44.00
  -7   3  -4  246.48   16.70
  -7   3  -4  280.77   22.70
  -7   3  -4  245.68   24.60
   7  -3   4  247.38   20.10
   7  -3   4  202.48   17.80
  -8   3  -4   11.90   13.90
  -8   3  -4  -11.80   16.80
   8  -3   4   13.80    7.30
   8  -3   4    8.70   11.50
   9   2  -4   12.10   11.70
  -9  -2   4    6.60    7.80
  -9  -2   4   11.60   11.90
  -9  -2   4   -3.40   12.00
   8   2  -4  371.36   26.40
   8   2  -4  429.86   36.30
  -8  -2   4  405.16   28.70
  -8  -2   4  357.66   26.40
  -8  -2   4  420.46   30.20
   7   2  -4 1076.69   64.09
   7   2  -4 1045.50   63.79
   7   2  -4  984.10   63.89
   7   2  -4 1139.49   68.79
  -7  -2   4 1022.20   63.79
  -7  -2   4 1161.88   66.09
   6   2  -4  473.05   29.60
   6   2  -4  493.35   29.80
   6   2  -4  444.76   30.40
   6   2  -4  485.45   35.50
  -6  -2   4  480.95   29.50
  -6  -2   4  465.15   30.90
  -6  -2   4  505.15   31.80
   5   2  -4   12.20    4.10
   5   2  -4    6.30    5.30
   5   2  -4    5.10    4.30
   5   2  -4   -2.90   10.30
  -5  -2   4    1.40    4.40
  -5  -2   4    0.30    5.50
  -5  -2   4    4.90    6.50
   4   2  -4 2742.73  154.18
   4   2  -4 2606.14  154.78
   4   2  -4 2556.54  155.88
   4   2  -4 2730.33  155.08
   4   2  -4 2874.31  154.98
   4   2  -4 2658.43  154.18
   4   2  -4 2633.54  153.98
  -4  -2   4 2703.43  155.08
  -4  -2   4 2342.67  155.28
  -4  -2   4 2490.25  154.38
  -4  -2   4 2754.02  154.98
  -4  -2   4 2690.13  154.08
  -4  -2   4 2634.94  154.08
   3   2  -4 3912.61  214.48
   3   2  -4 3669.23  215.18
   3   2  -4 3839.92  215.08
   3   2  -4 3654.83  214.38
   3   2  -4 3637.54  215.98
   3   2  -4 3797.02  214.58
   3   2  -4 3747.02  215.18
   3   2  -4 3584.04  214.48
  -3  -2   4 3684.43  214.48
  -3  -2   4 3651.33  214.68
  -3  -2   4 3717.33  214.48
  -3  -2   4 3410.26  215.58
  -3  -2   4 3723.93  215.08
  -3  -2   4 3674.03  215.18
   2   2  -4   82.89    7.00
   2   2  -4   82.39    7.20
   2   2  -4   86.59    8.00
   2   2  -4   82.39    5.70
   2   2  -4   79.29    6.50
   2   2  -4   71.79   10.60
   2   2  -4   83.09    6.40
   2   2  -4   84.99    8.30
  -2  -2   4   72.39    7.10
  -2  -2   4   78.89    6.50
  -2  -2   4   75.39    7.80
  -2  -2   4   78.99    7.40
  -2  -2   4   72.39   10.00
  -2  -2   4   80.49    7.00
   1   2  -4  597.04   35.20
   1   2  -4  593.64   35.70
   1   2  -4  593.44   36.20
   1   2  -4  578.14   35.80
   1   2  -4  627.64   35.20
   1   2  -4  579.04   36.70
   1   2  -4  607.14   35.70
  -1  -2   4  621.64   35.20
  -1  -2   4  619.54   35.90
  -1  -2   4  614.54   35.20
  -1  -2   4  596.34   36.10
  -1  -2   4  609.64   36.60
  -1  -2   4  564.34   35.10
  -1  -2   4  564.64   35.30
   0   2  -4 3974.10  220.98
   0   2  -4 4013.10  220.88
   0   2  -4 3728.93  220.08
   0   2  -4 3541.15  220.98
   0   2  -4 3571.74  220.18
   0  -2   4 4157.58  221.08
   0  -2   4 3952.40  220.18
   0  -2   4 3512.55  220.08
   0  -2   4 3715.93  220.28
  -1   2  -4 1940.71  109.29
  -1   2  -4 1699.13  108.79
  -1   2  -4 1922.31  109.89
  -1   2  -4 1797.62  108.79
   1  -2   4 1787.12  108.79
   1  -2   4 1846.42  108.99
   1  -2   4 1942.61  109.19
   1  -2   4 1895.81  108.79
   1  -2   4 2022.50  109.89
  -2   2  -4  143.09   10.20
  -2   2  -4  147.79   10.10
   2  -2   4  181.08   11.10
   2  -2   4  155.78   10.10
   2  -2   4  145.79   10.20
  -3   2  -4  505.95   31.30
  -3   2  -4  489.05   31.40
  -3   2  -4  490.35   29.20
  -3   2  -4  469.25   29.30
  -3   2  -4  478.35   29.30
   3  -2   4  481.35   29.30
   3  -2   4  545.85   30.90
   3  -2   4  489.05   29.20
   3  -2   4  491.15   30.10
  -4   2  -4 2875.91  161.38
  -4   2  -4 2677.13  159.78
  -4   2  -4 2795.42  160.78
  -4   2  -4 2553.64  159.68
  -4   2  -4 2705.43  159.78
   4  -2   4 2897.41  160.58
   4  -2   4 2680.83  160.28
   4  -2   4 2487.35  159.68
   4  -2   4 3023.90  160.28
   4  -2   4 2802.72  159.78
  -5   2  -4  490.15   28.20
  -5   2  -4  412.86   29.10
  -5   2  -4  468.25   28.70
  -5   2  -4  524.55   31.60
  -5   2  -4  401.36   28.60
   5  -2   4  484.25   28.10
   5  -2   4  500.15   30.10
   5  -2   4  488.35   29.20
   5  -2   4  433.26   28.70
  -6   2  -4    9.70    4.60
  -6   2  -4   22.00    9.50
   6  -2   4   14.90    4.80
   6  -2   4   15.60    6.50
   6  -2   4   12.00    7.80
  -7   2  -4  290.17   27.90
  -7   2  -4  328.27   21.20
  -7   2  -4  298.27   25.90
   7  -2   4  330.57   24.90
   7  -2   4  332.17   22.60
  -8   2  -4  579.74   42.60
  -8   2  -4  520.55   40.80
  -8   2  -4  561.64   35.40
   8  -2   4  584.24   38.50
   8  -2   4  567.14   36.00
   9   1  -4  643.44   40.50
  -9  -1   4  600.44   43.00
  -9  -1   4  653.53   40.80
  -9  -1   4  664.53   44.20
   8   1  -4  143.39   13.30
   8   1  -4  144.59   13.70
  -8  -1   4  125.79   14.20
  -8  -1   4  134.79   17.70
  -8  -1   4  139.19   17.90
   7   1  -4  117.99   11.20
   7   1  -4  106.19   11.10
   7   1  -4  130.19   21.10
  -7  -1   4  121.79   16.10
  -7  -1   4  114.79   13.60
   6   1  -4  657.23   42.10
   6   1  -4  696.13   41.50
   6   1  -4  711.93   41.80
   6   1  -4  682.53   47.10
  -6  -1   4  677.13   42.70
  -6  -1   4  719.53   41.50
  -6  -1   4  694.43   43.10
   5   1  -4 1935.51  115.59
   5   1  -4 1913.91  112.79
   5   1  -4 2019.20  113.09
   5   1  -4 2024.00  113.99
   5   1  -4 1866.41  113.29
  -5  -1   4 1994.20  113.89
  -5  -1   4 1701.03  114.29
  -5  -1   4 1996.50  113.89
  -5  -1   4 1984.50  112.69
  -5  -1   4 1867.81  112.69
   4   1  -4  346.87   22.80
   4   1  -4  356.56   26.90
   4   1  -4  351.96   22.40
   4   1  -4  361.36   22.80
   4   1  -4  354.56   21.50
   4   1  -4  352.66   21.30
   4   1  -4  361.76   20.70
   4   1  -4  368.36   21.50
  -4  -1   4  327.67   22.10
  -4  -1   4  351.46   22.80
  -4  -1   4  342.27   22.60
  -4  -1   4  293.07   24.40
  -4  -1   4  355.96   21.50
  -4  -1   4  342.57   21.60
   3   1  -4  342.07   19.80
   3   1  -4  340.37   20.00
   3   1  -4  339.77   20.00
   3   1  -4  314.97   23.80
   3   1  -4  327.07   21.30
   3   1  -4  335.07   20.80
   3   1  -4  334.67   20.10
   3   1  -4  326.37   20.90
  -3  -1   4  311.97   22.50
  -3  -1   4  313.97   20.60
  -3  -1   4  349.27   20.10
  -3  -1   4  308.57   20.60
  -3  -1   4  331.17   20.10
  -3  -1   4  334.17   20.70
  -3  -1   4  324.37   21.00
   2   1  -4 3468.85  190.48
   2   1  -4 3298.57  190.78
   2   1  -4 3562.34  191.28
   2   1  -4 3275.27  190.38
   2   1  -4 3017.50  189.88
   2   1  -4 3259.97  190.18
   2   1  -4 3033.50  189.98
  -2  -1   4 3419.26  191.08
  -2  -1   4 3353.26  190.58
  -2  -1   4 3166.98  189.98
  -2  -1   4 3366.96  190.58
  -2  -1   4 3055.89  189.88
   1   1  -4 4949.30  270.37
   1   1  -4 4257.97  269.47
   1   1  -4 4979.20  270.07
   1   1  -4 4975.70  270.47
   1   1  -4 4128.59  269.47
  -1  -1   4 4068.79  269.47
  -1  -1   4 4327.17  269.47
  -1  -1   4 5126.59  270.47
  -1  -1   4 4195.38  269.37
  -1  -1   4 5118.09  270.37
  -1  -1   4 5005.00  270.17
   0   1  -4  159.18   10.00
   0   1  -4  156.48   12.50
   0   1  -4  161.38   11.50
   0   1  -4  171.38   12.60
   0   1  -4  157.68   10.10
   0  -1   4  156.98   11.50
   0  -1   4  149.09   10.20
   0  -1   4  150.48    9.30
   0  -1   4  147.49   10.10
   0  -1   4  155.18   10.20
   0  -1   4  160.88   12.10
  -1   1  -4 1567.34   89.79
  -1   1  -4 1447.76   89.49
  -1   1  -4 1670.63   91.19
  -1   1  -4 1472.55   89.79
   1  -1   4 1554.14   89.79
   1  -1   4 1580.54   90.99
   1  -1   4 1435.96   89.59
   1  -1   4 1569.04   89.99
   1  -1   4 1598.14   90.09
   1  -1   4 1546.55   89.79
  -2   1  -4 1664.63   97.29
  -2   1  -4 1630.34   96.09
  -2   1  -4 1637.14   96.29
  -2   1  -4 1754.02   97.59
  -2   1  -4 1569.44   96.19
   2  -1   4 1747.13   97.49
   2  -1   4 1581.64   96.29
   2  -1   4 1639.84   96.49
   2  -1   4 1666.33   96.29
  -3   1  -4  535.35   31.00
  -3   1  -4  532.25   33.00
  -3   1  -4  541.25   33.00
  -3   1  -4  483.65   31.00
  -3   1  -4  513.65   31.00
   3  -1   4  478.35   31.00
   3  -1   4  566.04   32.90
   3  -1   4  513.55   31.60
   3  -1   4  525.65   31.00
  -4   1  -4  121.59    9.40
  -4   1  -4  116.99    9.70
  -4   1  -4  133.79   14.20
  -4   1  -4  120.49   11.70
  -4   1  -4  134.39   10.20
   4  -1   4  107.89   11.90
   4  -1   4  124.69   11.20
  -5   1  -4  420.56   28.00
  -5   1  -4  451.75   28.60
  -5   1  -4  483.35   31.40
  -5   1  -4  476.55   27.80
   5  -1   4  458.95   29.10
   5  -1   4  457.15   27.70
   5  -1   4  438.96   29.00
  -6   1  -4  607.44   41.00
   6  -1   4  617.34   38.00
   6  -1   4  649.83   39.60
   6  -1   4  644.94   38.80
  -7   1  -4  127.39   19.60
  -7   1  -4  123.29   18.90
  -7   1  -4  147.19   13.00
   7  -1   4  154.28   17.90
   7  -1   4  123.09   13.20
  -8   1  -4   85.39   12.70
  -8   1  -4   79.59   16.30
  -8   1  -4   88.39   18.70
   8  -1   4  105.49   13.50
   8  -1   4  107.49   17.20
   9   0  -4   31.20    6.80
  -9   0   4   46.70   11.00
  -9   0   4   45.10   11.90
  -9   0   4   27.80    8.10
   8   0  -4 1398.76   83.99
   8   0  -4 1381.16   83.39
  -8   0   4 1460.65   83.59
  -8   0   4 1382.16   85.59
  -8   0   4 1432.66   85.49
   7   0  -4  969.50   59.39
   7   0  -4  950.20   58.89
  -7   0   4  970.70   58.89
  -7   0   4 1015.30   60.69
  -7   0   4 1059.09   60.99
   6   0  -4   60.59    7.60
   6   0  -4   53.89   12.50
   6   0  -4   61.09    8.30
  -6   0   4   50.49   10.10
  -6   0   4   63.19   10.40
  -6   0   4   48.50    7.50
  -6   0   4   57.79    8.10
   5   0  -4 1087.99   64.69
   5   0  -4 1027.10   60.99
   5   0  -4 1068.79   62.09
   5   0  -4 1108.19   62.09
   5   0  -4 1010.60   60.89
   5   0  -4 1002.00   61.59
   5   0  -4  973.50   61.79
  -5   0   4  972.40   63.19
  -5   0   4 1108.29   62.39
  -5   0   4 1031.20   60.99
  -5   0   4  954.90   61.39
  -5   0   4 1105.69   62.19
  -5   0   4 1012.90   60.99
   4   0  -4 2287.17  129.49
   4   0  -4 2385.76  130.09
   4   0  -4 2029.40  129.19
   4   0  -4 2384.96  130.19
   4   0  -4 2331.67  131.39
   4   0  -4 2324.27  130.19
   4   0  -4 2034.30  129.29
  -4   0   4 2381.76  130.29
  -4   0   4 2073.49  129.29
  -4   0   4 2128.79  129.89
  -4   0   4 2086.19  129.29
  -4   0   4 2220.08  130.99
  -4   0   4 2218.78  129.59
   3   0  -4 1134.69   69.49
   3   0  -4 1237.28   68.49
   3   0  -4 1118.99   67.59
   3   0  -4 1192.08   67.79
   3   0  -4 1104.89   67.69
   3   0  -4 1214.98   68.89
   3   0  -4 1184.48   67.59
   3   0  -4 1147.09   68.19
  -3   0   4 1167.38   69.59
  -3   0   4 1110.59   67.69
  -3   0   4 1174.98   68.39
  -3   0   4 1104.49   68.19
  -3   0   4 1119.79   67.69
  -3   0   4 1215.18   68.49
   2   0  -4   76.39    5.90
   2   0  -4   63.39    5.10
   2   0  -4   70.99    6.30
   2   0  -4   74.19    9.60
   2   0  -4   70.19    6.90
   2   0  -4   61.29    8.60
   2   0  -4   64.59    5.80
  -2   0   4   67.09   10.30
  -2   0   4   69.19    7.10
  -2   0   4   69.79    6.20
  -2   0   4   73.79    5.90
  -2   0   4   61.29    8.20
   1   0  -4 2086.29  117.09
   1   0  -4 1941.71  117.49
   1   0  -4 1895.51  116.49
  -1   0   4 2137.19  117.59
  -1   0   4 1970.10  116.49
  -1   0   4 1910.71  116.39
  -1   0   4 2092.19  117.19
   0   0  -4 4513.55  277.57
   0   0  -4 4702.83  277.77
   0   0  -4 5096.59  278.77
   0   0  -4 5272.47  278.37
   0   0   4 4750.82  278.17
   0   0   4 4700.73  277.57
   0   0   4 5268.87  278.77
   0   0   4 4452.05  277.37
   0   0   4 4601.04  277.57
   0   0   4 4523.95  277.57
  -1   0  -4  808.82   45.70
  -1   0  -4  741.23   43.90
  -1   0  -4  747.33   44.20
   1   0   4  695.43   44.40
   1   0   4  762.92   44.30
   1   0   4  701.53   44.00
   1   0   4  750.72   44.20
   1   0   4  806.52   45.70
   1   0   4  763.42   44.60
  -2   0  -4  871.31   50.89
  -2   0  -4  853.91   51.19
  -2   0  -4  807.92   49.70
  -2   0  -4  843.82   49.70
   2   0   4  895.51   51.39
   2   0   4  808.02   49.70
   2   0   4  848.32   49.99
  -3   0  -4 1527.15   89.59
  -3   0  -4 1498.85   90.49
  -3   0  -4 1575.04   89.59
  -3   0  -4 1606.44   90.99
  -3   0  -4 1495.55   89.59
   3   0   4 1652.13   90.99
   3   0   4 1547.45   89.89
   3   0   4 1436.16   89.69
   3   0   4 1421.26   89.49
   3   0   4 1585.14   89.59
  -4   0  -4 1601.74   91.19
  -4   0  -4 1499.05   89.49
  -4   0  -4 1444.56   89.29
  -4   0  -4 1484.35   89.29
   4   0   4 1507.05   89.69
   4   0   4 1612.94   90.79
   4   0   4 1547.55   89.39
  -5   0  -4   30.40    6.30
  -5   0  -4   29.00    5.30
   5   0   4   43.40    8.60
   5   0   4   29.50    5.70
   5   0   4   29.30    7.60
  -6   0  -4  499.85   31.60
  -6   0  -4  540.95   36.60
   6   0   4  523.95   33.00
   6   0   4  468.95   31.40
  -7   0  -4  394.16   33.40
  -7   0  -4  379.96   25.80
  -7   0  -4  339.67   30.00
   7   0   4  394.16   26.70
   7   0   4  426.76   28.50
  10  -1  -4  676.03   43.40
 -10   1   4  661.63   45.80
 -10   1   4  711.73   46.60
 -10   1   4  670.63   42.60
   9  -1  -4  286.87   21.60
  -9   1   4  323.67   25.40
  -9   1   4  287.07   25.20
  -9   1   4  286.37   21.60
   8  -1  -4    9.60    6.50
   8  -1  -4    8.50    6.70
  -8   1   4    6.60    6.10
  -8   1   4   10.00    9.00
   7  -1  -4  827.52   51.39
   7  -1  -4  906.91   52.09
  -7   1   4  955.00   53.19
  -7   1   4  779.72   51.59
  -7   1   4  869.61   53.19
  -7   1   4  849.72   51.39
   6  -1  -4 2139.49  118.39
   6  -1  -4 1931.21  118.49
   6  -1  -4 2081.29  118.99
  -6   1   4 1975.00  118.49
  -6   1   4 2141.49  120.19
  -6   1   4 1924.41  118.49
  -6   1   4 2022.40  119.59
   5  -1  -4  176.58   12.40
   5  -1  -4  195.38   12.70
   5  -1  -4  165.68   14.00
   5  -1  -4  187.18   14.10
   5  -1  -4  197.08   12.80
  -5   1   4  183.18   13.00
  -5   1   4  184.38   14.80
  -5   1   4  149.29   19.20
  -5   1   4  189.38   12.80
  -5   1   4  191.38   14.10
   4  -1  -4   69.29    6.10
   4  -1  -4   64.19    7.50
   4  -1  -4   60.29    6.30
   4  -1  -4   64.49    6.90
   4  -1  -4   67.09    7.70
   4  -1  -4   73.09    9.10
  -4   1   4   49.90    8.00
  -4   1   4   67.69    7.30
  -4   1   4   60.59    6.60
  -4   1   4   62.39    6.30
  -4   1   4   68.09    8.20
  -4   1   4   47.00    9.80
   3  -1  -4 1709.73  102.59
   3  -1  -4 1795.12  101.89
   3  -1  -4 1624.04  102.29
   3  -1  -4 1845.62  102.99
   3  -1  -4 1911.91  102.09
   3  -1  -4 1772.22  102.09
  -3   1   4 1738.93  102.79
  -3   1   4 1742.53  101.99
  -3   1   4 1711.13  103.59
  -3   1   4 1767.32  101.99
  -3   1   4 1656.33  102.59
   2  -1  -4 4692.83  283.37
   2  -1  -4 5241.58  283.47
   2  -1  -4 4967.60  283.97
   2  -1  -4 4195.48  283.57
   2  -1  -4 5106.19  284.37
   2  -1  -4 4684.73  283.37
  -2   1   4 5297.97  284.37
  -2   1   4 4674.63  283.37
  -2   1   4 4708.23  283.37
  -2   1   4 5087.39  283.97
  -2   1   4 5103.19  284.47
   1  -1  -4  436.36   26.00
   1  -1  -4  415.56   24.80
   1  -1  -4  396.56   24.20
   1  -1  -4  414.56   24.00
   1  -1  -4  392.26   24.00
  -1   1   4  427.06   25.00
  -1   1   4  385.46   25.80
  -1   1   4  390.96   24.10
  -1   1   4  379.86   23.80
  -1   1   4  384.16   23.80
  -1   1   4  424.66   25.80
  -1   1   4  386.46   24.00
   0  -1  -4  299.77   19.70
   0  -1  -4  271.77   17.10
   0  -1  -4  271.77   17.50
   0  -1  -4  306.77   18.70
   0  -1  -4  277.37   17.40
   0   1   4  280.57   17.30
   0   1   4  304.27   19.50
   0   1   4  273.37   17.20
   0   1   4  290.87   17.70
   0   1   4  285.27   17.60
  -1  -1  -4 3362.26  200.18
  -1  -1  -4 3366.46  199.58
  -1  -1  -4 3392.56  199.48
  -1  -1  -4 3589.24  200.68
  -1  -1  -4 3214.18  199.58
   1   1   4 3507.05  199.58
   1   1   4 3382.16  199.58
   1   1   4 3435.26  199.58
   1   1   4 3305.77  199.58
   1   1   4 3832.22  200.78
  -2  -1  -4 1461.85   85.99
  -2  -1  -4 1389.76   85.99
  -2  -1  -4 1570.64   87.19
  -2  -1  -4 1331.97   85.99
  -2  -1  -4 1543.35   87.29
   2   1   4 1658.43   87.79
   2   1   4 1413.56   86.19
   2   1   4 1516.75   86.09
   2   1   4 1411.86   86.09
   2   1   4 1612.54   86.29
   2   1   4 1313.87   85.99
  -3  -1  -4   44.10    7.20
  -3  -1  -4   14.30    4.60
   3   1   4   49.80    8.00
   3   1   4   32.40    6.20
   3   1   4   25.80    5.10
   3   1   4   48.50    8.40
  -4  -1  -4  399.46   27.30
  -4  -1  -4  405.86   24.50
  -4  -1  -4  370.16   24.70
  -4  -1  -4  390.06   25.00
   4   1   4  391.56   28.00
   4   1   4  410.36   25.20
   4   1   4  407.36   25.80
   4   1   4  398.76   25.50
   5   1   4  865.61   51.19
   5   1   4  815.72   50.19
  -6  -1  -4  170.48   18.40
  -6  -1  -4  188.68   22.90
  -6  -1  -4  167.28   15.10
   6   1   4  196.28   16.90
   6   1   4  164.58   15.10
  -7  -1  -4    0.40   15.60
  -7  -1  -4   16.80    8.40
  -7  -1  -4   24.80   13.70
   7   1   4   12.60    7.30
 -10   2   4    9.30   11.40
 -10   2   4   -3.90    9.10
 -10   2   4   10.10   12.30
   9  -2  -4  321.07   23.90
  -9   2   4  383.76   27.60
  -9   2   4  313.97   23.90
  -9   2   4  352.06   27.10
   8  -2  -4  982.10   60.09
   8  -2  -4  976.20   60.69
  -8   2   4 1041.50   61.69
  -8   2   4 1027.10   62.69
  -8   2   4 1012.30   60.49
   7  -2  -4  295.67   20.00
   7  -2  -4  300.37   19.80
  -7   2   4  293.27   19.40
  -7   2   4  269.07   19.50
  -7   2   4  302.07   21.10
  -7   2   4  305.07   22.00
   6  -2  -4  293.37   18.90
   6  -2  -4  290.17   20.30
   6  -2  -4  288.07   18.60
  -6   2   4  295.37   18.60
  -6   2   4  295.27   19.70
  -6   2   4  293.27   18.20
  -6   2   4  246.28   17.90
  -6   2   4  290.47   20.70
   5  -2  -4 2435.66  137.79
   5  -2  -4 2485.75  137.69
   5  -2  -4 2662.83  139.09
   5  -2  -4 2242.08  138.29
   5  -2  -4 2440.46  138.29
   5  -2  -4 2296.07  138.49
  -5   2   4 2021.20  138.19
  -5   2   4 2178.88  139.89
  -5   2   4 2493.55  139.09
  -5   2   4 2503.45  137.79
  -5   2   4 2414.36  137.69
  -5   2   4 2225.88  138.29
   4  -2  -4 2054.69  115.59
   4  -2  -4 2145.29  116.09
   4  -2  -4 1891.41  115.39
   4  -2  -4 2163.18  115.39
   4  -2  -4 2007.60  114.99
   4  -2  -4 2115.79  115.79
   4  -2  -4 1980.20  114.89
  -4   2   4 1934.81  115.99
  -4   2   4 1698.03  115.79
  -4   2   4 1818.02  117.09
  -4   2   4 1965.50  115.09
  -4   2   4 1998.70  115.09
  -4   2   4 1924.01  115.39
   3  -2  -4  114.19   10.70
   3  -2  -4  110.49    9.10
   3  -2  -4  109.19    7.90
   3  -2  -4  118.79    8.10
  -3   2   4  111.39    8.90
  -3   2   4   99.89   14.60
  -3   2   4  102.69   11.30
  -3   2   4  106.99    8.20
  -3   2   4  111.79    9.40
   2  -2  -4 1373.56   78.49
   2  -2  -4 1254.37   77.39
   2  -2  -4 1314.87   77.49
   2  -2  -4 1292.57   77.39
   2  -2  -4 1388.56   77.49
   2  -2  -4 1398.06   78.09
  -2   2   4 1291.67   77.39
  -2   2   4 1372.86   78.49
  -2   2   4 1284.57   77.39
  -2   2   4 1305.17   78.09
   1  -2  -4 2779.42  145.79
   1  -2  -4 2377.56  145.59
   1  -2  -4 2297.67  145.69
   1  -2  -4 2799.32  146.39
   1  -2  -4 2738.53  146.79
  -1   2   4 2701.93  146.69
  -1   2   4 2308.07  145.39
  -1   2   4 2303.27  145.59
  -1   2   4 2641.14  146.39
  -1   2   4 2296.37  145.59
  -1   2   4 2336.87  145.59
   0  -2  -4 1285.97   66.99
   0  -2  -4 1063.39   66.09
   0  -2  -4 1073.49   66.09
   0  -2  -4 1125.89   65.99
   0  -2  -4 1274.27   67.49
   0  -2  -4 1036.80   66.39
   0   2   4 1242.58   67.39
   0   2   4 1063.59   66.09
   0   2   4 1085.09   65.89
   0   2   4 1045.50   65.99
   0   2   4 1143.69   66.09
  -1  -2  -4   99.29    9.40
  -1  -2  -4   99.29    7.70
  -1  -2  -4   88.49    8.00
  -1  -2  -4   77.39    7.60
   1   2   4   88.99   11.10
   1   2   4   79.29    7.60
   1   2   4   84.29    7.90
   1   2   4   98.19    8.80
  -2  -2  -4  912.61   53.49
  -2  -2  -4  972.10   54.69
  -2  -2  -4  902.61   53.39
  -2  -2  -4  899.81   53.39
   2   2   4  941.31   53.79
   2   2   4  850.21   53.29
   2   2   4  796.02   54.19
   2   2   4  938.11   53.49
   2   2   4  911.21   53.49
   2   2   4  931.21   54.99
  -3  -2  -4 1488.95   90.89
  -3  -2  -4 1541.15   90.89
  -3  -2  -4 1499.95   90.99
  -3  -2  -4 1613.64   92.29
   3   2   4 1593.24   91.09
   3   2   4 1526.85   92.49
   3   2   4 1527.45   90.99
   3   2   4 1626.04   91.29
  -4  -2  -4  300.87   22.40
  -4  -2  -4  312.37   19.80
   4   2   4  278.57   24.70
   4   2   4  296.07   21.30
   4   2   4  325.47   20.50
   4   2   4  296.67   20.90
  -5  -2  -4  146.49   19.10
  -5  -2  -4  127.09   13.00
   5   2   4  114.19   12.50
   5   2   4  116.39   14.50
  -6  -2  -4  581.94   39.70
  -6  -2  -4  559.04   34.50
  -6  -2  -4  495.45   36.90
   6   2   4  536.25   34.10
   6   2   4  533.15   35.10
  -7  -2  -4  294.87   29.10
  -7  -2  -4  371.16   25.20
  -7  -2  -4  341.37   32.60
 -10   3   4  409.96   33.10
 -10   3   4  455.75   34.60
   9  -3  -4  133.79   14.20
  -9   3   4  115.79   17.80
  -9   3   4  157.98   17.80
  -9   3   4  137.79   14.70
   8  -3  -4  306.17   22.10
   8  -3  -4  319.37   22.50
  -8   3   4  323.17   25.30
  -8   3   4  360.16   24.10
   7  -3  -4 1411.06   83.49
   7  -3  -4 1437.16   84.19
  -7   3   4 1400.56   83.39
  -7   3   4 1411.46   84.49
  -7   3   4 1426.36   85.49
  -7   3   4 1445.66   83.39
   6  -3  -4 1175.88   66.79
   6  -3  -4 1117.29   66.59
   6  -3  -4 1079.09   66.99
  -6   3   4 1117.89   66.19
  -6   3   4 1146.09   66.19
  -6   3   4 1239.68   68.09
  -6   3   4 1011.40   66.79
   5  -3  -4    5.20    5.10
   5  -3  -4    7.90    3.80
   5  -3  -4    5.50    5.40
   5  -3  -4    2.70    2.20
   5  -3  -4    0.70    4.50
  -5   3   4    0.30    7.30
  -5   3   4   10.80    4.50
  -5   3   4    5.00    4.40
  -5   3   4    3.70    4.40
  -5   3   4    1.00    5.70
  -5   3   4    0.30   11.10
   4  -3  -4 1155.48   68.79
   4  -3  -4 1038.60   69.79
   4  -3  -4 1237.68   69.19
   4  -3  -4 1288.37   69.39
   4  -3  -4 1085.09   69.39
  -4   3   4 1174.18   71.79
  -4   3   4 1126.79   70.09
  -4   3   4 1306.97   70.19
  -4   3   4 1156.58   68.99
  -4   3   4 1218.48   70.19
   3  -3  -4 1385.96   89.59
   3  -3  -4 1753.72   89.99
   3  -3  -4 1468.85   89.59
   3  -3  -4 1619.94   90.49
  -3   3   4 1326.57   89.79
  -3   3   4 1466.85   89.69
  -3   3   4 1663.03   90.89
  -3   3   4 1624.74   90.49
   2  -3  -4 2087.89  119.79
   2  -3  -4 2026.80  119.19
   2  -3  -4 2289.07  119.49
   2  -3  -4 1956.70  119.09
  -2   3   4 2115.29  119.79
  -2   3   4 1944.91  119.19
  -2   3   4 2057.39  120.09
  -2   3   4 1962.60  119.19
  -2   3   4 1992.20  119.19
   1  -3  -4    6.80    4.50
   1  -3  -4    1.50    4.10
   1  -3  -4    2.80    4.00
   1  -3  -4    2.50    2.90
   1  -3  -4    1.20    3.70
  -1   3   4   11.70    4.10
  -1   3   4    9.20    5.90
  -1   3   4   16.10    3.90
   0  -3  -4 2314.97  129.09
   0  -3  -4 2195.68  128.79
   0  -3  -4 2159.78  128.69
   0  -3  -4 2221.48  128.69
   0  -3  -4 2443.76  129.59
   0   3   4 2188.58  128.89
   0   3   4 1947.01  128.29
   0   3   4 2294.57  128.79
   0   3   4 2176.88  128.69
   0   3   4 2175.38  129.69
  -1  -3  -4 2161.48  128.19
  -1  -3  -4 1977.10  128.59
  -1  -3  -4 2231.78  128.09
  -1  -3  -4 2188.08  128.09
   1   3   4 2303.07  129.39
   1   3   4 2277.97  128.19
   1   3   4 2198.58  127.89
   1   3   4 2169.48  128.09
   1   3   4 2287.87  128.39
  -2  -3  -4  193.28   14.40
  -2  -3  -4  201.98   14.50
  -2  -3  -4  220.28   14.90
  -2  -3  -4  232.68   17.50
   2   3   4  207.68   15.20
   2   3   4  203.38   17.50
   2   3   4  210.08   15.90
   2   3   4  191.88   15.90
   2   3   4  203.28   13.90
  -3  -3  -4  414.96   25.10
  -3  -3  -4  377.06   25.50
   3   3   4  310.97   24.10
   3   3   4  346.57   23.90
   3   3   4  390.36   23.60
   3   3   4  339.47   23.00
  -4  -3  -4  718.93   43.30
   4   3   4  662.13   40.90
   4   3   4  629.24   41.50
   4   3   4  679.33   41.30
   4   3   4  661.23   41.00
  -5  -3  -4  436.96   32.70
  -5  -3  -4  417.06   27.80
   5   3   4  408.16   27.70
   5   3   4  442.46   30.30
  -6  -3  -4   19.00   12.70
  -6  -3  -4   19.70    8.50
  -6  -3  -4   49.70   15.70
   6   3   4   19.10    9.90
  10  -4  -4  203.18   17.80
 -10   4   4  202.38   22.70
 -10   4   4  223.18   22.10
 -10   4   4  195.68   19.10
   9  -4  -4  670.73   43.90
  -9   4   4  663.73   43.10
  -9   4   4  773.52   46.80
   8  -4  -4  519.95   34.60
  -8   4   4  517.55   36.60
  -8   4   4  601.94   35.40
   7  -4  -4    9.80    7.40
   7  -4  -4    8.30    6.30
  -7   4   4    1.90    7.50
  -7   4   4    8.70    5.20
  -7   4   4    5.40    5.90
  -7   4   4   11.70    5.10
   6  -4  -4 2264.17  131.09
   6  -4  -4 2303.47  131.19
   6  -4  -4 2024.00  130.59
  -6   4   4 2410.36  132.29
  -6   4   4 2398.36  131.79
  -6   4   4 2062.69  130.39
  -6   4   4 2224.48  130.99
   5  -4  -4  737.63   42.70
   5  -4  -4  638.44   44.20
   5  -4  -4  813.02   43.60
   5  -4  -4  757.52   43.10
   5  -4  -4  635.34   43.00
   5  -4  -4  829.42   43.10
  -5   4   4  718.93   43.20
  -5   4   4  660.43   43.00
  -5   4   4  749.23   49.90
  -5   4   4  714.63   44.80
   4  -4  -4   19.70    4.10
   4  -4  -4   24.80    5.50
   4  -4  -4   19.00    4.80
   4  -4  -4   19.70    3.80
   4  -4  -4   22.60    5.10
   4  -4  -4   24.30    4.40
  -4   4   4   30.10    6.10
  -4   4   4   12.20    7.60
  -4   4   4   21.00    7.60
  -4   4   4   22.80    5.40
   3  -4  -4    6.90    4.00
   3  -4  -4    5.00    7.30
   3  -4  -4    5.60    3.70
   3  -4  -4    4.40    1.90
   3  -4  -4    8.10    5.10
   3  -4  -4    8.50    4.80
  -3   4   4    9.80    5.30
  -3   4   4   17.50    4.80
  -3   4   4    5.70    4.40
  -3   4   4    9.00    4.70
  -3   4   4    1.00    7.20
   2  -4  -4 1855.01   96.79
   2  -4  -4 1673.33   96.29
   2  -4  -4 1638.34   96.29
   2  -4  -4 1452.85   96.79
  -2   4   4 1647.24   97.49
  -2   4   4 1587.24   96.49
  -2   4   4 1668.43   96.39
  -2   4   4 1619.34   96.39
  -2   4   4 1723.73   96.99
   1  -4  -4 1042.00   62.69
   1  -4  -4 1097.49   62.59
   1  -4  -4 1062.89   63.09
   1  -4  -4  973.20   62.49
   1  -4  -4 1090.99   62.59
  -1   4   4 1071.99   62.69
  -1   4   4 1113.69   62.79
  -1   4   4 1098.29   62.99
  -1   4   4 1050.09   63.99
   0  -4  -4  380.16   26.60
   0  -4  -4  453.35   27.60
   0  -4  -4  432.76   26.70
   0  -4  -4  430.76   26.30
   0  -4  -4  451.45   26.50
   0   4   4  438.06   28.60
   0   4   4  424.76   26.40
   0   4   4  442.06   27.20
  -1  -4  -4  468.75   29.00
  -1  -4  -4  428.16   27.10
  -1  -4  -4  369.36   27.80
  -1  -4  -4  461.95   27.20
   1   4   4  477.65   27.60
   1   4   4  492.25   27.70
   1   4   4  409.16   28.90
   1   4   4  409.46   26.60
   1   4   4  463.65   28.30
  -2  -4  -4 2572.64  148.29
  -2  -4  -4 2407.16  149.09
   2   4   4 2682.43  148.69
   2   4   4 2448.75  147.89
   2   4   4 2653.43  148.39
   2   4   4 2490.25  148.99
  -3  -4  -4  293.97   21.80
  -3  -4  -4  348.77   24.70
   3   4   4  349.87   24.30
   3   4   4  301.77   22.40
   3   4   4  385.56   23.90
  -4  -4  -4   26.00    7.30
   4   4   4   22.20    7.50
   4   4   4   38.10   10.70
  -5  -4  -4  326.17   26.80
  -5  -4  -4  375.66   31.00
  -5  -4  -4  334.57   24.70
   5   4   4  372.66   26.30
   5   4   4  388.06   28.70
  -6  -4  -4  401.36   34.10
  -6  -4  -4  367.66   27.30
  -6  -4  -4  341.17   30.30
   6   4   4  372.76   28.40
 -10   5   4  122.09   20.40
 -10   5   4  171.38   20.50
 -10   5   4  143.89   17.00
   9  -5  -4   23.20    9.10
  -9   5   4   28.60    8.00
  -9   5   4   26.90   11.70
   8  -5  -4  492.45   32.00
  -8   5   4  485.15   32.10
  -8   5   4  518.95   34.30
   7  -5  -4  848.92   51.29
   7  -5  -4  853.61   51.09
   7  -5  -4  846.02   50.29
  -7   5   4  927.61   52.49
  -7   5   4  835.52   50.09
  -7   5   4  753.72   50.59
   6  -5  -4  676.73   42.90
   6  -5  -4  745.83   43.20
   6  -5  -4  799.02   42.60
   6  -5  -4  768.52   42.80
  -6   5   4  735.03   42.70
  -6   5   4  643.84   44.60
  -6   5   4  704.03   42.60
  -6   5   4  740.83   44.50
  -6   5   4  621.74   42.60
   5  -5  -4  479.65   28.40
   5  -5  -4  488.25   29.00
   5  -5  -4  466.25   29.70
   5  -5  -4  435.66   27.90
   5  -5  -4  442.46   28.40
  -5   5   4  528.05   30.30
  -5   5   4  493.15   28.60
  -5   5   4  423.26   30.30
  -5   5   4  440.26   28.30
   4  -5  -4 3430.86  186.78
   4  -5  -4 2888.51  186.88
   4  -5  -4 3119.79  186.08
   4  -5  -4 2760.92  186.88
   4  -5  -4 3290.77  186.28
  -4   5   4 3195.48  186.68
  -4   5   4 3574.74  187.18
  -4   5   4 3366.36  187.18
  -4   5   4 3220.18  186.28
   3  -5  -4  998.80   63.29
   3  -5  -4 1172.58   64.69
   3  -5  -4 1031.00   63.49
   3  -5  -4 1167.88   64.09
   3  -5  -4 1165.88   64.29
  -3   5   4 1068.19   63.59
  -3   5   4 1038.50   64.99
  -3   5   4 1112.79   64.29
  -3   5   4  993.70   63.39
  -3   5   4 1063.99   64.09
   2  -5  -4    7.20    4.20
   2  -5  -4    3.50    4.30
   2  -5  -4    6.90    4.90
   2  -5  -4    7.30    5.40
   2  -5  -4    2.30    7.20
  -2   5   4    4.60    7.30
  -2   5   4    3.30    4.90
  -2   5   4   11.80    5.10
  -2   5   4    2.00    4.50
   1  -5  -4 1281.27   74.79
   1  -5  -4 1289.17   75.39
   1  -5  -4 1307.17   75.39
  -1   5   4 1268.67   75.19
  -1   5   4 1235.58   74.79
   0  -5  -4 1382.66   78.99
   0  -5  -4 1305.67   78.19
   0   5   4 1371.46   78.39
   0   5   4 1359.76   78.79
   0   5   4 1249.07   78.29
  -1  -5  -4  245.68   18.60
  -1  -5  -4  218.38   16.40
  -1  -5  -4  233.88   17.70
   1   5   4  241.48   20.20
   1   5   4  233.68   16.90
   1   5   4  251.17   17.50
  -2  -5  -4   20.30    5.60
  -2  -5  -4   23.20    8.60
  -2  -5  -4   14.60   10.70
   2   5   4   23.40    7.00
   2   5   4   22.40   10.40
   2   5   4   18.00    7.40
  -3  -5  -4  707.33   41.70
   3   5   4  554.04   40.30
  -4  -5  -4  623.44   37.00
  -4  -5  -4  540.15   40.90
  -4  -5  -4  553.04   39.30
   4   5   4  611.94   37.80
   4   5   4  632.84   39.60
   4   5   4  554.14   39.20
  -5  -5  -4   41.30   13.00
  -5  -5  -4   52.99    9.70
  -5  -5  -4   54.79   13.70
  -5  -5  -4   61.09   15.40
   5   5   4   31.20   11.80
   5   5   4   43.50   12.30
 -10   6   4  187.48   17.60
 -10   6   4  213.28   23.80
   9  -6  -4  393.26   28.00
  -9   6   4  451.65   31.60
  -9   6   4  399.16   27.30
  -9   6   4  401.46   27.20
   8  -6  -4   92.39   11.60
  -8   6   4   94.89   15.00
  -8   6   4   65.69   10.90
   7  -6  -4  442.96   26.20
   7  -6  -4  403.46   25.30
   7  -6  -4  400.26   26.70
  -7   6   4  419.56   28.20
  -7   6   4  408.76   25.60
  -7   6   4  373.16   25.40
   6  -6  -4  926.31   52.19
   6  -6  -4  932.71   52.59
   6  -6  -4  913.51   53.09
  -6   6   4  770.82   54.29
  -6   6   4  884.71   52.09
  -6   6   4  831.42   53.69
  -6   6   4  895.61   51.99
   5  -6  -4  889.21   52.39
   5  -6  -4  952.20   54.19
   5  -6  -4  879.51   53.19
   5  -6  -4  909.61   53.39
  -5   6   4  810.02   52.39
  -5   6   4  797.82   54.29
  -5   6   4  922.61   53.29
  -5   6   4  875.11   52.59
  -5   6   4  959.70   53.99
   4  -6  -4   60.19    8.00
   4  -6  -4   54.89    9.20
   4  -6  -4   61.59    7.60
   4  -6  -4   55.49    8.90
  -4   6   4   54.29    9.10
  -4   6   4   63.19    9.00
  -4   6   4   65.79    8.20
  -4   6   4   74.09    9.50
   3  -6  -4  989.00   67.29
   3  -6  -4 1080.89   66.89
   3  -6  -4 1219.48   67.09
   3  -6  -4 1175.08   66.29
  -3   6   4 1185.68   66.99
  -3   6   4 1160.18   66.89
  -3   6   4 1147.49   66.49
  -3   6   4 1070.79   66.29
   2  -6  -4  493.75   32.50
   2  -6  -4  510.25   31.00
   2  -6  -4  548.95   31.80
   2  -6  -4  526.85   32.00
  -2   6   4  523.85   31.90
  -2   6   4  501.85   31.50
  -2   6   4  473.45   31.30
   1  -6  -4  467.25   28.40
   1  -6  -4  505.85   30.30
   1  -6  -4  440.16   29.20
  -1   6   4  473.15   28.70
  -1   6   4  462.85   29.30
  -1   6   4  433.36   28.90
   0  -6  -4   32.30    6.40
   0  -6  -4   34.30    7.10
   0  -6  -4   30.70    5.70
   0  -6  -4   22.00    6.60
   0   6   4   23.70   10.50
   0   6   4   19.50    8.00
   0   6   4   22.60    6.00
  -1  -6  -4  759.32   53.79
  -1  -6  -4  888.01   53.49
  -1  -6  -4  745.53   52.79
  -1  -6  -4  945.91   52.29
   1   6   4  978.30   52.69
   1   6   4  943.41   53.49
   1   6   4  868.01   54.59
  -2  -6  -4  664.93   39.60
  -2  -6  -4  635.54   38.00
  -2  -6  -4  607.24   40.00
   2   6   4  560.04   40.30
  -3  -6  -4   63.09   12.90
  -3  -6  -4   39.20    8.60
  -3  -6  -4   69.99   13.80
   3   6   4   48.60   13.10
   3   6   4   62.59   12.70
   3   6   4   39.90   10.10
  -4  -6  -4  222.78   18.00
  -4  -6  -4  191.38   20.20
  -4  -6  -4  159.78   19.80
  -4  -6  -4  201.58   23.90
   4   6   4  228.58   20.60
   4   6   4  217.88   23.50
  10  -7  -4   16.40   10.10
 -10   7   4   -3.60   14.10
   9  -7  -4  245.88   20.60
  -9   7   4  256.97   19.50
  -9   7   4  295.57   27.30
   8  -7  -4  670.43   44.70
  -8   7   4  763.32   47.60
   7  -7  -4  341.67   22.90
   7  -7  -4  349.57   24.40
  -7   7   4  370.26   26.40
  -7   7   4  359.86   22.60
  -7   7   4  356.96   25.30
   6  -7  -4   49.10    9.00
   6  -7  -4   48.40    6.10
   6  -7  -4   47.50    8.90
  -6   7   4   49.40    6.40
  -6   7   4   47.20    9.90
   5  -7  -4 1290.97   75.39
   5  -7  -4 1165.58   74.89
   5  -7  -4 1257.47   73.99
  -5   7   4 1265.37   74.09
  -5   7   4 1281.67   75.09
  -5   7   4 1311.17   75.39
   4  -7  -4  835.52   50.19
   4  -7  -4  811.02   49.99
   4  -7  -4  792.82   49.80
  -4   7   4  826.42   48.80
  -4   7   4  754.52   48.70
  -4   7   4  871.11   49.99
  -4   7   4  858.11   49.80
   3  -7  -4  126.69   12.30
   3  -7  -4  105.99   11.20
   3  -7  -4  150.68   13.20
   3  -7  -4  120.99   10.60
  -3   7   4  115.89   12.40
  -3   7   4  114.89   11.30
   2  -7  -4  153.78   13.70
   2  -7  -4  162.78   12.20
   2  -7  -4  130.69   12.10
  -2   7   4  163.98   14.10
  -2   7   4  170.08   12.30
  -2   7   4  149.69   13.60
   1  -7  -4 1009.30   55.09
   1  -7  -4  913.81   56.69
   1  -7  -4  817.92   54.99
  -1   7   4  872.51   55.29
  -1   7   4  867.91   57.49
  -1   7   4 1020.60   55.29
  -1   7   4  965.70   55.99
   0  -7  -4  676.43   42.50
   0  -7  -4  754.32   42.30
   0   7   4  642.64   45.00
   0   7   4  718.93   45.10
  -1  -7  -4   59.99   12.70
  -1  -7  -4   53.99    7.50
  -1  -7  -4   49.20    9.10
   1   7   4   47.70   13.50
   1   7   4   59.09    9.90
   1   7   4   48.60   11.70
  -2  -7  -4  336.37   23.60
  -2  -7  -4  290.67   24.90
  -2  -7  -4  355.16   26.00
   2   7   4  356.76   24.80
   2   7   4  356.36   26.10
  -3  -7  -4  605.04   37.60
  -3  -7  -4  621.94   41.50
  -3  -7  -4  520.05   39.90
   3   7   4  642.54   38.80
   3   7   4  601.24   39.70
   3   7   4  536.55   42.40
  -4  -7  -4  153.18   18.80
  -4  -7  -4  122.69   17.30
  -4  -7  -4  156.18   24.10
   4   7   4  147.39   20.10
   4   7   4  138.29   20.00
   9  -8  -4   52.49   12.50
  -9   8   4   73.99   13.90
  -9   8   4   65.79   16.60
  -9   8   4   64.49    8.90
   8  -8  -4   28.80   10.00
  -8   8   4   27.10   11.70
  -8   8   4    5.70    8.10
  -8   8   4   19.10   13.10
   7  -8  -4  345.47   28.10
   7  -8  -4  433.46   27.40
  -7   8   4  408.16   29.40
  -7   8   4  436.36   26.10
  -7   8   4  462.35   30.60
   6  -8  -4  623.64   42.50
   6  -8  -4  688.53   42.30
  -6   8   4  729.53   43.10
  -6   8   4  728.63   40.90
  -6   8   4  641.14   42.70
   5  -8  -4   96.59   11.90
   5  -8  -4   88.29    8.30
   5  -8  -4   80.19   10.20
  -5   8   4  105.49   10.00
  -5   8   4   74.19   11.20
  -5   8   4   83.49   11.80
   4  -8  -4  245.58   17.70
   4  -8  -4  207.58   16.80
  -4   8   4  226.78   16.80
   3  -8  -4 1104.59   68.19
   3  -8  -4 1274.37   70.79
  -3   8   4 1098.89   68.39
   2  -8  -4  504.45   31.20
   1  -8  -4   13.60    8.50
   1  -8  -4   10.90    5.80
  -1   8   4    8.60    7.20
  -1   8   4   26.60    9.40
   0  -8  -4  306.07   22.70
   0  -8  -4  379.26   26.20
   0  -8  -4  367.16   23.60
   0   8   4  335.97   30.80
   0   8   4  359.46   26.20
   0   8   4  372.16   25.20
  -1  -8  -4  537.65   35.20
  -1  -8  -4  414.36   32.00
   1   8   4  508.65   32.60
   1   8   4  532.95   34.00
   1   8   4  477.15   38.50
  -2  -8  -4  160.98   16.70
  -2  -8  -4  139.89   18.00
   2   8   4  125.89   20.20
   2   8   4  141.69   27.30
   2   8   4  123.29   18.10
  -3  -8  -4    1.60   10.50
  -3  -8  -4   25.40   11.90
   3   8   4   10.40   14.50
   3   8   4   19.20   12.70
   3   8   4   21.00   29.10
  -9   9   4  114.79   20.00
   8  -9  -4  315.97   25.30
  -8   9   4  352.66   28.20
  -8   9   4  358.46   28.30
   7  -9  -4   12.50   10.20
   7  -9  -4    7.70    7.20
  -7   9   4    2.90   11.30
  -7   9   4   11.40    9.70
   6  -9  -4  146.59   13.80
   6  -9  -4  126.09   15.40
  -6   9   4  162.58   15.80
  -6   9   4  173.88   19.80
   5  -9  -4  758.52   52.89
  -5   9   4  855.11   52.39
  -5   9   4  973.60   53.69
   4  -9  -4  605.24   42.20
   4  -9  -4  689.33   43.10
  -4   9   4  723.33   42.90
  -4   9   4  663.53   40.80
   3  -9  -4  283.77   18.30
   3  -9  -4  249.97   21.60
  -3   9   4  255.97   27.50
  -3   9   4  260.17   22.20
  -3   9   4  288.17   19.40
   2  -9  -4  565.64   34.20
   2  -9  -4  578.14   37.50
  -2   9   4  572.44   35.10
  -2   9   4  482.45   40.50
  -2   9   4  554.14   37.60
   1  -9  -4  371.06   24.00
   1  -9  -4  382.86   27.70
  -1   9   4  375.86   25.20
  -1   9   4  357.66   27.50
  -1   9   4  332.17   32.00
   0  -9  -4   85.69   12.90
   0  -9  -4  109.79   15.80
   0   9   4   62.09   18.30
   0   9   4  102.69   16.00
   0   9   4   79.69   13.40
  -1  -9  -4   58.29   11.60
   1   9   4   78.39   15.90
   1   9   4  104.49   16.40
   1   9   4   57.89   20.20
  -2  -9  -4   91.49   20.50
  -2  -9  -4  131.09   18.00
   2   9   4  104.99   25.00
  -8  10   4  166.38   21.40
   7 -10  -4  322.07   27.50
  -7  10   4  426.16   30.40
  -7  10   4  413.96   24.70
   6 -10  -4  146.99   17.40
   6 -10  -4  103.89   15.40
  -6  10   4  116.89   12.50
  -6  10   4  114.59   14.70
   5 -10  -4   37.60   11.60
   5 -10  -4   29.30   10.50
  -5  10   4   33.80    7.00
  -5  10   4   43.90   12.30
   4 -10  -4  276.57   22.40
  -4  10   4  236.38   29.90
  -4  10   4  294.67   19.90
  -4  10   4  248.78   23.40
   3 -10  -4  609.84   39.60
  -3  10   4  616.44   36.60
  -3  10   4  498.85   43.70
  -3  10   4  591.14   39.10
   2 -10  -4   65.69   12.30
  -2  10   4   58.19    9.70
  -2  10   4   41.10   12.40
  -2  10   4   50.99   19.70
   1 -10  -4  138.89   18.70
  -1  10   4  132.89   20.30
  -1  10   4   96.79   22.00
  -1  10   4  150.98   16.10
   0 -10  -4  265.07   24.90
   0  10   4  293.27   23.10
   0  10   4  268.87   33.80
   0  10   4  309.37   26.00
   7 -11  -4   49.40   14.60
   7 -11  -4   32.20   12.90
   6 -11  -4  361.36   29.10
  -6  11   4  396.86   24.50
  -6  11   4  405.86   33.00
  -6  11   4  339.47   37.20
   5 -11  -4  309.57   24.80
  -5  11   4  275.77   19.50
  -5  11   4  229.18   29.20
  -5  11   4  248.78   25.30
   4 -11  -4    5.60   12.00
  -4  11   4   28.20   20.40
  -4  11   4   12.20    8.10
  -4  11   4  -31.50   14.60
   3 -11  -4  194.38   22.20
  -3  11   4  133.99   29.30
  -3  11   4  139.39   15.60
  -3  11   4  164.78   24.10
   2 -11  -4  403.46   30.70
  -2  11   4  371.86   30.20
  -2  11   4  429.16   27.40
  -2  11   4  335.17   36.60
  -2  12  -5  234.18   30.80
   2 -12   5  185.88   17.80
  -3  12  -5  354.66   30.80
  -3  12  -5  388.06   36.50
   3 -12   5  349.57   25.60
   1  11  -5   35.70    8.50
   1  11  -5   43.60   13.40
   1  11  -5   30.90   20.70
   1  11  -5   36.90   12.10
  -1 -11   5   32.80   11.90
  -1 -11   5   30.70   10.10
   0  11  -5  652.43   38.50
   0  11  -5  660.43   48.10
   0  11  -5  641.74   40.60
   0  11  -5  599.84   42.90
   0 -11   5  631.64   39.20
   0 -11   5  515.85   41.40
  -1  11  -5  423.26   33.20
  -1  11  -5  433.96   38.20
  -1  11  -5  447.86   27.80
  -1  11  -5  393.66   29.60
   1 -11   5  443.26   31.80
   1 -11   5  424.56   29.20
  -2  11  -5    6.10    9.00
  -2  11  -5    8.80   12.50
  -2  11  -5    9.90   17.10
   2 -11   5    3.20    8.50
   2 -11   5    4.50   11.70
  -3  11  -5  119.09   18.90
  -3  11  -5   98.79   19.90
   3 -11   5   77.29   10.80
  -4  11  -5  334.57   30.20
  -4  11  -5  367.06   33.30
   4 -11   5  328.07   24.10
  -5  11  -5  190.38   23.30
   5 -11   5  175.38   17.40
   3  10  -5   95.79   18.90
   3  10  -5   64.99   11.10
   3  10  -5   72.79   14.20
   3  10  -5   70.09   24.30
  -3 -10   5   66.19   12.60
  -3 -10   5   95.89   13.10
   2  10  -5  569.54   38.50
   2  10  -5  516.45   39.70
   2  10  -5  585.54   35.90
   2  10  -5  561.74   46.00
  -2 -10   5  588.04   36.00
  -2 -10   5  553.44   38.00
   1  10  -5  372.86   26.80
   1  10  -5  369.26   23.50
   1  10  -5  309.67   27.00
   1  10  -5  337.57   34.90
  -1 -10   5  354.16   25.00
  -1 -10   5  351.56   26.70
   0  10  -5    9.40   16.30
   0  10  -5   -2.30   10.10
   0  10  -5    0.30    6.60
   0  10  -5   -6.30   10.50
   0 -10   5    0.90    7.70
   0 -10   5    4.70    9.50
  -1  10  -5  203.58   20.00
  -1  10  -5  162.08   25.10
  -1  10  -5  182.58   16.60
  -1  10  -5  199.28   14.80
   1 -10   5  188.38   16.30
   1 -10   5  195.18   18.50
  -2  10  -5  894.91   55.29
  -2  10  -5  815.02   50.39
  -2  10  -5  844.52   49.30
  -2  10  -5  864.01   53.59
   2 -10   5  818.02   50.79
   2 -10   5  783.02   53.09
  -3  10  -5  360.06   29.50
  -3  10  -5  280.87   24.80
  -3  10  -5  282.57   20.00
   3 -10   5  277.27   21.40
  -4  10  -5   44.00   12.30
  -4  10  -5   49.90   17.90
   4 -10   5   41.20    9.10
  -5  10  -5  247.08   26.80
  -5  10  -5  313.67   26.30
  -5  10  -5  294.07   39.20
   5 -10   5  303.87   22.00
  -6  10  -5  382.96   31.30
   4   9  -5  351.36   29.90
   4   9  -5  346.47   39.70
   4   9  -5  361.46   25.00
   4   9  -5  409.56   31.10
  -4  -9   5  370.66   25.50
  -4  -9   5  332.27   27.50
   3   9  -5  296.47   24.00
   3   9  -5  291.47   25.40
   3   9  -5  290.57   31.90
   3   9  -5  299.67   21.80
  -3  -9   5  286.27   23.00
  -3  -9   5  320.37   23.00
   2   9  -5   -0.80    9.70
   2   9  -5   -9.60   17.10
   2   9  -5    4.40   10.10
   2   9  -5   14.80    6.80
  -2  -9   5    1.20    7.50
  -2  -9   5    2.80    7.70
  -2  -9   5   -0.20    8.30
   1   9  -5  464.85   37.70
   1   9  -5  450.75   31.20
   1   9  -5  471.65   33.80
   1   9  -5  481.65   30.30
  -1  -9   5  498.85   32.50
  -1  -9   5  505.65   30.80
   0   9  -5  743.43   46.40
   0   9  -5  710.23   43.50
   0   9  -5  709.53   47.50
   0  -9   5  707.73   43.60
   0  -9   5  699.63   45.50
  -1   9  -5  287.07   19.40
  -1   9  -5  303.27   22.80
  -1   9  -5  254.97   17.70
   1  -9   5  260.07   21.50
   1  -9   5  268.47   19.60
  -2   9  -5  100.09   17.00
  -2   9  -5  128.49    9.10
  -2   9  -5  106.79   11.30
  -2   9  -5  132.89   15.40
   2  -9   5  118.59   13.00
   2  -9   5  101.79   14.50
  -3   9  -5  652.63   40.10
  -3   9  -5  565.24   41.00
  -3   9  -5  572.14   36.00
   3  -9   5  591.64   37.30
  -4   9  -5  421.76   29.80
  -4   9  -5  431.56   25.20
  -4   9  -5  340.47   27.00
   4  -9   5  439.06   26.80
  -5   9  -5   78.29   23.40
  -5   9  -5   37.10   10.20
  -5   9  -5   34.90    9.00
   5  -9   5   36.30    9.70
  -6   9  -5  159.68   21.50
  -6   9  -5  165.58   20.00
   6  -9   5  199.68   16.10
  -7   9  -5  237.98   24.90
  -7   9  -5  282.77   29.30
   7  -9   5  311.37   23.30
   5   8  -5  112.79   23.20
   5   8  -5   95.79   13.90
   5   8  -5   98.09   19.00
  -5  -8   5  103.79   14.90
  -5  -8   5   93.69   12.30
   4   8  -5    0.90   11.20
   4   8  -5    5.20    7.10
   4   8  -5   -0.40   11.10
   4   8  -5   17.10   19.20
  -4  -8   5   -1.60    7.70
   3   8  -5  618.84   41.60
   3   8  -5  645.94   40.10
   3   8  -5  638.84   45.00
   3   8  -5  628.14   38.80
  -3  -8   5  650.23   39.50
  -3  -8   5  590.84   41.90
  -3  -8   5  643.34   38.70
   2   8  -5  992.20   59.89
   2   8  -5  982.00   61.79
   2   8  -5 1012.90   64.39
   2   8  -5  989.20   59.29
  -2  -8   5 1021.60   59.69
  -2  -8   5  972.80   59.09
   1   8  -5  229.68   16.30
   1   8  -5  240.58   17.60
  -1  -8   5  224.98   18.00
  -1  -8   5  228.18   17.30
  -1  -8   5  230.28   16.50
   0   8  -5  274.07   22.50
   0   8  -5  312.07   25.40
   0   8  -5  313.47   19.10
   0   8  -5  303.27   20.60
   0  -8   5  310.07   19.10
   0  -8   5  245.78   22.50
   0  -8   5  306.17   20.50
   0  -8   5  325.67   21.80
  -1   8  -5 1478.95   91.69
  -1   8  -5 1498.55   89.39
  -1   8  -5 1407.56   89.69
  -1   8  -5 1502.75   91.99
  -1   8  -5 1532.35   89.39
   1  -8   5 1760.02   92.29
   1  -8   5 1545.55   90.19
  -2   8  -5  481.55   30.00
  -2   8  -5  421.86   27.20
  -2   8  -5  442.56   31.30
  -2   8  -5  420.86   26.50
  -2   8  -5  442.46   26.40
   2  -8   5  452.05   28.50
  -3   8  -5    8.30    4.50
  -3   8  -5   11.30    7.60
  -3   8  -5    7.10    9.00
   3  -8   5   -4.50    7.40
  -4   8  -5  258.07   21.40
  -4   8  -5  252.07   20.20
  -4   8  -5  258.47   16.70
   4  -8   5  267.77   19.60
  -5   8  -5  690.23   48.50
  -5   8  -5  699.73   44.60
  -5   8  -5  724.33   45.40
  -5   8  -5  671.13   44.60
   5  -8   5  767.72   44.20
  -6   8  -5  225.48   22.40
  -6   8  -5  221.38   24.60
   6  -8   5  218.18   18.20
  -7   8  -5    7.60   17.40
  -7   8  -5   21.90   15.10
   7  -8   5   -3.00   11.40
   6   7  -5   45.20    7.60
   6   7  -5   62.79   21.80
   6   7  -5   46.20   13.40
   6   7  -5   66.19    9.90
  -6  -7   5   52.19   13.40
  -6  -7   5   59.79   10.50
   5   7  -5  596.64   44.80
   5   7  -5  530.45   34.50
   5   7  -5  531.05   37.60
  -5  -7   5  510.15   34.30
  -5  -7   5  537.85   34.50
   4   7  -5  514.25   35.50
   4   7  -5  538.55   33.50
   4   7  -5  586.94   41.90
   4   7  -5  578.94   35.60
  -4  -7   5  519.75   32.90
  -4  -7   5  499.05   33.70
  -4  -7   5  504.85   34.20
   3   7  -5  208.68   16.40
   3   7  -5  227.18   17.80
   3   7  -5  217.28   20.60
   3   7  -5  196.78   25.50
  -3  -7   5  211.98   16.40
  -3  -7   5  213.48   16.20
  -3  -7   5  229.58   15.60
   2   7  -5  395.26   28.00
   2   7  -5  440.86   28.50
   2   7  -5  447.86   29.20
   2   7  -5  467.25   33.70
   2   7  -5  471.75   30.70
   2   7  -5  488.55   28.40
  -2  -7   5  455.95   29.60
  -2  -7   5  478.65   28.20
  -2  -7   5  475.95   29.10
   1   7  -5 1708.73   95.39
   1   7  -5 1587.24   93.29
   1   7  -5 1640.74   93.29
   1   7  -5 1548.25   95.89
   1   7  -5 1607.74   93.59
  -1  -7   5 1447.66   93.59
  -1  -7   5 1695.13   93.29
  -1  -7   5 1626.54   93.69
  -1  -7   5 1486.25   94.69
   0   7  -5  395.56   23.80
   0   7  -5  378.36   24.30
   0   7  -5  357.06   28.10
   0   7  -5  382.56   26.30
   0  -7   5  425.16   26.40
   0  -7   5  380.86   24.80
   0  -7   5  376.16   24.60
   0  -7   5  386.26   23.60
  -1   7  -5   -1.90    5.10
  -1   7  -5    3.40    3.30
  -1   7  -5    2.40    3.80
  -1   7  -5    1.70    4.30
  -1   7  -5   -3.10    8.30
  -1   7  -5   -0.40    6.70
   1  -7   5   -2.70    6.10
   1  -7   5    7.00    5.40
   1  -7   5    3.00    3.00
   1  -7   5   -1.90    6.30
  -2   7  -5  691.03   41.10
  -2   7  -5  750.52   40.70
  -2   7  -5  686.13   43.50
  -2   7  -5  619.14   42.40
  -2   7  -5  667.23   43.30
  -2   7  -5  699.23   40.80
   2  -7   5  743.83   42.30
  -3   7  -5  855.81   51.49
  -3   7  -5  847.62   51.49
   3  -7   5  802.02   50.29
  -4   7  -5  144.79   14.80
  -4   7  -5  107.49   13.90
  -4   7  -5  146.99   14.70
   4  -7   5  104.09   13.40
  -5   7  -5   14.50   10.40
  -5   7  -5   42.60   11.50
  -5   7  -5   18.20    4.20
   5  -7   5   18.20    7.80
  -6   7  -5  514.45   35.60
  -6   7  -5  509.45   35.60
   6  -7   5  496.25   33.50
  -7   7  -5  445.06   34.40
  -7   7  -5  442.56   33.70
  -8   7  -5   29.40   14.90
   7   6  -5  393.76   28.70
   7   6  -5  381.16   42.30
   7   6  -5  411.16   26.50
  -7  -6   5  443.16   31.80
  -7  -6   5  383.96   27.50
   6   6  -5  450.95   29.20
   6   6  -5  453.85   30.30
   6   6  -5  432.16   40.80
   6   6  -5  455.05   32.80
  -6  -6   5  481.05   34.00
  -6  -6   5  478.35   30.00
  -6  -6   5  440.16   31.20
   5   6  -5   31.40   17.00
   5   6  -5   10.20    6.00
   5   6  -5    0.10    6.80
   5   6  -5    8.10    8.90
  -5  -6   5   -3.90    7.50
  -5  -6   5    7.10    5.60
  -5  -6   5   12.50   10.20
   4   6  -5  971.90   59.89
  -4  -6   5  994.90   57.99
  -4  -6   5  986.50   58.99
  -4  -6   5  948.21   58.89
   3   6  -5  319.27   20.30
   3   6  -5  329.37   21.80
   3   6  -5  305.87   22.50
   3   6  -5  311.47   27.10
   3   6  -5  321.27   21.20
  -3  -6   5  296.67   21.10
  -3  -6   5  315.47   20.70
  -3  -6   5  315.87   21.50
   2   6  -5  690.53   41.00
   2   6  -5  686.53   44.90
   2   6  -5  699.93   43.00
   2   6  -5  656.43   41.20
   2   6  -5  663.93   40.90
   2   6  -5  685.83   41.50
  -2  -6   5  712.83   42.30
  -2  -6   5  701.33   40.90
  -2  -6   5  706.03   41.70
  -2  -6   5  691.13   41.30
  -2  -6   5  646.74   41.50
   1   6  -5   21.40    4.60
   1   6  -5   12.50    4.30
   1   6  -5   30.50    7.20
   1   6  -5   18.50    4.20
   1   6  -5   17.70    4.30
   1   6  -5   25.30    9.80
  -1  -6   5   20.30    4.90
  -1  -6   5   16.90    4.30
  -1  -6   5   11.30    5.70
  -1  -6   5   24.70    6.80
   0   6  -5 1493.35   91.79
   0   6  -5 1483.75   92.09
   0   6  -5 1624.84   91.69
   0   6  -5 1635.24   91.79
   0   6  -5 1545.25   93.89
   0   6  -5 1699.43   93.69
   0  -6   5 1503.75   91.69
   0  -6   5 1599.94   92.19
   0  -6   5 1354.76   93.09
   0  -6   5 1746.73   91.89
   0  -6   5 1605.44   91.59
  -1   6  -5 1533.25   95.09
  -1   6  -5 1774.32   97.19
  -1   6  -5 1603.34   95.09
  -1   6  -5 1561.84   95.89
  -1   6  -5 1817.12   97.39
   1  -6   5 1686.43   97.19
   1  -6   5 1646.84   95.09
   1  -6   5 1602.64   95.69
   1  -6   5 1478.35   94.99
  -2   6  -5  665.73   44.80
  -2   6  -5  797.62   46.70
  -2   6  -5  857.11   47.40
  -2   6  -5  664.63   44.70
  -2   6  -5  749.23   44.80
  -2   6  -5  888.31   47.50
   2  -6   5  751.22   46.00
  -3   6  -5  555.64   33.50
  -3   6  -5  450.45   30.70
  -3   6  -5  536.35   33.00
   3  -6   5  552.54   32.30
  -4   6  -5 1776.72  104.79
  -4   6  -5 1820.72  105.99
  -4   6  -5 1746.53  105.69
   4  -6   5 1793.62  104.89
  -5   6  -5  262.77   21.70
  -5   6  -5  238.48   16.80
  -5   6  -5  281.67   20.90
   5  -6   5  266.67   19.30
  -6   6  -5    5.00   10.30
  -6   6  -5    6.00   12.10
   6  -6   5   13.10    9.60
  -7   6  -5  178.78   23.70
  -7   6  -5  196.68   23.80
  -8   6  -5  375.26   33.50
  -8   6  -5  363.86   34.40
   8  -6   5  406.06   29.80
   7   5  -5   -9.70   19.10
   7   5  -5    7.90    8.10
   7   5  -5    4.30    6.10
  -7  -5   5    3.00    7.90
  -7  -5   5   -1.30   11.70
  -7  -5   5   -1.60   10.90
   6   5  -5  531.35   33.60
   6   5  -5  530.25   32.90
   6   5  -5  494.05   34.50
   6   5  -5  505.05   42.10
  -6  -5   5  574.04   36.70
  -6  -5   5  526.05   32.60
  -6  -5   5  535.65   33.30
  -6  -5   5  504.75   34.40
   5   5  -5  793.82   51.69
   5   5  -5  834.42   50.39
  -5  -5   5  833.72   50.19
  -5  -5   5  822.52   51.49
  -5  -5   5  886.41   52.69
  -5  -5   5  852.41   50.49
   4   5  -5  488.45   31.30
   4   5  -5  475.25   31.70
   4   5  -5  482.85   30.20
   4   5  -5  501.55   36.20
   4   5  -5  477.85   29.80
  -4  -5   5  509.75   31.40
  -4  -5   5  497.05   32.50
  -4  -5   5  478.15   30.10
  -4  -5   5  491.45   30.70
   3   5  -5   86.99    9.80
   3   5  -5   88.09    8.70
   3   5  -5   96.59   11.50
   3   5  -5   90.29   10.70
   3   5  -5   97.49    9.70
   3   5  -5   97.59   13.40
   3   5  -5   96.79    8.90
  -3  -5   5   91.09    9.70
  -3  -5   5   86.99   10.30
  -3  -5   5  100.19    8.80
   2   5  -5 1551.14   91.49
   2   5  -5 1430.46   88.99
   2   5  -5 1580.84   89.49
   2   5  -5 1440.16   88.99
   2   5  -5 1540.95   89.99
   2   5  -5 1584.34   90.59
   2   5  -5 1520.75   89.19
  -2  -5   5 1424.66   89.19
  -2  -5   5 1528.55   89.99
  -2  -5   5 1497.75   88.99
  -2  -5   5 1639.34   89.79
   1   5  -5 1693.63   90.79
   1   5  -5 1568.34   89.39
   1   5  -5 1594.24   91.19
   1   5  -5 1523.75   88.99
   1   5  -5 1495.55   88.89
   1   5  -5 1514.45   88.99
   1   5  -5 1474.95   89.99
  -1  -5   5 1544.55   88.99
  -1  -5   5 1544.25   88.89
  -1  -5   5 1506.45   89.19
  -1  -5   5 1521.65   88.99
  -1  -5   5 1445.66   90.79
  -1  -5   5 1376.76   90.09
   0   5  -5  479.15   28.60
   0   5  -5  464.95   29.30
   0   5  -5  477.25   28.40
   0   5  -5  494.95   31.50
   0   5  -5  459.05   29.80
   0   5  -5  514.15   30.90
   0  -5   5  456.15   29.30
   0  -5   5  476.65   28.50
   0  -5   5  465.85   28.50
   0  -5   5  469.05   31.30
  -1   5  -5  832.12   52.79
  -1   5  -5  866.11   51.19
  -1   5  -5  913.21   53.19
  -1   5  -5  846.12   52.39
  -1   5  -5  857.61   53.29
  -1   5  -5  941.11   51.19
   1  -5   5  868.41   51.69
   1  -5   5  919.01   51.09
   1  -5   5  826.92   52.99
   1  -5   5  852.31   51.09
  -2   5  -5 1648.04   93.59
  -2   5  -5 1478.35   91.49
  -2   5  -5 1451.85   92.69
  -2   5  -5 1576.94   93.19
  -2   5  -5 1562.84   91.49
   2  -5   5 1756.92   91.49
   2  -5   5 1535.75   92.29
  -3   5  -5  379.46   23.40
  -3   5  -5  398.36   26.20
  -3   5  -5  410.26   23.40
  -3   5  -5  381.36   25.00
   3  -5   5  393.56   25.30
  -4   5  -5   37.80    8.90
  -4   5  -5   30.20    3.60
  -4   5  -5   30.00    8.60
  -4   5  -5   29.00    5.10
  -4   5  -5   31.30    4.30
  -4   5  -5   36.60    4.70
  -4   5  -5   33.20    4.20
   4  -5   5   35.80    6.90
  -5   5  -5  453.55   23.50
  -5   5  -5  364.46   27.20
  -5   5  -5  398.26   23.70
  -5   5  -5  351.06   24.00
  -5   5  -5  390.86   27.50
   5  -5   5  366.76   24.70
   5  -5   5  439.56   26.80
  -6   5  -5  480.35   37.30
  -6   5  -5  649.93   34.90
  -6   5  -5  622.64   40.00
   6  -5   5  605.64   37.90
  -7   5  -5  178.38   12.30
  -7   5  -5  146.89   20.40
  -7   5  -5  196.08   23.50
   7  -5   5  199.48   20.80
   7  -5   5  139.09   15.20
  -8   5  -5   13.70   16.80
  -8   5  -5   17.50   14.70
   8  -5   5   20.10   10.30
   8  -5   5   21.80   11.00
   8   4  -5  379.76   26.20
   8   4  -5  371.66   42.20
   8   4  -5  384.56   28.50
  -8  -4   5  426.76   31.20
  -8  -4   5  390.96   27.60
  -8  -4   5  385.46   31.10
   7   4  -5  597.24   45.50
   7   4  -5  606.74   36.30
   7   4  -5  562.24   36.80
   7   4  -5  522.35   39.60
  -7  -4   5  583.54   38.90
  -7  -4   5  606.64   39.70
  -7  -4   5  574.64   36.40
   6   4  -5   53.49   11.60
   6   4  -5   66.19    8.80
   6   4  -5   72.19   18.40
  -6  -4   5   53.99   10.90
  -6  -4   5   55.89   10.80
   5   4  -5  172.58   15.60
   5   4  -5  182.48   12.90
   5   4  -5  160.28   13.50
   5   4  -5  173.88   22.30
  -5  -4   5  166.38   13.30
  -5  -4   5  179.88   15.30
  -5  -4   5  185.68   15.50
  -5  -4   5  175.38   12.90
   4   4  -5 1320.97   82.19
   4   4  -5 1433.36   82.99
   4   4  -5 1376.06   83.39
   4   4  -5 1319.77   82.29
   4   4  -5 1489.85   85.59
  -4  -4   5 1405.96   82.49
  -4  -4   5 1362.86   82.19
  -4  -4   5 1459.05   83.59
  -4  -4   5 1423.16   82.99
   3   4  -5 1349.07   80.49
   3   4  -5 1357.56   78.19
   3   4  -5 1248.08   77.59
   3   4  -5 1258.77   77.49
   3   4  -5 1320.87   77.69
   3   4  -5 1279.37   78.79
   3   4  -5 1334.67   78.19
  -3  -4   5 1359.06   77.69
  -3  -4   5 1253.77   77.99
  -3  -4   5 1374.76   78.49
  -3  -4   5 1420.96   78.39
   2   4  -5   60.39    7.20
   2   4  -5   66.49    6.60
   2   4  -5   59.69    6.80
   2   4  -5   63.89    8.10
   2   4  -5   61.49    9.90
   2   4  -5   66.39   10.90
   2   4  -5   63.49    9.90
   2   4  -5   58.09    5.80
  -2  -4   5   47.20    9.10
  -2  -4   5   53.59    7.60
  -2  -4   5   59.49    6.90
  -2  -4   5   56.29    9.10
  -2  -4   5   58.29    8.40
  -2  -4   5   51.99    6.40
   1   4  -5  974.80   60.29
   1   4  -5 1017.10   61.79
   1   4  -5 1062.59   60.69
   1   4  -5 1034.60   59.69
   1   4  -5 1053.49   61.19
   1   4  -5  958.00   60.49
   1   4  -5 1048.70   59.69
  -1  -4   5 1065.49   60.69
  -1  -4   5 1051.49   59.69
  -1  -4   5  986.90   59.89
  -1  -4   5 1004.60   59.69
  -1  -4   5  953.70   61.29
  -1  -4   5 1014.10   59.89
   0   4  -5 3752.52  221.98
   0   4  -5 3731.53  221.28
   0   4  -5 3936.41  221.28
   0   4  -5 4011.50  222.48
   0   4  -5 3756.32  222.48
   0   4  -5 3959.70  222.68
   0  -4   5 3702.43  222.38
   0  -4   5 4085.49  221.38
   0  -4   5 3498.75  221.08
   0  -4   5 3765.22  221.58
   0  -4   5 3754.92  221.28
  -1   4  -5  599.94   37.70
  -1   4  -5  648.04   38.00
  -1   4  -5  615.14   35.90
  -1   4  -5  621.54   37.60
  -1   4  -5  591.44   36.00
  -1   4  -5  617.74   37.70
   1  -4   5  569.44   37.50
   1  -4   5  643.74   36.00
   1  -4   5  599.64   36.60
   1  -4   5  588.74   35.90
  -2   4  -5  282.97   20.90
  -2   4  -5  319.17   18.70
  -2   4  -5  314.17   22.10
  -2   4  -5  297.87   18.80
  -2   4  -5  315.27   20.60
   2  -4   5  330.07   18.80
   2  -4   5  291.37   20.40
  -3   4  -5 1071.09   66.39
  -3   4  -5 1074.39   65.89
  -3   4  -5 1120.59   65.99
  -3   4  -5 1152.58   68.09
   3  -4   5 1141.79   66.89
   3  -4   5 1218.78   65.99
  -4   4  -5  913.01   56.19
  -4   4  -5  928.41   54.19
  -4   4  -5  864.41   54.09
  -4   4  -5  898.41   56.59
  -4   4  -5  907.91   54.29
   4  -4   5  922.51   55.49
   4  -4   5  997.80   54.29
   4  -4   5  977.40   54.29
  -5   4  -5   91.29    8.50
  -5   4  -5  125.59   13.90
  -5   4  -5   90.39    7.90
   5  -4   5  105.29    7.70
   5  -4   5   87.29    9.60
   5  -4   5  127.19   11.90
  -6   4  -5   65.49    6.80
  -6   4  -5   52.59   10.50
  -6   4  -5   64.89   11.80
   6  -4   5   55.69    8.30
   6  -4   5   52.29    9.40
  -7   4  -5  409.76   33.40
  -7   4  -5  477.45   28.20
  -7   4  -5  454.25   34.90
   7  -4   5  470.75   30.90
  -8   4  -5  377.06   23.00
  -8   4  -5  334.07   29.60
  -8   4  -5  345.67   30.30
   8  -4   5  318.07   24.80
   8  -4   5  359.16   28.40
   8   3  -5   88.59   11.00
   8   3  -5   99.29   11.70
   8   3  -5   77.99   20.70
  -8  -3   5  113.19   18.50
  -8  -3   5   99.89   14.00
  -8  -3   5   67.89   12.20
   7   3  -5  285.47   23.20
   7   3  -5  326.87   21.50
   7   3  -5  349.57   35.30
  -7  -3   5  299.87   21.90
  -7  -3   5  316.47   23.40
  -7  -3   5  318.17   25.10
   6   3  -5 1587.54   94.69
   6   3  -5 1669.13   94.89
   6   3  -5 1527.05   95.49
   6   3  -5 1664.23   98.49
  -6  -3   5 1614.74   94.59
  -6  -3   5 1588.54   95.79
   5   3  -5 1215.18   72.29
   5   3  -5 1181.18   73.19
   5   3  -5 1243.98   72.19
   5   3  -5 1168.48   75.69
  -5  -3   5 1266.37   73.69
  -5  -3   5 1272.67   72.19
  -5  -3   5 1218.78   73.29
   4   3  -5  291.07   19.60
   4   3  -5  280.67   20.50
   4   3  -5  285.77   18.30
   4   3  -5  292.57   18.40
   4   3  -5  273.97   25.30
   4   3  -5  301.07   18.90
  -4  -3   5  293.07   20.90
  -4  -3   5  311.77   20.50
  -4  -3   5  265.77   19.90
  -4  -3   5  301.07   18.80
   3   3  -5 1149.58   68.19
   3   3  -5 1182.28   66.79
   3   3  -5 1138.19   66.79
   3   3  -5 1142.49   67.49
   3   3  -5 1094.99   67.89
   3   3  -5 1165.28   66.89
   3   3  -5 1149.48   69.89
   3   3  -5 1188.38   67.19
  -3  -3   5 1190.18   66.89
  -3  -3   5 1147.59   67.69
  -3  -3   5 1074.09   67.09
  -3  -3   5 1046.50   68.79
  -3  -3   5 1133.39   66.89
   2   3  -5  906.01   53.19
   2   3  -5  943.81   53.79
   2   3  -5  907.81   55.69
   2   3  -5  904.31   53.89
   2   3  -5  907.81   53.29
   2   3  -5  904.31   54.19
   2   3  -5  870.41   52.89
   2   3  -5  904.51   54.59
  -2  -3   5  930.31   54.09
  -2  -3   5  840.42   54.99
  -2  -3   5  911.51   53.29
  -2  -3   5  904.81   53.39
  -2  -3   5  927.41   53.29
   1   3  -5 1182.08   67.69
   1   3  -5 1132.29   67.69
   1   3  -5 1068.79   67.59
   1   3  -5 1160.78   66.89
   1   3  -5 1179.68   66.89
   1   3  -5 1171.28   68.89
   1   3  -5 1139.29   68.29
  -1  -3   5 1228.78   67.89
  -1  -3   5 1121.39   67.09
  -1  -3   5 1137.19   68.09
  -1  -3   5 1112.69   66.69
  -1  -3   5 1053.29   68.19
  -1  -3   5 1191.38   66.99
   0   3  -5    4.80    3.50
   0   3  -5    3.40    5.70
   0   3  -5    3.80    3.30
   0   3  -5    0.40    4.30
   0  -3   5    3.50    3.30
   0  -3   5    4.80    3.20
   0  -3   5    8.90    3.70
   0  -3   5    3.30    5.10
   0  -3   5    1.10    5.10
  -1   3  -5  886.61   51.99
  -1   3  -5  902.51   53.69
  -1   3  -5  854.51   52.99
  -1   3  -5  916.61   53.39
  -1   3  -5  840.02   51.99
   1  -3   5  933.21   52.09
   1  -3   5  844.82   51.99
   1  -3   5  882.51   52.79
   1  -3   5  928.61   53.69
  -2   3  -5 3130.49  188.48
  -2   3  -5 3551.14  188.78
  -2   3  -5 3482.95  187.58
  -2   3  -5 2919.21  186.98
  -2   3  -5 3123.49  187.08
   2  -3   5 3037.50  186.98
   2  -3   5 3256.07  187.08
   2  -3   5 3311.47  188.38
   2  -3   5 3192.98  187.48
  -3   3  -5  552.04   34.90
  -3   3  -5  556.84   34.40
  -3   3  -5  534.15   34.80
  -3   3  -5  665.03   37.80
  -3   3  -5  647.04   37.40
   3  -3   5  654.53   37.00
   3  -3   5  573.24   35.10
   3  -3   5  567.64   35.70
   3  -3   5  564.84   34.80
  -4   3  -5  745.03   45.30
  -4   3  -5  739.43   47.30
  -4   3  -5  783.72   47.60
  -4   3  -5  777.62   45.20
   4  -3   5  779.02   45.20
   4  -3   5  802.22   47.10
   4  -3   5  748.73   46.20
  -5   3  -5  897.01   48.90
  -5   3  -5  787.72   50.59
  -5   3  -5  748.23   49.60
  -5   3  -5  733.23   49.40
  -5   3  -5  885.61   52.09
   5  -3   5  884.01   49.00
   5  -3   5  871.31   50.19
  -6   3  -5  339.37   22.10
  -6   3  -5  358.26   27.80
   6  -3   5  366.66   24.40
   6  -3   5  325.47   23.20
  -7   3  -5   -4.70   14.70
  -7   3  -5   -4.40    6.40
  -7   3  -5    5.90   11.50
   7  -3   5   -3.00    7.60
   7  -3   5   -2.20    9.10
  -8   3  -5  199.48   16.40
  -8   3  -5  173.38   27.30
  -8   3  -5  175.88   26.50
   8  -3   5  201.28   20.20
   8  -3   5  181.98   17.10
   9   2  -5  155.48   19.70
  -9  -2   5  132.59   20.90
  -9  -2   5  131.49   15.80
  -9  -2   5  148.09   20.50
   8   2  -5  748.43   53.79
   8   2  -5  743.03   45.40
   8   2  -5  703.33   46.10
  -8  -2   5  752.22   48.00
  -8  -2   5  701.93   47.10
  -8  -2   5  760.12   45.50
   7   2  -5  367.86   24.10
   7   2  -5  334.87   25.40
   7   2  -5  385.26   24.20
  -7  -2   5  371.86   27.00
  -7  -2   5  379.46   24.50
   6   2  -5   73.29   12.40
   6   2  -5   82.19    9.90
   6   2  -5   67.39   14.00
   6   2  -5   70.49    8.70
  -6  -2   5   75.19    9.30
  -6  -2   5   72.89   11.90
  -6  -2   5   69.29   10.70
   5   2  -5 1004.40   60.39
   5   2  -5  984.80   64.29
   5   2  -5 1034.00   60.39
   5   2  -5  962.60   61.29
  -5  -2   5 1035.70   61.69
  -5  -2   5 1053.49   61.79
  -5  -2   5 1069.39   60.39
   4   2  -5 1763.02  104.99
   4   2  -5 1756.82  105.99
   4   2  -5 1831.22  105.19
   4   2  -5 1818.02  106.29
   4   2  -5 1875.81  105.09
   4   2  -5 1853.51  105.99
   4   2  -5 1821.92  107.99
  -4  -2   5 1847.22  106.09
  -4  -2   5 1775.32  105.99
  -4  -2   5 1680.23  107.89
  -4  -2   5 1740.03  105.59
  -4  -2   5 1753.32  105.09
  -4  -2   5 1871.31  105.09
   3   2  -5  114.49    8.90
   3   2  -5  145.69   12.10
   3   2  -5  120.09    8.70
   3   2  -5   92.59    9.20
   3   2  -5  121.79   11.30
   3   2  -5  108.69    9.40
  -3  -2   5  152.88   15.00
  -3  -2   5  107.79   10.00
  -3  -2   5  123.99   10.90
  -3  -2   5  106.39    9.60
  -3  -2   5  143.29   10.80
  -3  -2   5  118.29   11.80
   2   2  -5  554.44   32.30
   2   2  -5  535.55   33.00
   2   2  -5  550.24   32.60
   2   2  -5  563.84   33.80
   2   2  -5  524.95   33.00
   2   2  -5  518.65   32.10
   2   2  -5  525.05   34.90
   2   2  -5  546.55   32.30
  -2  -2   5  527.55   34.40
  -2  -2   5  531.65   32.30
  -2  -2   5  560.34   33.30
  -2  -2   5  555.24   32.30
  -2  -2   5  557.24   32.30
  -2  -2   5  532.95   33.40
   1   2  -5  898.91   51.49
   1   2  -5  826.92   49.90
   1   2  -5  831.22   49.90
   1   2  -5  871.91   50.69
   1   2  -5  755.52   50.49
   1   2  -5  865.31   51.49
  -1  -2   5  796.62   50.19
  -1  -2   5  888.71   51.29
  -1  -2   5  808.12   49.99
  -1  -2   5  921.11   51.59
  -1  -2   5  797.82   49.70
  -1  -2   5  854.61   49.99
  -1  -2   5  950.90   51.09
   0   2  -5 3685.03  201.48
   0   2  -5 3778.92  200.98
   0   2  -5 3139.49  200.08
   0   2  -5 3557.04  200.98
   0   2  -5 3293.67  200.08
   0  -2   5 3424.56  200.78
   0  -2   5 3359.26  200.18
   0  -2   5 3559.54  201.28
   0  -2   5 3454.45  200.08
   0  -2   5 3227.68  199.98
  -1   2  -5  202.68   15.10
  -1   2  -5  205.78   16.00
  -1   2  -5  221.98   15.30
  -1   2  -5  190.28   12.90
  -1   2  -5  195.08   12.90
   1  -2   5  188.58   13.00
   1  -2   5  195.78   14.10
   1  -2   5  191.28   13.00
   1  -2   5  198.58   13.30
   1  -2   5  217.18   15.90
  -2   2  -5 1994.00  112.89
  -2   2  -5 1805.02  111.09
  -2   2  -5 1938.41  111.09
   2  -2   5 1926.11  111.09
   2  -2   5 1904.81  111.09
   2  -2   5 1828.82  110.99
   2  -2   5 1929.51  112.49
   2  -2   5 1950.30  111.49
  -3   2  -5 1480.25   86.19
  -3   2  -5 1521.25   87.89
  -3   2  -5 1446.66   86.09
  -3   2  -5 1514.85   87.79
  -3   2  -5 1462.15   85.89
   3  -2   5 1533.45   87.59
   3  -2   5 1444.86   86.59
   3  -2   5 1469.15   86.09
   3  -2   5 1414.76   86.19
  -4   2  -5  558.44   35.60
  -4   2  -5  519.95   35.00
  -4   2  -5  567.24   32.90
  -4   2  -5  535.95   32.80
   4  -2   5  530.75   33.30
   4  -2   5  559.34   32.90
   4  -2   5  568.54   34.30
   4  -2   5  563.04   35.00
  -5   2  -5   90.59   12.50
  -5   2  -5  107.39    9.70
  -5   2  -5  108.59   12.70
  -5   2  -5  126.69   15.70
   5  -2   5  118.29   10.60
   5  -2   5  111.59   12.30
   5  -2   5  106.39    9.80
   5  -2   5  102.49   11.90
  -6   2  -5  480.45   30.40
  -6   2  -5  490.65   35.90
   6  -2   5  500.85   31.50
   6  -2   5  503.95   33.00
  -7   2  -5  189.18   21.70
  -7   2  -5  221.58   16.70
  -7   2  -5  202.78   25.60
   7  -2   5  235.58   17.90
   8  -2   5  175.18   16.80
   9   1  -5   61.39    9.40
   9   1  -5   58.09   10.80
  -9  -1   5   65.69   13.50
  -9  -1   5   65.19    9.80
  -9  -1   5   49.20   12.50
   8   1  -5   12.20    6.50
   8   1  -5   -1.70    6.80
  -8  -1   5   -3.20    8.70
  -8  -1   5    9.40    9.50
  -8  -1   5   -1.00    6.80
   7   1  -5  948.31   59.99
   7   1  -5  926.61   54.89
   7   1  -5  891.71   55.09
   7   1  -5  942.41   54.99
  -7  -1   5  863.71   56.59
   6   1  -5 1916.71  114.69
   6   1  -5 1892.01  115.49
   6   1  -5 2022.70  118.19
   6   1  -5 1982.40  114.89
  -6  -1   5 1945.61  114.59
  -6  -1   5 2003.60  116.09
  -6  -1   5 1956.20  115.89
   5   1  -5  106.39   10.20
   5   1  -5  127.59   10.00
   5   1  -5  130.89   13.40
   5   1  -5  135.49   20.60
  -5  -1   5  132.09   12.50
  -5  -1   5  122.49   12.20
  -5  -1   5  100.39   10.40
  -5  -1   5  106.79   10.20
   4   1  -5  512.35   29.60
   4   1  -5  521.05   32.00
   4   1  -5  519.55   31.40
   4   1  -5  518.05   30.10
   4   1  -5  485.45   30.10
   4   1  -5  499.45   31.10
   4   1  -5  465.65   29.90
   4   1  -5  505.45   35.40
  -4  -1   5  486.55   30.90
  -4  -1   5  464.05   33.30
  -4  -1   5  510.35   30.20
  -4  -1   5  518.45   31.40
  -4  -1   5  506.65   31.40
  -4  -1   5  481.25   30.90
  -4  -1   5  474.15   30.20
   3   1  -5 4511.35  253.97
   3   1  -5 4566.94  253.67
   3   1  -5 4659.43  252.87
   3   1  -5 4249.77  252.77
   3   1  -5 4059.29  253.37
   3   1  -5 4454.65  253.37
   3   1  -5 4429.96  254.67
   3   1  -5 4136.19  252.87
  -3  -1   5 4279.27  252.87
  -3  -1   5 4329.07  253.67
  -3  -1   5 4469.75  253.07
  -3  -1   5 4427.56  253.57
  -3  -1   5 4209.38  254.27
  -3  -1   5 4204.48  252.77
   2   1  -5 1873.31  109.69
   2   1  -5 1889.31  108.99
   2   1  -5 1989.30  109.49
   2   1  -5 1831.32  108.99
   2   1  -5 1842.02  110.69
   2   1  -5 1920.31  108.89
   2   1  -5 1882.61  110.29
   2   1  -5 1908.11  109.59
  -2  -1   5 1811.92  109.99
  -2  -1   5 1876.81  108.99
  -2  -1   5 1942.61  109.89
  -2  -1   5 1879.11  108.99
  -2  -1   5 1692.83  110.19
   1   1  -5   84.89   12.10
   1   1  -5   83.39    8.20
   1   1  -5   76.89    6.70
   1   1  -5   78.29   10.40
   1   1  -5   76.19    6.50
  -1  -1   5   77.69    6.70
  -1  -1   5   76.99    8.80
  -1  -1   5   69.09   10.60
  -1  -1   5   85.19    9.70
  -1  -1   5   76.69    6.90
  -1  -1   5   76.59    6.70
   0   1  -5  639.64   38.70
   0   1  -5  587.64   38.80
   0   1  -5  654.73   37.90
   0   1  -5  628.44   36.80
   0  -1   5  611.54   36.70
   0  -1   5  586.54   38.10
   0  -1   5  607.84   36.20
   0  -1   5  601.24   37.70
   0  -1   5  660.03   38.40
   0  -1   5  631.44   36.80
  -1   1  -5 3107.09  170.28
  -1   1  -5 2891.71  169.78
  -1   1  -5 2787.32  168.68
   1  -1   5 2951.30  168.78
   1  -1   5 2927.11  168.88
   1  -1   5 2740.13  168.78
   1  -1   5 3024.70  169.08
   1  -1   5 2512.85  168.38
   1  -1   5 3210.68  170.18
  -2   1  -5  921.71   52.99
  -2   1  -5  817.72   50.29
  -2   1  -5  849.52   51.99
  -2   1  -5  863.91   50.79
  -2   1  -5  818.52   51.09
   2  -1   5  900.71   52.49
   2  -1   5  883.11   51.09
   2  -1   5  854.11   50.79
  -3   1  -5   86.89    7.10
  -3   1  -5   72.49   13.70
  -3   1  -5   75.09   12.50
  -3   1  -5   86.19    7.90
  -3   1  -5   91.29    8.10
   3  -1   5   65.19    8.70
   3  -1   5   86.49    9.30
   3  -1   5   79.49   12.90
  -4   1  -5  672.23   38.80
  -4   1  -5  642.54   40.70
  -4   1  -5  590.04   40.30
  -4   1  -5  635.54   38.80
  -4   1  -5  643.74   38.90
   4  -1   5  679.13   38.80
   4  -1   5  683.93   41.00
   4  -1   5  650.93   39.90
  -5   1  -5 1087.89   63.69
   5  -1   5 1052.49   63.59
   5  -1   5 1094.59   64.79
  -6   1  -5  188.08   21.70
  -6   1  -5  122.39   13.10
   6  -1   5  150.78   13.40
   6  -1   5  157.68   17.50
  -7   1  -5  128.79   24.90
  -7   1  -5  161.98   14.50
   7  -1   5  155.08   14.20
   9   0  -5  402.66   29.60
   9   0  -5  445.96   29.40
  -9   0   5  432.06   29.90
  -9   0   5  474.95   33.40
  -9   0   5  449.36   32.50
   8   0  -5  686.43   42.30
   8   0  -5  654.63   42.20
  -8   0   5  669.33   42.20
  -8   0   5  691.33   44.30
  -8   0   5  717.83   44.60
   7   0  -5   25.00    5.80
   7   0  -5   25.30    6.20
  -7   0   5   26.00    6.70
  -7   0   5   23.30    7.40
  -7   0   5   22.10    7.70
   6   0  -5  495.65   29.60
   6   0  -5  466.95   30.40
   6   0  -5  524.35   36.40
   6   0  -5  458.65   29.40
  -6   0   5  441.76   29.50
  -6   0   5  487.25   30.80
  -6   0   5  480.65   29.70
  -6   0   5  477.15   31.10
   5   0  -5 1902.11  108.99
   5   0  -5 1889.91  112.09
   5   0  -5 1913.21  109.99
   5   0  -5 1961.00  109.89
  -5   0   5 1859.71  108.89
  -5   0   5 1954.70  108.99
  -5   0   5 1690.03  109.69
  -5   0   5 1943.71  110.19
  -5   0   5 1754.72  109.59
  -5   0   5 1767.32  109.19
   4   0  -5 1327.67   77.19
   4   0  -5 1334.67   76.39
   4   0  -5 1384.06   76.39
   4   0  -5 1307.37   77.69
   4   0  -5 1334.17   76.29
   4   0  -5 1335.57   77.09
   4   0  -5 1255.87   78.89
   4   0  -5 1360.76   75.99
  -4   0   5 1293.27   76.39
  -4   0   5 1325.37   76.29
  -4   0   5 1168.88   78.39
  -4   0   5 1231.28   76.89
  -4   0   5 1337.17   77.39
  -4   0   5 1243.78   76.99
   3   0  -5  320.87   19.00
   3   0  -5  316.27   18.60
   3   0  -5  283.67   23.70
   3   0  -5  307.97   21.80
   3   0  -5  286.67   19.50
   3   0  -5  313.17   19.90
   3   0  -5  304.37   18.70
  -3   0   5  314.07   19.00
  -3   0   5  289.77   20.70
  -3   0   5  299.97   20.10
  -3   0   5  304.57   18.90
  -3   0   5  295.77   23.00
   2   0  -5 1730.73  100.99
   2   0  -5 1727.93  101.79
   2   0  -5 1806.22  100.99
   2   0  -5 1664.73  102.69
   2   0  -5 1769.72  101.49
   2   0  -5 1725.83  102.49
   2   0  -5 1718.73  101.09
  -2   0   5 1768.32  101.09
  -2   0   5 1754.32  101.09
  -2   0   5 1651.73  101.79
  -2   0   5 1777.22  102.29
  -2   0   5 1723.63  102.49
   1   0  -5 1716.33   96.19
   1   0  -5 1650.33   96.29
   1   0  -5 1702.23   97.79
   1   0  -5 1663.03   96.19
   1   0  -5 1617.44   96.99
  -1   0   5 1640.14   96.19
  -1   0   5 1608.34   96.09
  -1   0   5 1657.23   97.49
  -1   0   5 1572.64   95.99
  -1   0   5 1640.04   96.29
  -1   0   5 1744.53   97.19
  -1   0   5 1612.34   97.29
   0   0  -5  246.38   15.40
   0   0  -5  242.68   15.60
   0   0  -5  242.58   18.60
   0   0  -5  249.58   17.00
   0   0   5  235.38   15.30
   0   0   5  214.98   17.50
   0   0   5  239.08   15.30
   0   0   5  236.18   15.20
   0   0   5  259.27   14.70
   0   0   5  256.57   18.00
  -1   0  -5  191.98   11.90
  -1   0  -5  162.48   16.30
  -1   0  -5  197.28   12.70
  -1   0  -5  179.18   12.50
   1   0   5  189.78   15.80
   1   0   5  179.68   13.80
   1   0   5  189.18   12.60
   1   0   5  182.48   12.60
   1   0   5  205.48   12.10
   1   0   5  189.28   13.00
  -2   0  -5 1078.79   65.49
  -2   0  -5 1096.99   65.79
  -2   0  -5 1175.58   67.69
  -2   0  -5 1106.89   65.79
  -2   0  -5 1096.69   66.79
   2   0   5 1223.88   65.79
   2   0   5 1061.79   66.39
   2   0   5 1137.79   67.49
   2   0   5 1203.38   65.79
   2   0   5 1035.00   65.69
  -3   0  -5 1650.43   89.29
  -3   0  -5 1475.75   87.39
  -3   0  -5 1375.46   87.39
  -3   0  -5 1532.05   88.89
  -3   0  -5 1371.36   87.49
   3   0   5 1615.54   89.39
   3   0   5 1455.35   87.49
   3   0   5 1462.25   87.79
   3   0   5 1530.75   87.59
  -4   0  -5   16.20    5.10
  -4   0  -5   40.50    9.80
  -4   0  -5   26.40    5.90
  -4   0  -5   22.80    5.80
   4   0   5   17.90    8.90
   4   0   5   23.20    5.80
   4   0   5   26.20    6.70
  -5   0  -5  437.76   32.30
   5   0   5  449.26   29.70
   5   0   5  446.96   28.10
  -6   0  -5  517.75   38.30
  -6   0  -5  498.05   32.90
   6   0   5  550.54   35.00
  -7   0  -5  160.08   14.80
  -7   0  -5  153.98   21.00
  -7   0  -5  165.08   25.80
   7   0   5  152.58   14.60
   7   0   5  181.08   22.00
  10  -1  -5  348.47   25.20
 -10   1   5  371.36   26.70
 -10   1   5  355.86   31.70
 -10   1   5  327.67   29.00
   9  -1  -5   14.80    7.50
  -9   1   5    6.40   10.40
  -9   1   5   -3.30    7.60
  -9   1   5   -0.60   10.20
   8  -1  -5  535.05   33.30
   8  -1  -5  508.05   33.20
  -8   1   5  526.05   33.30
  -8   1   5  520.35   35.50
   7  -1  -5 1251.97   73.89
   7  -1  -5 1262.67   74.29
  -7   1   5 1287.77   75.09
  -7   1   5 1288.67   73.79
  -7   1   5 1134.49   73.79
  -7   1   5 1279.57   75.69
   6  -1  -5 1001.30   57.79
   6  -1  -5 1012.20   58.09
   6  -1  -5 1003.40   57.89
  -6   1   5  974.20   58.59
  -6   1   5  957.90   57.59
  -6   1   5  872.91   57.59
  -6   1   5 1017.10   57.69
  -6   1   5  946.11   59.09
   5  -1  -5  547.25   33.30
   5  -1  -5  560.14   34.20
   5  -1  -5  557.94   34.60
  -5   1   5  549.45   34.00
  -5   1   5  627.34   33.30
  -5   1   5  475.65   37.30
  -5   1   5  487.85   33.70
  -5   1   5  560.54   33.40
  -5   1   5  566.34   34.90
   4  -1  -5 2903.91  165.48
   4  -1  -5 2790.72  164.38
   4  -1  -5 2894.21  165.68
   4  -1  -5 3093.09  165.18
   4  -1  -5 2972.30  164.68
   4  -1  -5 2745.53  164.58
  -4   1   5 2566.84  166.28
  -4   1   5 2723.83  165.38
  -4   1   5 2825.42  164.48
  -4   1   5 2837.42  164.48
  -4   1   5 2767.72  165.48
   3  -1  -5 1521.05   87.39
   3  -1  -5 1360.46   86.19
   3  -1  -5 1460.35   85.89
   3  -1  -5 1446.06   85.79
   3  -1  -5 1548.35   86.79
   3  -1  -5 1562.64   85.89
  -3   1   5 1454.05   85.89
  -3   1   5 1478.45   86.79
  -3   1   5 1459.95   87.29
  -3   1   5 1479.15   85.99
  -3   1   5 1414.76   87.79
   2  -1  -5  242.08   16.90
   2  -1  -5  219.28   13.10
   2  -1  -5  186.58   13.50
   2  -1  -5  227.68   14.70
   2  -1  -5  181.58   13.20
  -2   1   5  232.78   14.90
  -2   1   5  240.68   16.60
  -2   1   5  168.68   13.40
  -2   1   5  164.58   13.40
   1  -1  -5  655.73   39.00
   1  -1  -5  677.23   38.90
   1  -1  -5  664.63   39.80
   1  -1  -5  687.63   41.00
   1  -1  -5  677.33   38.80
  -1   1   5  664.63   40.70
  -1   1   5  592.14   38.80
  -1   1   5  676.23   39.00
  -1   1   5  653.53   38.90
  -1   1   5  649.24   38.70
  -1   1   5  633.34   40.40
   0  -1  -5  923.51   56.19
   0  -1  -5 1033.20   58.19
   0  -1  -5  963.00   56.19
   0  -1  -5  996.40   57.39
   0   1   5  910.61   56.19
   0   1   5 1006.30   57.99
   0   1   5  896.91   56.19
   0   1   5  946.21   56.19
   0   1   5  965.40   57.29
   0   1   5  941.91   56.29
  -1  -1  -5 2276.37  134.49
  -1  -1  -5 2243.08  134.29
  -1  -1  -5 2470.15  135.79
  -1  -1  -5 2392.96  135.99
  -1  -1  -5 2232.38  134.49
  -1  -1  -5 2428.46  135.39
   1   1   5 2187.68  134.49
   1   1   5 2325.67  135.99
   1   1   5 2260.97  134.39
   1   1   5 2323.87  134.49
   1   1   5 2274.67  134.49
  -2  -1  -5  426.96   28.80
  -2  -1  -5  431.26   26.60
  -2  -1  -5  429.86   26.40
  -2  -1  -5  441.06   26.60
  -2  -1  -5  453.55   28.60
   2   1   5  445.06   26.90
   2   1   5  416.96   28.80
   2   1   5  456.75   26.80
   2   1   5  396.56   26.40
   2   1   5  449.56   29.70
  -3  -1  -5 1335.67   79.59
  -3  -1  -5 1263.57   77.89
  -3  -1  -5 1296.57   77.89
  -3  -1  -5 1337.97   77.89
   3   1   5 1324.87   79.99
   3   1   5 1382.06   78.09
   3   1   5 1351.26   78.09
   3   1   5 1328.07   78.19
  -4  -1  -5 1469.05   89.29
  -4  -1  -5 1520.15   87.49
  -4  -1  -5 1302.97   87.99
   4   1   5 1656.33   88.19
   4   1   5 1520.35   88.09
   4   1   5 1528.25   87.69
   4   1   5 1441.86   89.69
  -5  -1  -5  258.37   24.50
  -5  -1  -5  249.38   18.60
   5   1   5  248.18   18.80
   5   1   5  247.58   20.40
  -6  -1  -5   58.69   16.60
  -6  -1  -5   47.80    8.10
   6   1   5   61.59   11.60
  -7  -1  -5  259.67   26.10
  -7  -1  -5  275.77   22.60
  -7  -1  -5  267.37   29.40
   7   1   5  274.17   21.00
   7   1   5  298.07   24.20
 -10   2   5  318.67   24.40
 -10   2   5  300.97   27.60
 -10   2   5  343.87   28.50
   9  -2  -5  344.37   24.10
  -9   2   5  373.56   27.20
  -9   2   5  364.36   24.40
  -9   2   5  286.07   26.90
   8  -2  -5  137.29   12.90
   8  -2  -5  141.59   13.80
  -8   2   5  114.89   12.40
  -8   2   5  120.59   16.00
  -8   2   5  150.28   15.80
   7  -2  -5   19.60    5.60
   7  -2  -5    0.40    5.70
  -7   2   5    6.00    5.50
  -7   2   5    7.60    6.10
  -7   2   5    3.10    6.90
  -7   2   5    8.90    5.40
   6  -2  -5 1131.79   64.59
   6  -2  -5 1121.29   64.69
   6  -2  -5 1069.49   64.19
   6  -2  -5 1113.89   65.49
  -6   2   5 1058.09   64.29
  -6   2   5 1104.19   64.19
  -6   2   5 1121.89   65.99
  -6   2   5  946.61   64.39
  -6   2   5 1143.09   65.19
   5  -2  -5 1986.20  120.19
   5  -2  -5 2014.40  120.79
   5  -2  -5 2142.19  120.49
   5  -2  -5 1975.70  119.49
   5  -2  -5 2265.97  121.09
  -5   2   5 1951.10  120.09
  -5   2   5 2106.39  121.49
  -5   2   5 1971.70  120.89
  -5   2   5 2065.19  120.69
  -5   2   5 1946.31  120.09
  -5   2   5 2241.18  124.39
   4  -2  -5  513.25   31.40
   4  -2  -5  549.85   31.10
   4  -2  -5  567.84   33.00
   4  -2  -5  574.64   32.20
   4  -2  -5  437.36   30.70
   4  -2  -5  457.65   31.10
  -4   2   5  511.75   33.00
  -4   2   5  446.16   31.00
  -4   2   5  577.74   35.80
  -4   2   5  455.15   30.90
  -4   2   5  574.44   32.40
   3  -2  -5 1428.46   80.09
   3  -2  -5 1448.96   78.79
   3  -2  -5 1318.47   78.69
   3  -2  -5 1275.67   78.49
   3  -2  -5 1414.36   79.59
  -3   2   5 1281.57   80.69
  -3   2   5 1323.37   80.09
  -3   2   5 1405.76   79.59
  -3   2   5 1277.07   78.59
  -3   2   5 1278.17   78.59
   2  -2  -5 4194.58  232.88
   2  -2  -5 3868.61  231.48
   2  -2  -5 4339.27  231.78
   2  -2  -5 4082.49  232.38
   2  -2  -5 3894.91  231.58
  -2   2   5 4051.59  232.78
  -2   2   5 3814.02  231.28
  -2   2   5 3866.31  231.58
  -2   2   5 3827.12  231.58
  -2   2   5 4077.99  232.38
  -2   2   5 3898.31  231.58
  -2   2   5 3959.00  232.78
   1  -2  -5  322.97   22.00
   1  -2  -5  329.27   20.80
   1  -2  -5  373.56   23.80
   1  -2  -5  356.86   21.10
   1  -2  -5  350.06   21.20
  -1   2   5  324.27   20.80
  -1   2   5  315.37   20.40
  -1   2   5  341.77   21.30
  -1   2   5  346.37   23.30
  -1   2   5  335.27   20.90
   0  -2  -5  110.09    9.00
   0  -2  -5  120.29    9.80
   0  -2  -5  114.79   11.20
   0  -2  -5  126.89   13.70
   0  -2  -5  122.19   11.60
   0  -2  -5  118.79    9.50
   0   2   5  110.49    9.00
   0   2   5  119.39    9.30
   0   2   5  114.79   10.00
   0   2   5  118.39   10.10
   0   2   5  114.99   13.20
  -1  -2  -5  848.92   50.19
  -1  -2  -5  805.22   48.00
  -1  -2  -5  771.02   47.80
  -1  -2  -5  844.92   49.90
  -1  -2  -5  804.52   48.00
  -1  -2  -5  836.52   49.00
   1   2   5  770.72   47.90
   1   2   5  795.72   48.10
   1   2   5  821.32   48.40
   1   2   5  807.12   47.90
   1   2   5  809.92   49.99
  -2  -2  -5  769.12   46.30
  -2  -2  -5  746.13   46.20
  -2  -2  -5  805.32   47.90
  -2  -2  -5  773.92   46.50
   2   2   5  746.13   46.50
   2   2   5  809.82   46.60
   2   2   5  816.42   46.70
   2   2   5  763.52   48.40
  -3  -2  -5  179.28   17.40
  -3  -2  -5  181.78   13.40
   3   2   5  157.38   14.20
   3   2   5  194.58   15.00
   3   2   5  181.48   14.40
  -4  -2  -5    9.00   10.80
   4   2   5    9.60    6.50
   4   2   5    7.90    7.40
   4   2   5    0.50    6.60
  -5  -2  -5  518.55   37.40
  -5  -2  -5  518.45   32.30
   5   2   5  483.85   33.20
   5   2   5  486.75   31.90
  -6  -2  -5  420.46   34.00
  -6  -2  -5  514.65   38.50
  -6  -2  -5  446.26   30.70
   6   2   5  501.35   32.40
 -10   3   5   39.10   13.40
 -10   3   5   59.39   14.20
 -10   3   5   45.60   10.10
   9  -3  -5  241.18   18.70
  -9   3   5  245.68   21.00
  -9   3   5  230.48   18.50
  -9   3   5  207.78   22.10
   8  -3  -5  991.10   63.09
   8  -3  -5 1022.20   63.69
  -8   3   5 1038.00   62.99
  -8   3   5 1166.18   64.69
  -8   3   5 1080.79   65.69
   7  -3  -5  574.14   34.50
   7  -3  -5  551.54   34.20
  -7   3   5  607.34   36.30
  -7   3   5  531.35   34.00
  -7   3   5  511.95   34.60
  -7   3   5  551.54   33.80
   6  -3  -5   10.20    6.10
   6  -3  -5   -2.80    5.40
   6  -3  -5    9.30    5.30
  -6   3   5    2.50    5.30
  -6   3   5    7.40    5.10
  -6   3   5   -3.70    6.80
  -6   3   5   -1.40    6.60
  -6   3   5    0.20    5.30
   5  -3  -5  793.12   46.40
   5  -3  -5  846.92   46.60
   5  -3  -5  740.53   45.70
  -5   3   5  768.52   47.70
  -5   3   5  775.92   46.10
  -5   3   5  728.33   48.10
  -5   3   5  790.62   46.10
   4  -3  -5 2368.86  127.79
   4  -3  -5 2288.27  127.49
   4  -3  -5 2168.48  127.29
   4  -3  -5 2424.26  128.69
   4  -3  -5 2364.26  128.69
   4  -3  -5 1844.72  127.49
  -4   3   5 2092.89  128.69
  -4   3   5 1916.01  129.69
  -4   3   5 2215.78  127.49
  -4   3   5 2191.88  128.49
  -4   3   5 2189.48  127.49
   3  -3  -5  855.21   49.40
   3  -3  -5  895.61   49.40
   3  -3  -5  857.51   50.09
   3  -3  -5  897.31   50.99
   3  -3  -5  799.92   49.00
  -3   3   5  800.22   49.30
  -3   3   5  829.92   49.30
  -3   3   5  826.62   50.19
  -3   3   5  780.52   50.99
  -3   3   5  781.72   49.10
   2  -3  -5   86.59   12.20
   2  -3  -5   83.09    8.10
   2  -3  -5   92.99    9.50
   2  -3  -5   88.89    8.30
   2  -3  -5   82.09    9.30
  -2   3   5   91.19   12.00
  -2   3   5   86.29    8.30
  -2   3   5   74.69    8.80
  -2   3   5   88.29    9.80
  -2   3   5   92.89    8.80
  -2   3   5   77.99    6.70
   1  -3  -5 2412.16  135.79
   1  -3  -5 2258.17  134.29
   1  -3  -5 2247.08  134.39
   1  -3  -5 2302.47  135.09
   1  -3  -5 2622.04  134.69
   1  -3  -5 2257.17  134.49
  -1   3   5 2304.07  134.39
  -1   3   5 2216.68  134.29
  -1   3   5 2254.27  135.59
  -1   3   5 2198.08  134.29
   0  -3  -5 1781.42  100.79
   0  -3  -5 1704.53  100.69
   0  -3  -5 1796.42  101.79
   0  -3  -5 1511.55  101.09
   0  -3  -5 1751.22  100.79
   0   3   5 1811.32  100.89
   0   3   5 1734.03  102.29
   0   3   5 1713.43  100.79
   0   3   5 1816.12  100.89
   0   3   5 1634.94  100.39
  -1  -3  -5   78.79    8.50
  -1  -3  -5   92.39   10.70
  -1  -3  -5   82.19   11.80
  -1  -3  -5   77.49    8.80
  -1  -3  -5   66.19    9.20
   1   3   5   91.79    9.40
   1   3   5   73.79    8.00
  -2  -3  -5  127.99   11.80
  -2  -3  -5  164.28   16.10
   2   3   5  130.69   12.70
   2   3   5  123.59   15.10
   2   3   5  155.88   14.00
   2   3   5  159.98   13.40
  -3  -3  -5 1142.79   69.79
  -3  -3  -5 1188.68   68.19
   3   3   5 1168.68   68.39
   3   3   5 1073.59   68.39
   3   3   5 1132.69   67.99
   3   3   5 1190.38   68.29
  -4  -3  -5  674.13   47.50
  -4  -3  -5  669.53   41.90
   4   3   5  665.83   42.00
   4   3   5  734.63   42.70
   4   3   5  691.13   45.70
   4   3   5  655.93   42.10
  -5  -3  -5   -8.80   13.80
  -5  -3  -5   -0.60    7.70
   5   3   5   -6.80   10.40
   5   3   5  -18.10    9.20
  -6  -3  -5  127.09   21.00
  -6  -3  -5  148.89   18.30
  -6  -3  -5  147.79   26.30
 -10   4   5  431.26   31.20
 -10   4   5  418.06   33.00
 -10   4   5  411.46   30.90
   9  -4  -5  363.46   25.90
  -9   4   5  373.56   29.40
  -9   4   5  373.56   25.70
  -9   4   5  384.46   29.30
   8  -4  -5   14.00    6.80
   8  -4  -5    8.30    7.30
  -8   4   5   14.60    7.90
  -8   4   5    4.80    6.10
  -8   4   5   16.30    9.70
   7  -4  -5  620.64   36.60
   7  -4  -5  535.75   37.40
   7  -4  -5  604.44   37.20
  -7   4   5  597.44   36.40
  -7   4   5  552.74   38.30
  -7   4   5  619.14   37.30
  -7   4   5  670.03   39.20
   6  -4  -5 1114.59   64.49
   6  -4  -5 1139.49   65.49
   6  -4  -5 1170.28   65.19
   6  -4  -5  957.30   65.29
  -6   4   5 1085.79   65.29
  -6   4   5  975.70   66.39
  -6   4   5 1199.08   66.99
  -6   4   5 1154.78   65.09
  -6   4   5 1136.69   65.09
   5  -4  -5  697.03   39.20
   5  -4  -5  634.84   38.60
   5  -4  -5  662.73   38.80
   5  -4  -5  585.84   38.60
  -5   4   5  573.04   40.80
  -5   4   5  637.74   38.70
  -5   4   5  670.13   38.80
  -5   4   5  704.53   40.40
   4  -4  -5  219.18   14.90
   4  -4  -5  225.88   14.70
   4  -4  -5  217.58   15.20
   4  -4  -5  185.68   15.60
  -4   4   5  209.08   14.60
  -4   4   5  225.88   16.80
  -4   4   5  214.08   15.40
  -4   4   5  210.18   14.70
  -4   4   5  181.88   17.60
   3  -4  -5 1557.14   93.89
   3  -4  -5 1489.45   94.89
   3  -4  -5 1694.83   94.19
  -3   4   5 1718.73   95.19
  -3   4   5 1604.94   94.09
  -3   4   5 1548.84   95.49
  -3   4   5 1607.64   94.29
  -3   4   5 1658.93   94.19
   2  -4  -5 1464.85   79.49
   2  -4  -5 1337.77   78.29
   2  -4  -5 1328.77   78.99
   2  -4  -5 1285.77   77.99
   2  -4  -5 1253.07   77.99
  -2   4   5 1289.47   78.29
  -2   4   5 1333.77   78.29
  -2   4   5 1349.77   78.29
  -2   4   5 1410.96   79.29
  -2   4   5 1293.27   79.79
   1  -4  -5   59.69    8.30
   1  -4  -5   69.39    8.80
  -1   4   5   65.39    9.20
  -1   4   5   57.99    9.20
   0  -4  -5  470.15   29.40
   0  -4  -5  479.15   28.30
   0  -4  -5  477.25   28.70
   0  -4  -5  440.46   27.90
   0   4   5  391.56   27.20
   0   4   5  447.06   28.00
   0   4   5  497.15   28.80
  -1  -4  -5  741.03   43.80
  -1  -4  -5  682.93   44.50
  -1  -4  -5  708.83   45.00
   1   4   5  781.22   44.30
   1   4   5  704.43   43.20
   1   4   5  760.22   44.00
   1   4   5  721.33   45.00
  -2  -4  -5  606.54   36.70
  -2  -4  -5  595.44   38.20
   2   4   5  628.04   37.00
   2   4   5  535.25   38.00
   2   4   5  633.14   37.60
  -3  -4  -5    3.80   10.30
   3   4   5    1.30    9.70
   3   4   5    7.40    6.40
   3   4   5   14.40    7.90
   3   4   5    6.10    6.90
  -4  -4  -5  367.26   26.50
  -4  -4  -5  390.96   31.20
   4   4   5  383.66   30.30
   4   4   5  438.16   29.40
  -5  -4  -5  446.36   37.70
  -5  -4  -5  456.65   31.00
   5   4   5  469.15   32.50
   5   4   5  476.85   35.10
 -10   5   5   13.10   13.80
 -10   5   5   23.60   10.00
   9  -5  -5  476.75   33.20
  -9   5   5  540.55   36.90
  -9   5   5  520.95   33.50
  -9   5   5  496.85   32.70
   8  -5  -5  459.25   30.70
  -8   5   5  414.76   30.40
  -8   5   5  553.24   34.80
  -8   5   5  485.45   29.80
   7  -5  -5   49.50    5.20
   7  -5  -5   53.69    8.20
  -7   5   5   53.99    6.60
  -7   5   5   53.79    8.80
  -7   5   5   62.49   11.80
   6  -5  -5  102.69   14.50
   6  -5  -5   79.79    7.60
   6  -5  -5   87.39   10.10
  -6   5   5   88.39   10.20
  -6   5   5   88.49    9.60
  -6   5   5   89.09   11.80
   5  -5  -5 1642.14   95.49
   5  -5  -5 1841.32   95.99
   5  -5  -5 1645.74   95.99
  -5   5   5 1609.24   95.89
  -5   5   5 1665.23   96.69
  -5   5   5 1427.16   96.89
  -5   5   5 1562.34   95.29
  -5   5   5 1648.44   95.49
   4  -5  -5 1204.08   70.89
   4  -5  -5 1351.06   71.69
   4  -5  -5 1324.17   71.39
   4  -5  -5 1048.60   71.59
  -4   5   5 1285.87   71.89
  -4   5   5 1162.88   72.49
  -4   5   5 1150.08   70.89
  -4   5   5 1094.29   70.69
  -4   5   5 1213.68   71.19
   3  -5  -5   10.10    6.20
   3  -5  -5   12.10    6.50
   3  -5  -5   22.50    6.20
   3  -5  -5   -5.10    5.60
  -3   5   5   -3.30    5.00
  -3   5   5    6.60    5.50
  -3   5   5   14.60    6.60
  -3   5   5    6.70    5.90
   2  -5  -5  825.02   46.90
   2  -5  -5  686.23   47.40
   2  -5  -5  837.22   47.40
  -2   5   5  814.82   47.00
  -2   5   5  804.72   47.10
  -2   5   5  748.93   46.80
   1  -5  -5 1941.21  113.49
   1  -5  -5 1939.21  112.59
  -1   5   5 1805.12  112.59
  -1   5   5 2003.70  112.79
  -1   5   5 1948.31  112.99
   0  -5  -5  319.37   23.00
   0  -5  -5  285.97   21.30
   0  -5  -5  359.86   21.10
   0   5   5  325.67   21.70
   0   5   5  328.07   22.70
  -1  -5  -5  113.59   14.00
  -1  -5  -5  110.19   16.80
  -1  -5  -5  149.09   12.00
   1   5   5  115.99   12.70
   1   5   5  118.09   16.00
   1   5   5  139.39   13.50
  -2  -5  -5  455.05   31.80
  -2  -5  -5  541.95   33.40
   2   5   5  491.45   31.50
   2   5   5  446.86   32.70
   2   5   5  518.35   31.50
  -3  -5  -5  581.94   35.90
  -3  -5  -5  540.45   40.40
   3   5   5  610.04   36.60
   3   5   5  599.24   36.90
   3   5   5  497.15   37.40
  -4  -5  -5   70.99   17.20
  -4  -5  -5   53.49    9.60
   4   5   5   52.79   11.20
   4   5   5   49.60   12.50
  -5  -5  -5   38.50   16.70
  -5  -5  -5   48.60   15.80
  -5  -5  -5   39.80   12.60
   5   5   5   76.79   14.90
   5   5   5   25.10   12.90
  10  -6  -5  182.38   19.00
 -10   6   5  191.78   19.80
 -10   6   5  219.28   24.50
   9  -6  -5   23.80    9.20
  -9   6   5   22.80    8.70
  -9   6   5   13.70   12.90
   8  -6  -5   84.69   12.00
  -8   6   5   84.19   12.30
  -8   6   5   84.19   16.20
   7  -6  -5 1079.49   69.29
   7  -6  -5 1186.18   69.59
  -7   6   5 1216.28   68.69
   6  -6  -5  419.36   25.60
   6  -6  -5  395.46   26.00
  -6   6   5  377.06   27.10
  -6   6   5  410.56   27.40
  -6   6   5  437.36   27.50
  -6   6   5  393.56   25.80
   5  -6  -5    6.50    7.10
   5  -6  -5    2.80    5.90
   5  -6  -5    2.90    5.10
  -5   6   5    1.70    6.20
  -5   6   5    3.70    5.70
  -5   6   5    1.90    7.80
  -5   6   5   -0.10    6.90
   4  -6  -5  453.35   30.30
   4  -6  -5  499.45   30.80
   4  -6  -5  494.35   29.90
  -4   6   5  484.35   30.30
  -4   6   5  474.95   30.80
  -4   6   5  497.65   29.80
  -4   6   5  455.45   29.70
   3  -6  -5 2113.99  115.49
   3  -6  -5 1986.50  116.09
   3  -6  -5 1923.81  116.29
   3  -6  -5 1854.21  116.69
  -3   6   5 1899.51  116.19
  -3   6   5 2080.79  115.59
  -3   6   5 1943.51  115.49
  -3   6   5 2005.60  116.29
   2  -6  -5  192.48   15.10
   2  -6  -5  157.28   14.60
   2  -6  -5  188.98   14.00
  -2   6   5  167.88   14.90
  -2   6   5  194.48   13.80
  -2   6   5  154.58   14.70
   1  -6  -5   86.69   11.80
   1  -6  -5   93.19   10.10
  -1   6   5   85.59   11.30
   0  -6  -5  708.83   40.10
   0  -6  -5  606.94   41.10
   0  -6  -5  589.54   40.20
   0   6   5  693.03   40.50
   0   6   5  715.83   40.30
   0   6   5  624.64   42.60
  -1  -6  -5  763.72   43.20
  -1  -6  -5  658.83   44.20
   1   6   5  701.93   45.50
  -2  -6  -5    1.70    7.80
  -2  -6  -5   11.00    7.90
   2   6   5   11.30    9.40
   2   6   5    2.90   11.90
   2   6   5   -7.40    8.90
  -3  -6  -5   11.50    8.60
  -3  -6  -5   31.50   14.00
  -3  -6  -5   20.60   11.00
   3   6   5   17.50   10.20
   3   6   5   26.40   12.10
   3   6   5   23.00   12.10
  -4  -6  -5  226.78   24.00
  -4  -6  -5  269.87   21.40
  -4  -6  -5  264.77   28.00
   4   6   5  261.67   24.50
   4   6   5  274.67   27.30
 -10   7   5  187.88   18.10
   9  -7  -5  513.75   35.50
  -9   7   5  490.35   34.60
  -9   7   5  627.84   39.50
   8  -7  -5  127.09   14.60
  -8   7   5  144.39   18.40
  -8   7   5  138.69   14.90
  -8   7   5  156.68   17.80
   7  -7  -5   95.29   10.60
   7  -7  -5   95.99   12.50
  -7   7   5  114.79   15.30
  -7   7   5  107.49   17.10
   6  -7  -5  454.35   32.40
   6  -7  -5  555.84   32.20
   6  -7  -5  448.86   31.00
  -6   7   5  504.05   33.30
  -6   7   5  540.35   32.90
  -6   7   5  528.45   31.40
   5  -7  -5  451.75   32.10
   5  -7  -5  554.34   32.30
   5  -7  -5  504.85   31.50
  -5   7   5  502.55   32.60
  -5   7   5  487.15   31.10
  -5   7   5  512.55   34.00
   4  -7  -5  158.98   14.00
   4  -7  -5  143.39   12.20
   4  -7  -5  128.59   13.40
   4  -7  -5  118.89   13.70
  -4   7   5  171.38   15.20
  -4   7   5  133.39   14.00
  -4   7   5  157.48   12.70
  -4   7   5  121.69   12.80
   3  -7  -5   75.29   10.50
   3  -7  -5   82.69   10.00
   3  -7  -5   62.09    9.50
   3  -7  -5   58.29   10.80
  -3   7   5   88.59   10.70
  -3   7   5   80.69   10.80
  -3   7   5   87.79   11.60
   2  -7  -5  895.31   49.90
   2  -7  -5  818.22   51.49
   2  -7  -5  828.92   50.49
  -2   7   5  703.23   50.69
  -2   7   5  904.51   50.89
   1  -7  -5  979.50   58.49
  -1   7   5  978.90   60.09
   0  -7  -5    8.40    7.10
   0  -7  -5   20.20    6.40
   0  -7  -5   16.30    9.30
   0   7   5   15.10    9.40
   0   7   5   29.00    9.50
  -1  -7  -5  387.16   29.00
  -1  -7  -5  425.46   30.30
   1   7   5  433.86   28.90
   1   7   5  424.66   29.40
  -2  -7  -5  460.55   35.70
  -2  -7  -5  593.84   37.50
  -2  -7  -5  515.45   34.50
   2   7   5  458.75   39.10
   2   7   5  582.64   36.10
   2   7   5  541.85   35.40
  -3  -7  -5  116.59   16.00
  -3  -7  -5  112.39   22.10
  -3  -7  -5  128.09   21.10
   3   7   5  164.38   22.70
   3   7   5   84.09   14.00
  -9   8   5   25.90    9.00
  -9   8   5   30.90   16.50
  -9   8   5   45.20   15.50
   8  -8  -5  298.37   25.20
  -8   8   5  364.26   27.30
  -8   8   5  386.46   24.10
  -8   8   5  352.26   27.90
   7  -8  -5  400.06   30.70
   7  -8  -5  437.16   29.40
  -7   8   5  509.75   31.80
  -7   8   5  499.35   29.40
  -7   8   5  448.76   31.90
   6  -8  -5  109.69   13.70
   6  -8  -5  123.19   12.00
  -6   8   5  110.49   14.30
  -6   8   5  106.09   14.70
  -6   8   5  114.09   16.00
   5  -8  -5  223.68   18.90
   5  -8  -5  257.47   18.40
  -5   8   5  250.27   20.10
  -5   8   5  229.88   19.20
   4  -8  -5  889.41   57.59
   4  -8  -5  989.00   55.79
   4  -8  -5  856.11   57.09
  -4   8   5 1020.10   57.29
   3  -8  -5  458.75   30.40
  -3   8   5  516.65   32.10
   2  -8  -5    7.90    8.70
   2  -8  -5   -5.90    7.10
  -2   8   5  -10.60    8.10
  -2   8   5    8.60    9.30
   1  -8  -5  376.76   29.40
   1  -8  -5  414.66   26.50
  -1   8   5  415.46   29.80
  -1   8   5  391.56   32.50
  -1   8   5  432.76   27.50
   0  -8  -5  433.76   32.20
   0  -8  -5  426.26   30.90
   0   8   5  485.15   31.50
   0   8   5  501.35   30.60
   0   8   5  405.66   35.10
  -1  -8  -5  146.09   18.90
  -1  -8  -5  163.98   17.50
   1   8   5  157.98   19.80
   1   8   5  167.08   18.10
   1   8   5  128.79   24.70
  -2  -8  -5   -1.00   10.30
  -2  -8  -5   15.30   12.10
   2   8   5   20.70   20.00
   2   8   5    2.20   12.30
   2   8   5   -0.20   11.50
   8  -9  -5   22.40   10.30
  -8   9   5   30.30    7.90
  -8   9   5   17.20   14.10
  -8   9   5   29.10   14.70
   7  -9  -5  128.19   16.00
   7  -9  -5  179.88   15.70
  -7   9   5  145.79   19.30
  -7   9   5  122.49   16.90
  -7   9   5  161.48   15.20
   6  -9  -5  394.46   29.00
  -6   9   5  442.16   28.60
   5  -9  -5  194.48   19.40
   5  -9  -5  261.57   21.20
  -5   9   5  248.08   21.20
   4  -9  -5    0.50    8.60
   4  -9  -5   -7.90   10.00
  -4   9   5  -11.10    7.70
  -4   9   5   -7.00   10.20
   3  -9  -5  627.74   40.10
  -3   9   5  599.04   37.40
  -3   9   5  566.64   39.30
   2  -9  -5  580.24   34.60
   2  -9  -5  587.64   37.80
  -2   9   5  574.74   35.20
  -2   9   5  459.85   40.90
  -2   9   5  524.95   36.70
   1  -9  -5   34.30    7.50
   1  -9  -5   41.20   11.60
  -1   9   5    4.80   11.80
  -1   9   5   33.40   10.50
  -1   9   5   36.70   18.10
   0  -9  -5   52.99   12.80
   0  -9  -5   46.20   10.30
   0   9   5   54.49   13.50
   0   9   5   68.09   12.60
   0   9   5   44.20   19.70
  -1  -9  -5  421.06   31.70
   1   9   5  437.86   33.40
   1   9   5  421.76   33.80
   8 -10  -5  203.98   19.70
   7 -10  -5  111.09   16.30
   7 -10  -5  110.69   15.30
  -7  10   5  129.09   20.30
   6 -10  -5   71.89   13.30
   6 -10  -5  112.69   15.50
  -6  10   5  110.79   13.90
  -6  10   5  103.19   14.50
   5 -10  -5  459.45   32.20
  -5  10   5  398.26   27.70
  -5  10   5  406.96   33.40
   4 -10  -5  158.18   18.30
  -4  10   5  127.59   22.30
  -4  10   5  170.08   16.90
   3 -10  -5  134.39   17.70
  -3  10   5  155.68   16.40
  -3  10   5  101.59   22.80
  -3  10   5   87.79   15.00
   2 -10  -5   79.69   16.90
  -2  10   5   53.59   10.20
  -2  10   5   64.19   21.80
  -2  10   5   60.09   13.30
   1 -10  -5  446.46   33.10
  -1  10   5  404.26   32.60
  -1  10   5  439.76   30.30
   6 -11  -5  125.89   17.40
   6 -11  -5  166.28   20.10
  -6  11   5  158.78   15.30
   5 -11  -5   38.20   13.30
  -5  11   5   55.29    9.40
  -5  11   5   68.29   14.80
   4 -11  -5  210.98   22.70
  -4  11   5  234.88   27.50
  -4  11   5  193.08   18.50
   3 -11  -5  272.57   26.00
  -3  11   5  301.67   24.90
   1  11  -6  285.07   20.70
   1  11  -6  213.18   25.70
  -1 -11   6  266.87   19.70
  -1 -11   6  203.08   22.70
   0  11  -6  354.36   30.20
   0  11  -6  367.76   35.70
   0  11  -6  412.56   27.00
   0 -11   6  416.76   27.70
   0 -11   6  399.16   30.70
  -1  11  -6   54.69   12.90
  -1  11  -6   81.59   12.00
  -1  11  -6   76.29   26.10
   1 -11   6   54.19   13.30
   1 -11   6   88.49   13.50
  -2  11  -6  223.18   23.90
  -2  11  -6  294.97   31.10
   2 -11   6  269.57   21.20
  -3  11  -6  380.26   46.60
  -3  11  -6  423.06   35.90
   3 -11   6  435.36   28.50
  -4  11  -6   93.09   18.60
  -4  11  -6  144.89   27.20
  -4  11  -6  124.19   22.10
   3  10  -6  421.56   30.70
   3  10  -6  310.37   29.60
  -3 -10   6  360.76   27.90
   2  10  -6  288.27   27.10
   2  10  -6  329.17   36.00
   2  10  -6  290.37   25.40
   2  10  -6  283.07   21.40
  -2 -10   6  305.37   22.40
  -2 -10   6  288.87   24.60
   1  10  -6    6.20    9.50
   1  10  -6   -1.20   16.40
   1  10  -6    0.00    7.70
   1  10  -6   10.40   12.10
  -1 -10   6   -0.70    8.20
  -1 -10   6   12.40   10.50
   0  10  -6  344.27   23.00
   0  10  -6  316.47   27.20
   0  10  -6  295.47   32.70
   0  10  -6  312.67   22.30
   0 -10   6  336.97   26.20
   0 -10   6  317.57   23.10
  -1  10  -6  686.73   47.50
  -1  10  -6  630.44   40.30
  -1  10  -6  689.83   44.70
  -1  10  -6  625.64   40.30
   1 -10   6  679.03   41.30
  -2  10  -6  238.88   22.40
  -2  10  -6  190.28   15.00
  -2  10  -6  232.58   26.10
   2 -10   6  203.88   18.00
  -3  10  -6   45.40   13.30
  -3  10  -6   44.70   15.90
   3 -10   6   35.00    9.70
  -4  10  -6  426.26   37.70
  -4  10  -6  326.87   30.20
   4 -10   6  399.86   26.60
  -5  10  -6  205.48   25.90
  -5  10  -6  230.08   23.80
   4   9  -6  133.29   16.70
   4   9  -6  163.78   21.70
   4   9  -6  127.09   12.80
   4   9  -6  153.28   32.50
  -4  -9   6  141.19   18.20
   3   9  -6    8.20   10.30
   3   9  -6   -5.80   20.10
   3   9  -6   26.50   11.90
   3   9  -6    8.30    8.70
  -3  -9   6    6.50    8.60
  -3  -9   6   18.90   10.80
   2   9  -6  276.07   24.80
   2   9  -6  278.97   23.80
   2   9  -6  285.27   20.70
   2   9  -6  277.37   29.60
  -2  -9   6  308.47   21.50
  -2  -9   6  271.07   22.50
   1   9  -6  551.44   33.10
   1   9  -6  522.55   40.50
   1   9  -6  500.15   32.40
   1   9  -6  506.15   36.10
  -1  -9   6  480.15   34.80
  -1  -9   6  525.75   33.30
   0   9  -6  223.58   16.20
   0   9  -6  210.58   25.80
   0   9  -6  214.58   21.00
   0   9  -6  221.78   16.70
   0  -9   6  227.98   17.60
   0  -9   6  185.68   19.30
  -1   9  -6   -5.20   13.30
  -1   9  -6    7.60    6.20
  -1   9  -6   -0.30   10.20
  -1   9  -6   -0.30    5.20
   1  -9   6   -4.30    7.90
  -2   9  -6  491.25   40.40
  -2   9  -6  561.64   34.40
  -2   9  -6  556.14   38.40
  -2   9  -6  585.94   33.80
   2  -9   6  632.24   36.20
  -3   9  -6  865.81   55.19
  -3   9  -6  863.51   54.39
   3  -9   6  836.12   52.19
  -4   9  -6   28.60    9.80
  -4   9  -6   28.90   12.00
  -4   9  -6   10.70    7.60
   4  -9   6   10.20    9.40
  -5   9  -6  197.88   23.50
  -5   9  -6  129.39   22.20
  -5   9  -6  144.89   16.80
   5  -9   6  167.08   16.40
  -6   9  -6  383.86   31.80
  -6   9  -6  322.57   29.00
   6  -9   6  437.96   26.90
   5   8  -6   -0.70   20.90
   5   8  -6   -3.40    8.10
   5   8  -6   11.10    6.20
   5   8  -6   24.90   13.10
  -5  -8   6    8.50   11.00
  -5  -8   6   11.00   10.00
   4   8  -6  528.55   38.70
   4   8  -6  586.84   36.20
   4   8  -6  553.64   34.60
   4   8  -6  604.24   46.90
  -4  -8   6  597.04   36.40
  -4  -8   6  508.75   36.50
   3   8  -6  531.55   37.50
   3   8  -6  538.55   37.00
   3   8  -6  550.14   34.70
   3   8  -6  530.55   43.10
  -3  -8   6  537.25   34.10
  -3  -8   6  562.84   35.20
  -3  -8   6  577.84   36.60
   2   8  -6  109.69   18.20
   2   8  -6  112.69   12.60
   2   8  -6   79.39   16.20
   2   8  -6  119.49   12.10
  -2  -8   6  114.99   12.20
  -2  -8   6  106.59   14.50
  -2  -8   6  129.09   13.40
   1   8  -6  282.37   31.50
   1   8  -6  334.97   24.80
   1   8  -6  287.07   21.00
  -1  -8   6  331.57   21.90
  -1  -8   6  318.77   20.90
   0   8  -6  798.12   45.80
   0   8  -6  775.12   50.39
   0   8  -6  773.42   46.00
   0   8  -6  759.62   50.69
   0  -8   6  713.43   45.70
   0  -8   6  781.52   46.70
  -1   8  -6  383.46   27.90
  -1   8  -6  336.57   22.70
  -1   8  -6  360.66   22.40
   1  -8   6  370.06   23.80
  -2   8  -6   50.09    7.00
  -2   8  -6   51.39    6.40
   2  -8   6   52.39    8.00
  -3   8  -6  392.66   28.10
  -3   8  -6  333.67   29.60
   3  -8   6  426.66   26.30
  -4   8  -6  862.01   51.69
  -4   8  -6  817.62   52.89
   4  -8   6  793.72   50.19
  -5   8  -6  121.69   18.60
  -5   8  -6  171.58   19.80
   5  -8   6  140.89   16.30
  -6   8  -6   37.20   17.10
  -6   8  -6   10.30   11.10
  -7   8  -6  184.48   25.10
  -7   8  -6  221.98   27.50
   7  -8   6  258.77   20.70
   6   7  -6  412.76   28.00
   6   7  -6  365.36   32.50
   6   7  -6  409.46   41.50
   6   7  -6  391.56   25.70
  -6  -7   6  398.56   28.70
   5   7  -6  467.35   29.20
   5   7  -6  424.56   27.70
   5   7  -6  425.96   41.00
   5   7  -6  404.76   33.00
  -5  -7   6  451.05   29.60
  -5  -7   6  448.16   29.20
   4   7  -6   77.99    8.60
   4   7  -6   71.39   15.10
   4   7  -6   66.89   18.70
   4   7  -6   71.49    8.80
  -4  -7   6   64.69    8.10
  -4  -7   6   54.39   10.70
  -4  -7   6   61.29   12.70
   3   7  -6  221.98   27.80
   3   7  -6  248.68   17.80
   3   7  -6  215.68   22.70
  -3  -7   6  263.57   19.10
  -3  -7   6  257.77   18.10
  -3  -7   6  239.68   18.60
  -3  -7   6  270.57   19.50
   2   7  -6 1153.28   73.09
   2   7  -6 1170.78   70.89
  -2  -7   6 1215.08   70.69
  -2  -7   6 1212.58   71.09
  -2  -7   6 1230.68   72.19
   1   7  -6  656.13   40.30
   1   7  -6  650.83   37.70
   1   7  -6  578.14   37.50
   1   7  -6  538.15   37.80
   1   7  -6  628.14   37.50
   1   7  -6  718.93   42.40
  -1  -7   6  633.04   39.50
  -1  -7   6  620.34   37.40
  -1  -7   6  636.64   38.40
  -1  -7   6  571.54   38.30
   0   7  -6    5.70    5.70
   0   7  -6   19.40    4.90
   0   7  -6   15.10    7.80
   0   7  -6   20.20    9.90
   0   7  -6   23.00    4.70
   0  -7   6   16.60    6.80
   0  -7   6   17.50    5.50
   0  -7   6   18.30    4.70
  -1   7  -6  693.33   41.20
  -1   7  -6  671.13   41.50
  -1   7  -6  551.34   39.40
  -1   7  -6  695.13   38.10
  -1   7  -6  612.24   38.00
  -1   7  -6  670.53   38.10
   1  -7   6  538.05   38.60
   1  -7   6  693.23   39.10
  -2   7  -6 1271.87   80.49
  -2   7  -6 1433.96   83.19
  -2   7  -6 1447.76   83.09
  -2   7  -6 1366.36   80.39
   2  -7   6 1382.46   81.69
  -3   7  -6  340.07   24.60
  -3   7  -6  324.67   23.80
   3  -7   6  298.87   22.50
  -4   7  -6   68.69   14.60
  -4   7  -6   66.99   13.30
   4  -7   6   79.19   11.70
  -5   7  -6  511.35   34.70
  -5   7  -6  432.96   33.80
   5  -7   6  523.85   31.80
  -6   7  -6  301.67   29.20
   6  -7   6  308.77   23.50
  -7   7  -6   51.89   17.10
  -7   7  -6   31.70   17.20
   7  -7   6   26.20   12.10
   7   6  -6  282.17   20.20
   7   6  -6  306.57   22.80
   7   6  -6  287.57   37.30
  -7  -6   6  279.57   23.80
   6   6  -6   10.40    5.70
   6   6  -6   17.80   12.00
   6   6  -6   12.80    8.20
   6   6  -6   16.20   19.10
  -6  -6   6    0.50    8.60
   5   6  -6  350.06   23.50
   5   6  -6  334.57   22.40
   5   6  -6  310.87   34.50
  -5  -6   6  354.76   23.50
  -5  -6   6  335.87   24.30
   4   6  -6 1578.84   95.09
   4   6  -6 1614.04   97.29
   4   6  -6 1676.83  100.09
   4   6  -6 1607.04   95.49
  -4  -6   6 1650.23   96.39
  -4  -6   6 1592.94   95.29
  -4  -6   6 1625.44   96.29
   3   6  -6   92.89   19.40
   3   6  -6  101.49   13.00
   3   6  -6   88.79    8.40
   3   6  -6   80.89   10.40
   3   6  -6   74.49    9.70
  -3  -6   6   91.19   10.90
  -3  -6   6   69.09   10.80
  -3  -6   6   81.99   12.10
   2   6  -6  107.69   11.10
   2   6  -6  131.69   13.40
   2   6  -6  113.09   18.80
   2   6  -6  109.79    8.90
   2   6  -6  122.39   10.10
   2   6  -6  103.29   10.50
   2   6  -6  111.19   10.50
  -2  -6   6  119.19   11.00
  -2  -6   6   92.79   11.50
  -2  -6   6  121.59   12.30
  -2  -6   6  111.99   11.50
   1   6  -6  408.36   27.80
   1   6  -6  433.36   27.20
   1   6  -6  467.85   27.30
   1   6  -6  446.76   29.80
   1   6  -6  431.86   27.20
   1   6  -6  470.15   32.90
  -1  -6   6  463.55   27.20
  -1  -6   6  453.65   28.10
  -1  -6   6  432.46   27.70
   0   6  -6 1068.59   68.69
   0   6  -6 1179.68   70.19
   0   6  -6 1186.78   67.99
   0   6  -6 1163.78   67.79
   0   6  -6 1215.78   70.49
   0  -6   6 1088.39   67.69
   0  -6   6 1159.98   67.79
   0  -6   6 1204.88   68.59
  -1   6  -6   72.19    7.00
  -1   6  -6   85.89   11.80
  -1   6  -6   89.19   14.10
  -1   6  -6   62.99    7.20
  -1   6  -6   59.89    8.10
   1  -6   6   60.89   10.50
   1  -6   6   49.80    9.90
   1  -6   6   74.79    7.10
   1  -6   6   88.49    7.30
  -2   6  -6   19.10    8.90
  -2   6  -6   22.30    4.30
  -2   6  -6   28.20    3.80
  -2   6  -6    5.40    8.60
  -2   6  -6   11.30    7.70
   2  -6   6   26.10    3.70
   2  -6   6   19.50    7.50
  -3   6  -6  807.02   50.09
  -3   6  -6  871.51   53.39
  -3   6  -6  881.71   50.19
  -3   6  -6  864.31   52.19
   3  -6   6  857.71   51.49
  -4   6  -6 1172.88   70.39
  -4   6  -6 1142.79   70.79
   4  -6   6 1159.38   68.99
  -5   6  -6   12.20   11.80
  -5   6  -6   -0.70   11.60
   5  -6   6    5.90    8.10
  -6   6  -6  275.97   26.50
   6  -6   6  305.17   21.90
  -7   6  -6  456.25   39.60
  -7   6  -6  328.07   34.80
   7  -6   6  379.36   27.50
   7   5  -6  385.96   39.70
   7   5  -6  355.66   24.70
   7   5  -6  378.36   25.80
  -7  -5   6  375.96   27.00
  -7  -5   6  382.16   30.30
  -7  -5   6  362.26   29.20
   6   5  -6  600.04   40.90
   6   5  -6  681.73   48.30
   6   5  -6  634.04   39.50
   6   5  -6  633.94   38.70
  -6  -5   6  651.43   42.20
  -6  -5   6  598.54   40.30
  -6  -5   6  617.94   39.40
   5   5  -6  234.48   16.50
   5   5  -6  261.97   29.10
   5   5  -6  243.38   19.50
   5   5  -6  241.28   17.80
  -5  -5   6  231.98   17.50
  -5  -5   6  248.78   19.20
   4   5  -6   15.30    5.30
   4   5  -6   19.10    8.30
   4   5  -6   20.60    4.80
   4   5  -6   30.50   13.40
   4   5  -6   21.30    5.60
  -4  -5   6   24.50    8.10
  -4  -5   6   21.40    6.00
   3   5  -6 1430.96   89.49
   3   5  -6 1510.45   89.69
   3   5  -6 1425.46   89.09
   3   5  -6 1521.95   88.59
   3   5  -6 1497.05   90.49
   3   5  -6 1563.64   91.99
   3   5  -6 1539.65   88.89
  -3  -5   6 1585.74   89.89
  -3  -5   6 1550.04   88.79
   2   5  -6 1609.14  109.49
   2   5  -6 1838.02  110.59
   2   5  -6 1847.12  109.89
   2   5  -6 1900.41  112.49
   2   5  -6 1931.61  109.89
   2   5  -6 1892.11  111.69
   2   5  -6 1931.31  111.69
  -2  -5   6 2055.29  111.09
  -2  -5   6 1819.92  109.99
  -2  -5   6 1995.40  109.99
  -2  -5   6 1886.91  110.19
   1   5  -6   43.40    8.60
   1   5  -6   50.99    7.00
   1   5  -6   46.20   10.80
   1   5  -6   55.99   11.10
   1   5  -6   60.59    7.40
  -1  -5   6   40.40    6.70
  -1  -5   6   51.19    7.60
  -1  -5   6   41.50    7.20
   0   5  -6  599.74   36.10
   0   5  -6  588.94   33.60
   0   5  -6  499.75   34.60
   0   5  -6  555.94   33.80
   0   5  -6  586.44   37.20
   0  -5   6  567.24   33.60
   0  -5   6  571.24   34.00
   0  -5   6  500.95   36.10
   0  -5   6  568.44   33.40
  -1   5  -6 1559.64   89.29
  -1   5  -6 1569.14   89.49
  -1   5  -6 1507.75   87.29
  -1   5  -6 1434.86   87.29
   1  -5   6 1484.75   87.89
   1  -5   6 1462.15   87.29
   1  -5   6 1573.54   87.39
   1  -5   6 1386.76   88.89
  -2   5  -6  782.32   48.70
  -2   5  -6  830.92   48.70
  -2   5  -6  881.21   51.69
  -2   5  -6  799.52   50.49
   2  -5   6  810.52   49.80
   2  -5   6  873.61   48.80
  -3   5  -6   -0.30    3.90
  -3   5  -6    1.90    3.70
  -3   5  -6    7.20    9.20
  -3   5  -6    7.90    6.40
   3  -5   6   -5.40    7.30
   3  -5   6    7.80    4.00
  -4   5  -6  372.86   22.20
  -4   5  -6  367.46   22.60
  -4   5  -6  374.46   26.40
  -4   5  -6  338.97   26.70
   4  -5   6  384.46   25.10
  -5   5  -6 1048.30   62.59
  -5   5  -6 1052.19   58.89
  -5   5  -6  917.61   61.49
   5  -5   6 1005.20   60.59
  -6   5  -6  210.38   22.40
  -6   5  -6  205.18   12.90
  -6   5  -6  147.89   21.80
   6  -5   6  194.18   18.60
  -7   5  -6   43.00   17.60
  -7   5  -6   47.20   13.80
   7  -5   6   52.89   10.90
   8   4  -6  267.97   24.20
   8   4  -6  294.37   20.70
   8   4  -6  264.47   39.10
  -8  -4   6  285.07   23.40
  -8  -4   6  284.87   25.20
  -8  -4   6  334.57   26.50
   7   4  -6  132.49   12.60
   7   4  -6  134.49   29.30
   7   4  -6  120.19   16.30
   7   4  -6  149.49   15.20
  -7  -4   6  140.39   15.40
  -7  -4   6  138.29   19.40
  -7  -4   6  133.69   18.20
   6   4  -6   80.49   16.50
   6   4  -6   85.29   13.80
   6   4  -6  104.89   10.00
   6   4  -6  101.39   11.70
  -6  -4   6   88.49   15.80
  -6  -4   6   79.39   11.50
  -6  -4   6  104.89   13.70
   5   4  -6  972.50   62.49
   5   4  -6 1042.20   60.89
   5   4  -6  974.10   64.69
   5   4  -6 1033.70   60.79
  -5  -4   6 1050.59   63.89
  -5  -4   6 1053.79   60.89
  -5  -4   6 1032.70   62.29
   4   4  -6  957.20   58.99
   4   4  -6  983.30   60.59
   4   4  -6  986.90   62.69
   4   4  -6 1013.10   59.19
   4   4  -6  973.90   59.09
  -4  -4   6 1042.20   58.89
  -4  -4   6  993.60   59.89
   3   4  -6   81.69   10.40
   3   4  -6   90.89    7.50
   3   4  -6   86.29   18.40
   3   4  -6   95.09    9.10
   3   4  -6   89.49    8.70
   3   4  -6   99.49   11.90
   3   4  -6   93.89    9.00
  -3  -4   6   97.09   11.60
  -3  -4   6   94.59    9.50
  -3  -4   6   79.49   10.10
   2   4  -6 1225.88   69.49
   2   4  -6 1114.59   70.09
   2   4  -6 1219.48   69.49
   2   4  -6 1186.98   72.49
   2   4  -6 1083.29   68.99
   2   4  -6 1201.08   71.29
   2   4  -6 1124.29   70.19
  -2  -4   6 1181.68   69.89
  -2  -4   6 1168.38   69.49
  -2  -4   6 1243.98   70.79
  -2  -4   6 1270.27   69.59
   1   4  -6 1742.63  100.79
   1   4  -6 1750.02   98.59
   1   4  -6 1523.25   99.59
   1   4  -6 1739.93   98.69
   1   4  -6 1769.82  100.49
   1   4  -6 1623.94   99.49
  -1  -4   6 1653.33   98.79
  -1  -4   6 1568.84  100.19
  -1  -4   6 1765.12   98.69
  -1  -4   6 1762.22   98.59
   0   4  -6  247.28   18.70
   0   4  -6  230.18   18.50
   0   4  -6  252.37   17.20
   0   4  -6  275.67   16.90
   0  -4   6  308.67   20.50
   0  -4   6  239.58   19.40
   0  -4   6  267.37   17.50
   0  -4   6  258.57   16.70
   0  -4   6  293.37   17.10
  -1   4  -6   17.70    4.20
  -1   4  -6   28.80    8.40
  -1   4  -6   21.60    7.60
  -1   4  -6   16.30    4.60
   1  -4   6   18.60    4.40
   1  -4   6   19.30    4.20
   1  -4   6   21.70    6.70
   1  -4   6   17.30    5.40
   1  -4   6   22.10    6.80
  -2   4  -6  635.64   40.90
  -2   4  -6  618.14   39.60
  -2   4  -6  662.43   38.30
  -2   4  -6  631.94   38.20
   2  -4   6  668.93   40.40
   2  -4   6  636.04   39.00
   2  -4   6  647.84   38.20
   2  -4   6  605.04   39.10
   2  -4   6  700.33   38.40
  -3   4  -6  810.12   49.70
  -3   4  -6  840.62   49.90
  -3   4  -6  821.42   52.29
   3  -4   6  895.71   52.29
   3  -4   6  852.01   50.89
   3  -4   6  858.81   49.90
  -4   4  -6  277.77   17.80
  -4   4  -6  297.37   22.20
  -4   4  -6  274.77   18.20
  -4   4  -6  284.47   22.40
   4  -4   6  292.37   20.00
  -5   4  -6   89.39    7.80
  -5   4  -6   61.99   12.80
  -5   4  -6   90.89   15.90
   5  -4   6   84.49   13.70
   5  -4   6   80.29   10.50
  -6   4  -6  578.84   38.60
  -6   4  -6  511.75   33.20
   6  -4   6  571.94   35.10
   6  -4   6  514.75   33.90
  -7   4  -6  205.38   23.70
  -7   4  -6  257.67   27.60
  -7   4  -6  269.87   17.20
   7  -4   6  189.38   18.30
   7  -4   6  269.77   20.90
   8   3  -6  146.59   17.10
   8   3  -6  164.38   32.80
   8   3  -6  141.89   14.50
  -8  -3   6  163.88   16.90
  -8  -3   6  135.49   20.70
  -8  -3   6  141.29   18.70
   7   3  -6  887.61   52.59
   7   3  -6  773.72   53.79
   7   3  -6  901.61   60.19
   7   3  -6  879.51   52.59
  -7  -3   6  825.12   54.09
  -7  -3   6  866.81   54.29
  -7  -3   6  925.61   52.69
   6   3  -6  496.95   35.30
   6   3  -6  545.85   33.00
   6   3  -6  569.14   33.40
  -6  -3   6  530.25   36.80
  -6  -3   6  527.35   34.70
   5   3  -6    5.60    8.00
   5   3  -6    1.90    5.30
   5   3  -6    1.30    3.90
   5   3  -6   13.70   13.00
  -5  -3   6    0.70    5.40
  -5  -3   6   10.80    6.70
  -5  -3   6   -1.00    6.10
   4   3  -6 1096.19   62.99
   4   3  -6 1057.09   62.99
   4   3  -6 1048.70   66.69
   4   3  -6 1041.20   64.59
   4   3  -6 1078.09   62.79
  -4  -3   6 1048.00   64.09
  -4  -3   6 1129.19   63.09
  -4  -3   6 1024.70   63.99
   3   3  -6 2136.59  130.89
   3   3  -6 2177.18  131.79
   3   3  -6 2245.28  132.49
   3   3  -6 2216.38  133.19
   3   3  -6 2257.57  131.39
   3   3  -6 2315.47  130.79
   3   3  -6 2278.87  131.09
  -3  -3   6 2213.58  131.19
  -3  -3   6 2350.66  132.09
  -3  -3   6 2276.67  130.99
   2   3  -6  424.96   27.80
   2   3  -6  469.85   28.70
   2   3  -6  455.15   28.50
   2   3  -6  423.06   27.60
   2   3  -6  428.86   27.10
   2   3  -6  525.65   30.30
  -2  -3   6  434.56   29.60
  -2  -3   6  431.26   27.60
  -2  -3   6  477.85   27.60
  -2  -3   6  534.05   29.40
  -2  -3   6  426.16   27.90
  -2  -3   6  419.66   27.90
  -2  -3   6  472.95   30.60
   1   3  -6  138.89   13.70
   1   3  -6  133.69   16.90
   1   3  -6  134.19    9.90
   1   3  -6  127.99   11.10
   1   3  -6  121.69   10.30
   1   3  -6  126.19   11.50
  -1  -3   6  121.99   12.90
  -1  -3   6  120.79    8.80
  -1  -3   6  134.29   10.10
  -1  -3   6  112.59   10.10
  -1  -3   6  122.09   14.60
  -1  -3   6  129.89   10.20
   0   3  -6 1857.41  110.19
   0   3  -6 1858.01  110.39
   0   3  -6 1829.22  108.99
   0   3  -6 1951.40  110.89
   0  -3   6 1921.91  110.19
   0  -3   6 1864.91  109.19
   0  -3   6 1840.62  110.49
   0  -3   6 1728.13  109.19
   0  -3   6 1985.60  109.09
  -1   3  -6 1714.53  108.69
  -1   3  -6 1893.61  107.29
  -1   3  -6 1847.72  108.39
  -1   3  -6 1792.42  107.29
  -1   3  -6 1835.52  109.19
  -1   3  -6 1851.51  108.89
   1  -3   6 1822.92  108.09
   1  -3   6 1846.62  108.99
   1  -3   6 1844.22  107.59
   1  -3   6 1961.40  107.39
   1  -3   6 1842.62  107.19
  -2   3  -6   80.79    8.10
  -2   3  -6   92.89   10.40
  -2   3  -6   99.19   13.50
  -2   3  -6   84.09    8.40
   2  -3   6   79.09    9.00
   2  -3   6   80.89   12.70
   2  -3   6   85.79    9.60
   2  -3   6   93.69    8.20
   2  -3   6  101.09    8.50
  -3   3  -6  271.17   17.30
  -3   3  -6  271.07   21.30
  -3   3  -6  257.87   17.10
  -3   3  -6  271.87   20.50
   3  -3   6  268.07   18.40
   3  -3   6  274.97   20.50
  -4   3  -6 1133.79   64.09
  -4   3  -6 1102.79   66.49
  -4   3  -6 1072.89   64.19
  -4   3  -6 1061.29   66.39
   4  -3   6  964.40   64.29
   4  -3   6 1148.19   66.29
   4  -3   6 1110.79   64.99
   4  -3   6 1142.19   64.09
  -5   3  -6  502.15   35.90
  -5   3  -6  599.44   33.80
  -5   3  -6  581.64   38.20
   5  -3   6  604.64   35.80
   5  -3   6  505.95   34.80
  -6   3  -6   -7.20   14.10
  -6   3  -6   -6.00    5.60
   6  -3   6  -11.90    8.80
   6  -3   6    0.10    7.90
  -7   3  -6  228.68   16.90
  -7   3  -6  229.18   26.80
   7  -3   6  231.08   20.20
   7  -3   6  199.18   18.10
   9   2  -6  337.97   26.60
  -9  -2   6  320.07   26.60
  -9  -2   6  348.27   27.40
  -9  -2   6  319.37   29.40
   8   2  -6  473.05   42.60
   8   2  -6  474.15   32.50
   8   2  -6  477.05   31.30
  -8  -2   6  530.35   35.20
  -8  -2   6  502.05   32.30
  -8  -2   6  461.75   34.10
   7   2  -6   20.10   16.80
   7   2  -6   23.30    9.30
   7   2  -6   32.60    7.00
   7   2  -6   34.90    6.40
  -7  -2   6   32.50    9.90
  -7  -2   6   32.90    7.80
  -7  -2   6   35.30    9.40
   6   2  -6 1019.70   65.49
   6   2  -6  990.70   60.49
   6   2  -6  963.90   62.19
   6   2  -6 1008.80   60.49
  -6  -2   6 1033.70   62.19
  -6  -2   6 1049.09   62.29
  -6  -2   6 1049.00   60.59
   5   2  -6 1051.99   66.29
   5   2  -6 1134.89   67.89
   5   2  -6 1171.48   70.69
   5   2  -6 1113.19   66.19
  -5  -2   6 1073.09   66.29
  -5  -2   6 1171.38   67.89
  -5  -2   6 1136.39   67.59
   4   2  -6  454.35   30.00
   4   2  -6  512.15   34.30
   4   2  -6  440.36   28.90
   4   2  -6  427.06   27.90
   4   2  -6  441.96   27.60
   4   2  -6  462.05   27.50
  -4  -2   6  427.56   28.20
  -4  -2   6  492.65   30.00
  -4  -2   6  435.46   28.90
   3   2  -6  260.57   19.60
   3   2  -6  295.47   17.40
   3   2  -6  306.87   18.20
   3   2  -6  284.37   18.30
   3   2  -6  254.17   19.30
   3   2  -6  296.37   20.90
   3   2  -6  265.77   23.30
   3   2  -6  296.07   18.40
  -3  -2   6  273.27   19.90
  -3  -2   6  295.47   18.30
  -3  -2   6  261.07   19.80
  -3  -2   6  269.57   22.40
  -3  -2   6  281.97   18.60
  -3  -2   6  270.67   18.50
   2   2  -6 1468.45   83.59
   2   2  -6 1410.66   84.39
   2   2  -6 1460.35   85.29
   2   2  -6 1459.25   83.59
   2   2  -6 1432.56   85.89
   2   2  -6 1385.46   84.39
   2   2  -6 1391.86   83.19
   2   2  -6 1393.66   84.09
  -2  -2   6 1376.56   83.49
  -2  -2   6 1406.96   85.69
  -2  -2   6 1493.05   83.59
  -2  -2   6 1479.65   84.69
  -2  -2   6 1394.06   84.89
  -2  -2   6 1412.76   83.59
  -2  -2   6 1467.05   83.69
   1   2  -6 1363.26   80.49
   1   2  -6 1297.27   80.39
   1   2  -6 1373.76   81.59
   1   2  -6 1396.06   81.39
   1   2  -6 1397.16   79.49
   1   2  -6 1382.16   79.59
  -1  -2   6 1252.77   79.09
  -1  -2   6 1403.86   79.59
  -1  -2   6 1343.37   80.99
  -1  -2   6 1363.26   79.49
  -1  -2   6 1386.46   81.09
   0   2  -6  227.08   14.60
   0   2  -6  227.68   16.90
   0   2  -6  214.68   18.60
   0   2  -6  229.38   18.40
   0   2  -6  227.68   15.10
   0  -2   6  207.08   15.50
   0  -2   6  233.48   15.00
   0  -2   6  229.98   16.80
   0  -2   6  231.58   17.80
   0  -2   6  225.08   15.40
  -1   2  -6  614.04   39.90
  -1   2  -6  673.93   40.80
  -1   2  -6  606.44   38.50
  -1   2  -6  644.34   38.10
   1  -2   6  648.24   38.40
   1  -2   6  599.84   38.40
   1  -2   6  666.13   38.10
   1  -2   6  665.33   40.60
  -2   2  -6 1292.87   76.99
  -2   2  -6 1429.06   78.49
  -2   2  -6 1372.86   79.29
   2  -2   6 1396.56   78.99
   2  -2   6 1317.37   76.99
   2  -2   6 1187.18   76.99
   2  -2   6 1218.68   76.79
   2  -2   6 1318.07   77.29
  -3   2  -6  494.15   32.10
  -3   2  -6  450.75   28.10
  -3   2  -6  456.85   29.10
  -3   2  -6  490.35   28.90
  -3   2  -6  489.85   31.70
   3  -2   6  479.95   31.80
   3  -2   6  493.95   30.10
   3  -2   6  479.85   29.50
  -4   2  -6    3.10    9.40
  -4   2  -6    8.80    9.40
  -4   2  -6   -3.10    4.90
  -4   2  -6    2.20    3.80
  -4   2  -6    9.60    4.10
   4  -2   6   12.90    4.90
   4  -2   6   12.80    7.10
   4  -2   6    1.10    7.70
  -5   2  -6  435.96   33.50
  -5   2  -6  553.44   36.30
   5  -2   6  537.85   32.10
   5  -2   6  535.45   32.90
  -6   2  -6  639.24   37.80
  -6   2  -6  622.54   43.40
   6  -2   6  544.45   38.30
   6  -2   6  650.73   39.90
  -7   2  -6   -2.10    8.10
  -7   2  -6   15.20   16.80
  -7   2  -6   29.00   13.30
   7  -2   6   14.90    8.50
   7  -2   6   32.10   12.10
   9   1  -6  249.48   24.30
   9   1  -6  267.47   19.70
  -9  -1   6  257.17   25.20
  -9  -1   6  249.38   24.30
  -9  -1   6  269.77   21.70
   8   1  -6  311.17   23.50
   8   1  -6  304.27   21.70
  -8  -1   6  308.37   24.90
  -8  -1   6  310.57   22.90
  -8  -1   6  319.27   25.30
   7   1  -6  413.76   27.10
   7   1  -6  409.26   28.80
   7   1  -6  438.26   27.00
  -7  -1   6  420.46   27.40
   6   1  -6  479.25   30.00
   6   1  -6  472.25   35.80
   6   1  -6  474.15   32.30
   6   1  -6  493.85   30.30
  -6  -1   6  479.35   31.80
  -6  -1   6  496.65   31.90
  -6  -1   6  498.05   30.60
   5   1  -6  627.44   37.30
   5   1  -6  602.14   39.50
   5   1  -6  592.34   42.90
   5   1  -6  601.54   36.50
   5   1  -6  632.94   37.60
  -5  -1   6  659.73   37.60
  -5  -1   6  619.74   38.70
  -5  -1   6  626.94   39.00
   4   1  -6 1497.15   87.19
   4   1  -6 1490.25   90.69
   4   1  -6 1323.77   87.39
   4   1  -6 1565.14   87.39
   4   1  -6 1492.75   89.09
   4   1  -6 1453.85   88.19
   4   1  -6 1454.25   88.09
   4   1  -6 1601.74   87.19
  -4  -1   6 1511.75   87.29
  -4  -1   6 1427.56   88.09
  -4  -1   6 1582.94   87.29
  -4  -1   6 1454.05   87.69
  -4  -1   6 1510.55   88.49
   3   1  -6 2399.26  141.39
   3   1  -6 2552.44  141.39
   3   1  -6 2383.46  143.69
   3   1  -6 2420.96  143.09
   3   1  -6 2449.16  142.39
   3   1  -6 2575.94  141.89
   3   1  -6 2471.95  141.49
   3   1  -6 2431.66  142.19
  -3  -1   6 2262.87  143.19
  -3  -1   6 2525.15  142.59
  -3  -1   6 2446.36  141.49
  -3  -1   6 2248.68  141.59
  -3  -1   6 2334.57  142.49
  -3  -1   6 2508.15  141.49
   2   1  -6   87.49   15.20
   2   1  -6   88.49    6.90
   2   1  -6   84.29    9.60
   2   1  -6   97.39    8.40
   2   1  -6   84.69    9.80
   2   1  -6   95.79   13.00
   2   1  -6   95.09    7.80
  -2  -1   6   90.99   10.70
  -2  -1   6   74.89    8.90
  -2  -1   6   75.29   13.10
  -2  -1   6   78.29   11.50
  -2  -1   6   89.79    8.30
  -2  -1   6   93.79    9.30
   1   1  -6 5516.75  314.77
   1   1  -6 5386.56  313.17
   1   1  -6 5397.56  314.07
   1   1  -6 5436.86  314.47
   1   1  -6 5277.97  313.27
  -1  -1   6 5240.58  313.17
  -1  -1   6 5343.47  313.17
  -1  -1   6 5550.15  313.27
  -1  -1   6 5677.43  314.67
  -1  -1   6 5164.28  314.17
   0   1  -6 1403.66   83.39
   0   1  -6 1463.25   85.49
   0   1  -6 1397.56   84.59
   0   1  -6 1435.36   83.39
   0  -1   6 1409.26   84.29
   0  -1   6 1390.96   82.79
   0  -1   6 1437.16   83.59
   0  -1   6 1495.55   85.29
   0  -1   6 1415.06   83.39
   0  -1   6 1425.26   83.39
  -1   1  -6  113.69    9.90
  -1   1  -6  113.09   10.10
  -1   1  -6  154.98   15.60
  -1   1  -6  130.69   13.60
   1  -1   6  115.29   10.40
   1  -1   6  137.79   11.00
   1  -1   6  113.79   10.10
   1  -1   6  156.98   14.50
  -2   1  -6   90.29    9.40
  -2   1  -6  128.99   13.30
  -2   1  -6   84.79    9.40
  -2   1  -6   97.79    7.20
  -2   1  -6  124.39   14.20
   2  -1   6  104.29    9.90
   2  -1   6   83.89    9.70
   2  -1   6  110.99   14.40
  -3   1  -6 1093.79   66.49
  -3   1  -6 1049.40   65.89
  -3   1  -6 1103.49   64.39
  -3   1  -6 1077.59   64.49
   3  -1   6 1075.39   64.99
   3  -1   6 1144.29   64.49
   3  -1   6 1122.49   66.59
  -4   1  -6  369.16   24.70
  -4   1  -6  295.47   23.00
  -4   1  -6  307.67   20.00
  -4   1  -6  330.17   20.50
  -4   1  -6  288.37   21.00
   4  -1   6  300.47   23.30
   4  -1   6  319.27   20.80
   4  -1   6  330.67   22.20
  -5   1  -6  270.97   18.50
  -5   1  -6  270.77   24.80
   5  -1   6  243.88   18.50
   5  -1   6  260.17   20.80
  -6   1  -6   23.50    7.60
  -6   1  -6   54.09   16.00
   6  -1   6   42.00    8.30
   6  -1   6   28.80    9.70
  -7   1  -6  621.64   45.40
   7  -1   6  578.94   39.60
   7  -1   6  703.13   42.20
   9   0  -6  597.74   37.60
  -9   0   6  558.24   40.70
  -9   0   6  579.64   40.60
  -9   0   6  623.64   38.10
   8   0  -6    6.20    7.70
   8   0  -6   25.40    7.00
  -8   0   6   12.70   10.00
  -8   0   6   13.70    8.50
  -8   0   6   22.80    9.40
   7   0  -6  473.75   32.40
   7   0  -6  507.85   31.90
   7   0  -6  530.95   32.10
  -7   0   6  526.95   33.40
   6   0  -6 1287.37   77.89
   6   0  -6 1304.37   76.79
   6   0  -6 1351.56   76.79
  -6   0   6 1230.28   78.09
  -6   0   6 1391.66   76.79
  -6   0   6 1239.88   77.69
   5   0  -6 1062.19   61.19
   5   0  -6  973.10   56.39
   5   0  -6  913.81   55.29
   5   0  -6  931.51   58.09
   5   0  -6  984.30   56.19
  -5   0   6  840.22   56.79
  -5   0   6  906.61   56.09
  -5   0   6  965.20   56.19
  -5   0   6  966.00   57.59
   4   0  -6   55.59    9.60
   4   0  -6   65.69    9.10
   4   0  -6   52.89    8.70
   4   0  -6   57.29    6.40
   4   0  -6   54.19    9.10
   4   0  -6   54.59   11.80
   4   0  -6   59.49    7.30
  -4   0   6   63.39    9.40
  -4   0   6   50.69    8.30
  -4   0   6   36.90    8.40
  -4   0   6   59.39   10.10
   3   0  -6 1388.56   77.49
   3   0  -6 1300.17   78.19
   3   0  -6 1346.87   77.69
   3   0  -6 1297.27   78.59
   3   0  -6 1313.67   77.59
   3   0  -6 1348.47   79.59
  -3   0   6 1360.06   77.79
  -3   0   6 1292.27   77.69
  -3   0   6 1263.67   78.99
  -3   0   6 1359.56   78.79
  -3   0   6 1306.77   80.09
   2   0  -6 1074.39   64.39
   2   0  -6 1063.99   65.39
   2   0  -6 1090.79   64.49
   2   0  -6 1161.68   66.69
   2   0  -6 1130.69   64.19
  -2   0   6 1056.69   64.39
  -2   0   6 1077.49   66.29
  -2   0   6 1154.08   65.69
  -2   0   6 1057.69   64.29
  -2   0   6 1113.39   66.29
  -2   0   6 1095.69   64.49
   1   0  -6 1201.68   64.29
   1   0  -6  991.40   62.89
   1   0  -6 1002.00   63.09
   1   0  -6 1246.78   65.59
   1   0  -6 1142.49   62.89
  -1   0   6 1243.38   65.29
  -1   0   6  965.10   62.99
  -1   0   6  964.90   62.59
  -1   0   6  964.90   62.99
  -1   0   6 1032.50   62.89
   0   0  -6   35.10    7.50
   0   0  -6   35.40    9.70
   0   0  -6   34.80    4.90
   0   0  -6   30.70    5.10
   0   0   6   27.10    5.30
   0   0   6   32.30    8.20
   0   0   6   29.70    7.00
   0   0   6   32.70    5.20
   0   0   6   39.80    6.70
   0   0   6   38.00    4.70
  -1   0  -6 1757.52   99.49
  -1   0  -6 1770.92  101.49
  -1   0  -6 1681.23   99.49
  -1   0  -6 1657.03  100.99
   1   0   6 1619.94   99.39
   1   0   6 1750.32   99.49
   1   0   6 1806.52  101.49
   1   0   6 1584.04  100.99
   1   0   6 1707.83   99.39
  -2   0  -6 1018.50   61.89
  -2   0  -6 1079.49   63.99
  -2   0  -6 1056.69   62.29
  -2   0  -6 1061.99   64.59
  -2   0  -6 1067.79   62.39
   2   0   6 1037.60   62.59
   2   0   6 1125.49   62.29
   2   0   6 1076.09   64.49
   2   0   6 1007.90   62.09
  -3   0  -6  147.99   16.00
  -3   0  -6  132.59   11.10
  -3   0  -6  155.48   12.40
  -3   0  -6  158.68   15.70
  -3   0  -6  159.28   11.20
   3   0   6  151.38   13.40
   3   0   6  131.89   11.10
   3   0   6  132.59   19.00
   3   0   6  152.98   12.60
  -4   0  -6  393.96   30.30
   4   0   6  371.66   24.90
   4   0   6  367.36   24.70
  -5   0  -6  651.53   44.10
  -5   0  -6  657.13   39.50
   5   0   6  611.44   39.80
   5   0   6  663.43   41.20
  -6   0  -6  160.98   15.60
  -6   0  -6  125.99   24.30
   6   0   6  146.39   17.60
  10  -1  -6    9.00    8.40
 -10   1   6   -5.50   13.60
 -10   1   6    9.90   12.00
   9  -1  -6  219.88   18.30
   9  -1  -6  245.48   24.30
  -9   1   6  216.98   22.60
  -9   1   6  248.48   19.10
  -9   1   6  230.38   22.40
   8  -1  -6  786.12   48.70
   8  -1  -6  802.02   48.80
  -8   1   6  823.72   48.50
  -8   1   6  804.12   51.09
  -8   1   6  764.42   50.99
   7  -1  -6  399.36   26.40
   7  -1  -6  401.96   25.60
   7  -1  -6  396.56   26.00
  -7   1   6  397.56   26.90
  -7   1   6  391.06   28.30
   6  -1  -6  131.79   11.30
   6  -1  -6  145.99   12.20
   6  -1  -6  124.39   14.40
  -6   1   6  153.08   11.60
  -6   1   6  135.79   13.10
  -6   1   6  138.09   13.80
  -6   1   6  122.89   12.60
   5  -1  -6 1466.35   86.29
   5  -1  -6 1543.05   87.29
   5  -1  -6 1532.05   87.79
   5  -1  -6 1501.75   86.39
  -5   1   6 1481.55   86.29
  -5   1   6 1517.55   87.69
  -5   1   6 1383.86   86.29
  -5   1   6 1342.47   87.19
   4  -1  -6 1911.91  104.19
   4  -1  -6 1662.43  104.99
   4  -1  -6 1720.43  104.19
   4  -1  -6 1621.54  103.99
   4  -1  -6 1900.01  104.89
   4  -1  -6 2021.80  106.19
  -4   1   6 1658.83  104.09
  -4   1   6 1745.43  105.59
  -4   1   6 1760.12  106.59
  -4   1   6 1898.81  105.39
  -4   1   6 1711.73  104.09
   3  -1  -6   33.70    9.20
   3  -1  -6   23.80    4.30
   3  -1  -6   15.70    5.10
   3  -1  -6   13.80    4.60
  -3   1   6   19.60    8.30
  -3   1   6   27.20    8.80
  -3   1   6   12.40    5.20
  -3   1   6    7.60    5.10
  -3   1   6   26.90    7.40
   2  -1  -6  563.44   32.30
   2  -1  -6  555.44   35.40
   2  -1  -6  538.25   32.60
   2  -1  -6  543.75   32.50
   2  -1  -6  529.55   33.60
  -2   1   6  541.95   34.80
  -2   1   6  527.15   32.20
  -2   1   6  561.24   32.60
  -2   1   6  520.65   32.70
  -2   1   6  517.45   35.90
  -2   1   6  525.95   32.10
  -2   1   6  541.55   33.80
   1  -1  -6 1453.95   86.49
   1  -1  -6 1530.15   84.39
   1  -1  -6 1388.46   85.49
   1  -1  -6 1455.95   84.49
   1  -1  -6 1434.36   84.39
  -1   1   6 1390.46   85.99
  -1   1   6 1410.76   84.19
  -1   1   6 1507.35   84.59
  -1   1   6 1481.85   86.29
  -1   1   6 1388.46   84.39
  -1   1   6 1436.96   84.19
   0  -1  -6 1363.46   80.59
   0  -1  -6 1373.36   79.29
   0  -1  -6 1342.17   81.09
   0  -1  -6 1383.16   79.29
   0   1   6 1367.66   81.19
   0   1   6 1390.86   79.29
   0   1   6 1377.86   79.19
   0   1   6 1279.37   80.19
   0   1   6 1360.46   78.99
   0   1   6 1287.27   79.19
  -1  -1  -6    5.10    5.00
  -1  -1  -6   -1.10    7.00
  -1  -1  -6    3.80    5.60
  -1  -1  -6   -3.60    9.80
   1   1   6    2.10    6.90
   1   1   6   -4.40    6.40
   1   1   6   -9.70    5.50
   1   1   6   -6.50    7.90
   1   1   6   -7.60    4.30
  -2  -1  -6  734.73   44.10
  -2  -1  -6  684.63   42.30
  -2  -1  -6  673.93   41.90
  -2  -1  -6  730.73   42.30
  -2  -1  -6  680.03   44.70
   2   1   6  715.43   42.30
   2   1   6  725.13   42.50
  -3  -1  -6  932.11   59.99
  -3  -1  -6  958.50   59.59
  -3  -1  -6 1045.10   61.79
  -3  -1  -6 1043.40   59.79
   3   1   6  982.00   59.69
   3   1   6 1061.09   59.89
   3   1   6 1035.10   60.09
  -4  -1  -6  283.07   19.90
   4   1   6  295.67   21.10
   4   1   6  266.57   20.60
  -5  -1  -6   20.20    7.40
  -5  -1  -6   51.89   14.80
   5   1   6   22.70    7.40
   5   1   6   34.70   10.60
  -6  -1  -6  349.57   32.20
  -6  -1  -6  333.77   24.40
   6   1   6  316.67   26.90
 -10   2   6  441.86   34.00
 -10   2   6  450.45   30.30
 -10   2   6  453.75   34.50
   9  -2  -6   77.59   12.00
  -9   2   6   94.19   16.80
  -9   2   6   73.49   13.60
  -9   2   6   93.69   11.10
   8  -2  -6  232.78   18.40
   8  -2  -6  207.88   16.90
  -8   2   6  212.68   17.80
  -8   2   6  212.68   20.50
  -8   2   6  229.68   18.50
   7  -2  -6  677.33   41.40
   7  -2  -6  674.23   41.50
  -7   2   6  734.03   43.50
  -7   2   6  666.83   42.00
  -7   2   6  697.03   41.10
  -7   2   6  608.54   41.50
   6  -2  -6  957.70   54.69
   6  -2  -6  964.00   54.69
   6  -2  -6  901.31   53.79
   6  -2  -6  944.51   53.89
  -6   2   6  929.11   53.49
  -6   2   6  879.11   53.79
  -6   2   6  776.12   54.49
  -6   2   6  834.62   54.09
  -6   2   6  915.21   55.29
   5  -2  -6  269.37   19.20
   5  -2  -6  291.17   18.70
   5  -2  -6  286.17   18.00
   5  -2  -6  277.87   20.60
  -5   2   6  276.67   18.50
  -5   2   6  233.88   20.70
  -5   2   6  276.47   20.10
  -5   2   6  272.07   18.30
   4  -2  -6  361.86   26.50
   4  -2  -6  379.06   26.30
   4  -2  -6  447.76   29.10
   4  -2  -6  459.05   26.20
   4  -2  -6  458.85   25.80
  -4   2   6  378.16   28.40
  -4   2   6  415.46   27.50
  -4   2   6  457.55   26.00
  -4   2   6  427.26   26.20
  -4   2   6  387.26   32.80
   3  -2  -6 2000.60  119.49
   3  -2  -6 2155.98  119.79
   3  -2  -6 2123.59  121.39
   3  -2  -6 1872.41  120.49
   3  -2  -6 2239.18  119.79
   3  -2  -6 2022.90  119.89
  -3   2   6 2102.99  120.79
  -3   2   6 1999.00  121.29
  -3   2   6 1923.41  121.69
  -3   2   6 2127.89  119.69
  -3   2   6 1998.90  119.59
   2  -2  -6 2292.77  131.89
   2  -2  -6 2297.97  130.19
   2  -2  -6 2401.46  130.19
   2  -2  -6 2209.18  129.99
   2  -2  -6 2267.77  131.09
  -2   2   6 2279.87  131.19
  -2   2   6 2339.97  130.19
  -2   2   6 2075.69  131.59
  -2   2   6 2189.08  129.79
  -2   2   6 2161.18  130.09
  -2   2   6 2150.68  129.99
  -2   2   6 2118.79  131.89
   1  -2  -6    4.80    9.60
   1  -2  -6    7.10    5.20
   1  -2  -6   18.70    4.90
   1  -2  -6    9.00    6.70
  -1   2   6    6.10    8.50
  -1   2   6    8.30    4.20
  -1   2   6   -1.80    8.90
  -1   2   6   11.00    4.20
  -1   2   6   13.80    5.10
  -1   2   6    9.50    5.50
   0  -2  -6 1690.03   97.59
   0  -2  -6 1707.43   97.59
   0  -2  -6 1619.04   98.19
   0  -2  -6 1695.53   99.59
   0  -2  -6 1637.84   98.79
   0   2   6 1664.03   97.29
   0   2   6 1673.03   97.39
   0   2   6 1595.04   99.59
   0   2   6 1730.63   97.79
  -1  -2  -6 1283.57   71.69
  -1  -2  -6 1231.58   70.39
  -1  -2  -6 1160.08   69.99
  -1  -2  -6 1141.09   70.19
  -1  -2  -6 1148.19   72.19
   1   2   6 1237.48   70.19
   1   2   6 1128.89   69.99
   1   2   6 1218.28   70.39
  -2  -2  -6  271.27   19.50
  -2  -2  -6  283.67   19.60
  -2  -2  -6  337.57   22.40
   2   2   6  309.57   20.10
   2   2   6  281.97   19.70
   2   2   6  283.37   20.30
   2   2   6  320.87   20.30
  -3  -2  -6  168.08   17.40
   3   2   6  119.59   13.70
   3   2   6  140.39   13.70
   3   2   6  161.88   13.70
  -4  -2  -6  415.06   32.40
  -4  -2  -6  391.56   28.00
   4   2   6  416.96   28.20
   4   2   6  481.75   28.60
   4   2   6  411.06   28.40
  -5  -2  -6  268.07   21.10
  -5  -2  -6  316.67   28.80
   5   2   6  246.48   22.00
   5   2   6  307.27   22.60
  -6  -2  -6   36.40   18.10
 -10   3   6   77.39   11.80
 -10   3   6   90.79   19.20
 -10   3   6  107.69   19.40
   9  -3  -6  677.63   44.00
  -9   3   6  674.83   43.80
  -9   3   6  729.73   47.40
  -9   3   6  736.73   46.40
   8  -3  -6  355.06   24.40
   8  -3  -6  337.07   23.90
  -8   3   6  381.86   27.30
  -8   3   6  337.27   23.50
  -8   3   6  349.77   24.50
   7  -3  -6   -2.70    5.10
   7  -3  -6   11.00    7.10
  -7   3   6    0.20    6.30
  -7   3   6    6.90    8.80
  -7   3   6    2.70    5.50
  -7   3   6    4.30    8.40
   6  -3  -6  282.27   18.70
   6  -3  -6  248.98   19.80
   6  -3  -6  259.57   16.50
   6  -3  -6  292.87   19.30
  -6   3   6  289.47   20.80
  -6   3   6  289.27   19.40
  -6   3   6  285.37   18.40
   5  -3  -6 1801.92  102.09
   5  -3  -6 1781.02  101.89
   5  -3  -6 1842.92  103.19
   5  -3  -6 1800.42  102.19
  -5   3   6 1795.02  101.89
  -5   3   6 1671.53  101.89
  -5   3   6 1503.95  103.29
  -5   3   6 1738.53  103.29
   4  -3  -6  714.93   41.70
   4  -3  -6  660.33   43.30
   4  -3  -6  737.73   41.50
   4  -3  -6  713.33   43.70
  -4   3   6  663.23   41.20
  -4   3   6  695.73   41.40
  -4   3   6  624.74   43.60
  -4   3   6  701.43   42.80
   3  -3  -6  257.37   18.30
   3  -3  -6  283.87   17.50
   3  -3  -6  254.87   20.60
   3  -3  -6  274.57   16.90
  -3   3   6  280.77   17.50
  -3   3   6  250.97   17.10
  -3   3   6  245.98   15.90
  -3   3   6  234.18   18.70
  -3   3   6  225.18   21.50
  -3   3   6  209.98   21.90
  -3   3   6  248.78   16.90
   2  -3  -6 1524.75   83.99
   2  -3  -6 1430.16   84.79
   2  -3  -6 1398.76   83.59
   2  -3  -6 1486.15   83.89
   2  -3  -6 1491.95   85.79
  -2   3   6 1294.97   85.39
  -2   3   6 1475.25   83.89
  -2   3   6 1374.36   83.59
  -2   3   6 1354.96   83.69
  -2   3   6 1455.25   85.09
   1  -3  -6 1221.48   72.79
   1  -3  -6 1348.47   75.19
   1  -3  -6 1228.48   73.89
   1  -3  -6 1267.77   73.09
   1  -3  -6 1287.27   73.19
  -1   3   6 1118.99   72.69
  -1   3   6 1158.18   72.29
  -1   3   6 1289.67   72.79
  -1   3   6 1219.78   72.89
   0  -3  -6   66.49    9.00
   0  -3  -6   77.99   11.00
   0   3   6   72.89    9.50
  -1  -3  -6  265.87   19.40
  -1  -3  -6  279.37   18.00
  -1  -3  -6  256.57   17.40
   1   3   6  246.28   17.10
   1   3   6  254.97   18.20
  -2  -3  -6  522.85   33.00
  -2  -3  -6  506.05   30.80
   2   3   6  469.05   30.70
   2   3   6  446.56   31.50
   2   3   6  498.35   31.00
   2   3   6  521.15   31.40
  -3  -3  -6  599.04   36.30
  -3  -3  -6  618.24   39.10
   3   3   6  637.34   36.90
   3   3   6  556.74   36.10
   3   3   6  507.75   36.20
   3   3   6  585.44   36.40
  -4  -3  -6   10.00    8.90
  -4  -3  -6    5.50   13.70
   4   3   6   18.10   10.00
  -5  -3  -6  216.38   28.50
  -5  -3  -6  230.28   20.30
   5   3   6  224.48   21.80
   5   3   6  213.58   20.80
 -10   4   6  165.18   22.40
 -10   4   6  174.98   17.90
 -10   4   6  176.88   19.60
   9  -4  -6    6.00    8.40
  -9   4   6   21.00    8.80
  -9   4   6   14.50    9.50
  -9   4   6    0.70   12.20
   8  -4  -6  515.95   32.10
   8  -4  -6  463.35   32.30
  -8   4   6  513.65   35.40
  -8   4   6  499.25   32.10
  -8   4   6  528.05   32.90
   7  -4  -6 1382.16   85.19
   7  -4  -6 1419.06   84.79
  -7   4   6 1535.55   86.99
  -7   4   6 1416.16   85.09
   6  -4  -6   71.19    8.20
   6  -4  -6   55.79    5.50
   6  -4  -6   49.30    9.80
   6  -4  -6   62.29    9.00
  -6   4   6   51.89    7.70
  -6   4   6   51.49    8.60
  -6   4   6   29.00   11.30
  -6   4   6   65.19   11.20
   5  -4  -6   89.69    9.90
   5  -4  -6  103.79    9.30
   5  -4  -6  118.49   10.30
   5  -4  -6   99.49   11.70
  -5   4   6   72.69   15.70
  -5   4   6  117.79   12.30
  -5   4   6  127.29   11.20
  -5   4   6  115.29   11.00
   4  -4  -6 1069.59   61.69
   4  -4  -6 1086.99   61.79
  -4   4   6 1043.00   61.59
  -4   4   6 1026.90   62.59
  -4   4   6 1049.79   61.39
  -4   4   6  957.00   61.29
   3  -4  -6 1651.83  103.39
   3  -4  -6 1888.21  102.89
   3  -4  -6 1791.72  102.69
  -3   4   6 1619.04  102.39
  -3   4   6 1745.83  102.59
  -3   4   6 1735.43  102.49
  -3   4   6 1829.72  103.69
   2  -4  -6    7.10    6.30
   2  -4  -6   12.60    4.70
   2  -4  -6  -12.20    7.40
   2  -4  -6    9.90    6.40
  -2   4   6   -7.00    5.80
  -2   4   6    4.40    6.40
  -2   4   6    0.40    3.50
  -2   4   6    4.80    6.00
   1  -4  -6  106.79   10.70
   1  -4  -6   80.49   11.30
   1  -4  -6  105.59   10.60
  -1   4   6  105.79   10.00
  -1   4   6  104.29   10.60
  -1   4   6   75.79    7.60
   0  -4  -6 1321.37   74.69
   0  -4  -6 1314.87   75.29
   0   4   6 1108.69   73.89
   0   4   6 1319.57   74.79
  -1  -4  -6 1289.57   73.59
  -1  -4  -6 1266.37   72.29
   1   4   6 1289.57   72.39
   1   4   6 1118.59   73.19
   1   4   6 1221.58   72.49
   1   4   6 1143.09   71.69
  -2  -4  -6   30.60    9.50
   2   4   6   41.10    9.80
   2   4   6   35.10    7.90
   2   4   6   32.50    7.60
   2   4   6   20.70    6.70
  -3  -4  -6  365.86   23.20
   3   4   6  287.87   23.50
   3   4   6  320.37   22.80
  -4  -4  -6  581.94   41.80
  -4  -4  -6  513.95   34.50
   4   4   6  525.05   36.90
   4   4   6  504.15   36.10
  -5  -4  -6   89.49   18.80
   5   4   6   96.09   15.20
   5   4   6   64.29   13.80
  10  -5  -6  256.07   20.60
 -10   5   6  256.87   21.50
 -10   5   6  278.97   26.70
   9  -5  -6  389.46   27.30
  -9   5   6  439.06   31.90
  -9   5   6  425.06   27.30
  -9   5   6  354.96   26.60
   8  -5  -6   76.79   11.50
  -8   5   6   82.09   16.30
  -8   5   6   85.39   13.40
   7  -5  -6  149.79   14.30
   7  -5  -6  146.69   14.00
  -7   5   6  182.28   16.80
   6  -5  -6  745.63   45.10
   6  -5  -6  794.02   44.90
   6  -5  -6  657.03   44.10
   6  -5  -6  761.62   44.30
  -6   5   6  778.62   44.60
  -6   5   6  700.33   44.50
   5  -5  -6  776.12   48.20
   5  -5  -6  830.22   48.30
   5  -5  -6  852.81   48.40
  -5   5   6  781.02   49.40
  -5   5   6  802.12   48.00
  -5   5   6  737.53   48.00
  -5   5   6  820.12   48.70
   4  -5  -6   14.80    7.00
   4  -5  -6   11.50    6.00
   4  -5  -6    7.50    2.60
   4  -5  -6   13.90    6.20
  -4   5   6   11.90    8.70
  -4   5   6   16.30    5.80
  -4   5   6   10.10    6.10
  -4   5   6   12.40    6.00
   3  -5  -6  525.75   33.60
   3  -5  -6  534.85   32.60
   3  -5  -6  557.84   32.40
  -3   5   6  519.55   32.80
  -3   5   6  472.75   32.20
  -3   5   6  508.35   33.50
  -3   5   6  552.64   32.30
   2  -5  -6 1136.19   71.29
   2  -5  -6 1235.88   70.49
   2  -5  -6 1210.88   70.69
  -2   5   6 1203.08   70.29
  -2   5   6 1158.88   70.29
   1  -5  -6  352.16   25.90
   1  -5  -6  358.46   24.80
   1  -5  -6  431.46   25.20
  -1   5   6  404.36   25.30
  -1   5   6  412.06   25.70
   0  -5  -6   70.89   11.20
   0  -5  -6   61.69   10.30
   0   5   6   77.29   11.20
   0   5   6   66.89    9.00
  -1  -5  -6  473.45   28.40
  -1  -5  -6  433.56   30.30
   1   5   6  476.55   30.10
   1   5   6  390.66   30.40
   1   5   6  441.26   28.70
  -2  -5  -6  521.45   33.80
  -2  -5  -6  591.64   36.30
   2   5   6  524.85   34.10
   2   5   6  458.15   35.20
  -3  -5  -6   93.39   15.00
  -3  -5  -6   61.69   10.20
   3   5   6   55.39   11.60
  -4  -5  -6   61.49   17.40
   4   5   6   70.19   14.00
   4   5   6   42.70   13.20
  10  -6  -6    3.20    9.90
 -10   6   6    1.00   10.60
 -10   6   6   -4.90   14.20
   9  -6  -6  270.87   20.80
  -9   6   6  304.87   27.40
  -9   6   6  299.87   22.30
   8  -6  -6  455.05   32.90
  -8   6   6  494.75   32.60
  -8   6   6  578.44   36.50
   7  -6  -6  237.38   16.10
   7  -6  -6  224.28   18.30
  -7   6   6  258.57   19.60
   6  -6  -6   -9.40    7.50
   6  -6  -6    3.80    5.40
   6  -6  -6    1.40    7.60
  -6   6   6   -8.90    8.10
  -6   6   6    0.20    7.70
   5  -6  -6  420.36   26.00
   5  -6  -6  383.46   26.10
   5  -6  -6  377.66   26.30
  -5   6   6  413.96   25.80
  -5   6   6  434.96   26.90
  -5   6   6  390.36   27.50
  -5   6   6  382.76   25.90
   4  -6  -6 1055.29   60.89
   4  -6  -6  954.60   60.09
   4  -6  -6 1035.80   59.79
  -4   6   6  944.71   59.79
  -4   6   6 1037.30   59.59
  -4   6   6 1020.50   59.89
  -4   6   6  960.00   60.69
   3  -6  -6  770.82   43.50
   3  -6  -6  691.63   43.80
   3  -6  -6  680.53   44.40
  -3   6   6  754.22   43.90
  -3   6   6  753.32   43.20
  -3   6   6  625.74   43.10
   2  -6  -6   87.59    8.00
   2  -6  -6   97.19   13.00
  -2   6   6  124.89   12.00
   1  -6  -6 1400.46   81.39
  -1   6   6 1356.86   81.59
   0  -6  -6  599.14   35.80
   0  -6  -6  570.94   35.90
   0   6   6  532.25   37.00
   0   6   6  563.94   37.50
  -1  -6  -6   23.70    9.80
  -1  -6  -6   31.30    9.30
   1   6   6   18.10    9.50
   1   6   6   13.30   10.70
   1   6   6   40.70   13.00
  -2  -6  -6  167.08   21.30
  -2  -6  -6  227.68   18.30
   2   6   6  164.98   21.70
   2   6   6  194.28   21.60
   2   6   6  235.98   19.60
  -3  -6  -6  279.57   23.20
  -3  -6  -6  256.97   29.80
   3   6   6  302.47   25.10
   9  -7  -6  180.48   17.60
  -9   7   6  217.18   19.90
  -9   7   6  226.78   24.30
   8  -7  -6   22.90    9.70
  -8   7   6   38.40   11.50
  -8   7   6   37.60   15.00
  -8   7   6   45.30    8.70
   7  -7  -6  453.05   32.40
   7  -7  -6  479.25   31.20
  -7   7   6  509.25   33.40
  -7   7   6  547.65   31.90
   6  -7  -6  697.83   39.80
   6  -7  -6  609.94   39.90
   6  -7  -6  551.74   40.20
  -6   7   6  665.63   41.00
  -6   7   6  661.63   41.60
  -6   7   6  677.83   39.90
   5  -7  -6   45.10    9.20
   5  -7  -6   38.60    8.20
   5  -7  -6   40.00    7.40
  -5   7   6   35.00    9.80
  -5   7   6   37.10    9.20
   4  -7  -6  112.09   12.50
   4  -7  -6  102.09   11.60
   4  -7  -6   99.49   12.20
  -4   7   6   87.79   13.00
   3  -7  -6  546.55   31.80
   3  -7  -6  466.95   32.80
   3  -7  -6  483.15   32.20
   2  -7  -6  471.65   30.00
   1  -7  -6   25.40    7.90
   1  -7  -6   26.80   10.10
  -1   7   6   28.20    8.90
  -1   7   6   21.00   10.70
   0  -7  -6  143.69   17.20
   0  -7  -6   97.99   13.30
   0   7   6  135.29   18.10
   0   7   6  149.49   16.00
  -1  -7  -6  480.55   40.20
  -1  -7  -6  524.15   36.40
  -1  -7  -6  514.65   33.80
   1   7   6  430.56   36.60
   1   7   6  548.45   34.30
   1   7   6  527.45   35.50
  -2  -7  -6  211.68   23.30
  -2  -7  -6  230.88   21.10
   2   7   6  226.78   22.80
   2   7   6  174.78   27.90
   2   7   6  228.38   22.30
   9  -8  -6  208.98   22.10
  -9   8   6  264.67   25.80
  -9   8   6  256.97   21.60
  -9   8   6  274.17   28.70
   8  -8  -6  285.47   24.20
  -8   8   6  384.86   27.40
  -8   8   6  335.97   24.00
  -8   8   6  322.37   29.20
   7  -8  -6   30.00   10.50
   7  -8  -6   46.10    8.80
  -7   8   6   37.50    8.80
  -7   8   6   41.20   14.70
  -7   8   6   35.20   11.60
   6  -8  -6  173.78   18.20
   6  -8  -6  248.58   17.90
  -6   8   6  236.18   20.20
  -6   8   6  207.88   19.50
  -6   8   6  223.68   18.90
   5  -8  -6  518.05   37.70
  -5   8   6  548.55   38.00
  -5   8   6  660.43   38.60
  -5   8   6  633.94   37.20
   4  -8  -6  361.76   24.40
   4  -8  -6  368.16   29.10
  -4   8   6  354.56   26.30
  -4   8   6  350.86   24.60
   3  -8  -6    7.50    9.00
   3  -8  -6    2.20    6.80
  -3   8   6   -4.50    9.70
   2  -8  -6  416.96   26.80
   2  -8  -6  343.47   28.90
  -2   8   6  412.56   28.20
  -2   8   6  407.46   27.10
   1  -8  -6  599.14   38.90
   1  -8  -6  684.33   42.20
  -1   8   6  533.35   43.40
  -1   8   6  629.84   40.00
  -1   8   6  620.64   39.30
   0  -8  -6  108.89   16.70
   0  -8  -6   96.59   18.00
   0   8   6  100.29   15.20
   0   8   6  129.39   17.10
   0   8   6   82.99   20.60
  -1  -8  -6   49.20   15.40
  -1  -8  -6   42.60   11.50
   1   8   6   30.50   11.90
   1   8   6   27.00   20.30
   1   8   6   40.20   15.00
  -8   9   6  229.78   19.70
  -8   9   6  245.78   22.60
  -8   9   6  183.48   23.50
   7  -9  -6  284.77   29.00
   7  -9  -6  275.37   24.30
  -7   9   6  333.87   26.60
  -7   9   6  388.36   27.40
  -7   9   6  377.56   24.40
   6  -9  -6  135.49   16.20
   6  -9  -6  165.68   17.80
  -6   9   6  185.38   17.60
  -6   9   6  155.08   19.60
  -6   9   6  124.29   15.50
   5  -9  -6    3.40   10.70
   5  -9  -6   -3.90   10.20
  -5   9   6    3.40   12.90
   4  -9  -6  393.96   28.80
  -4   9   6  342.97   27.80
  -4   9   6  354.66   26.20
   3  -9  -6  377.96   28.00
  -3   9   6  327.47   27.40
  -3   9   6  360.56   26.30
   2  -9  -6  155.88   19.00
  -2   9   6  129.39   27.00
  -2   9   6  175.18   19.90
  -2   9   6  197.88   18.00
   1  -9  -6   41.10   10.80
   1  -9  -6   48.00   12.90
  -1   9   6   41.40   11.20
  -1   9   6   29.30   13.00
  -1   9   6   39.70   19.80
   0  -9  -6  415.36   28.30
   0  -9  -6  293.67   28.60
   0   9   6  291.07   36.40
   0   9   6  375.86   29.90
   0   9   6  403.46   30.70
   7 -10  -6   13.30   11.50
   6 -10  -6  281.07   24.90
  -6  10   6  336.17   28.30
   5 -10  -6  284.27   24.90
  -5  10   6  277.97   25.70
   4 -10  -6   20.90   13.90
  -4  10   6   12.10   10.30
  -4  10   6   17.40   12.70
   3 -10  -6   52.39   13.30
  -3  10   6   41.30   15.10
  -3  10   6   38.80   10.50
  -3  10   6   63.59   21.80
   2 -10  -6  381.96   29.00
  -2  10   6  335.67   29.50
  -2  10   6  330.57   27.90
  -2  10   6  287.07   35.40
   0  11  -7   32.10   10.20
   0  11  -7   17.60   20.00
  -1  11  -7  206.28   17.80
  -1  11  -7  195.38   31.20
  -1  11  -7  208.08   24.00
   1 -11   7  230.68   24.90
  -2  11  -7  297.67   29.10
  -2  11  -7  315.27   34.10
  -3  11  -7  167.58   24.80
  -3  11  -7  232.08   30.90
   3 -11   7  177.98   22.00
   2  10  -7   10.10    9.10
   2  10  -7    8.30   11.60
   2  10  -7   12.30   20.20
   1  10  -7  284.97   22.20
   1  10  -7  284.17   35.00
   1  10  -7  230.48   26.20
  -1 -10   7  284.67   20.30
   0  10  -7  500.75   42.10
   0  10  -7  519.15   38.20
   0  10  -7  517.75   33.20
   0 -10   7  518.85   33.80
  -1  10  -7  162.08   20.30
  -1  10  -7  185.18   27.30
  -1  10  -7  178.58   15.50
   1 -10   7  177.78   17.20
  -2  10  -7    0.10   16.70
  -2  10  -7   27.10   14.10
   2 -10   7   32.60    9.80
  -3  10  -7  288.97   28.30
  -3  10  -7  307.67   31.20
   3 -10   7  316.07   22.90
  -4  10  -7  257.77   27.30
  -5  10  -7   39.30   17.30
   4   9  -7   27.00   14.10
  -4  -9   7   16.50    9.70
   3   9  -7  443.86   35.30
   3   9  -7  448.76   30.40
   3   9  -7  452.15   42.90
  -3  -9   7  485.95   30.60
   2   9  -7  516.75   38.40
   2   9  -7  551.64   34.70
   2   9  -7  507.65   44.00
  -2  -9   7  558.34   34.90
   1   9  -7   45.80    8.10
   1   9  -7   48.10    7.50
   1   9  -7   45.80   13.10
   1   9  -7   46.00   17.80
  -1  -9   7   44.60    9.50
   0   9  -7   39.70   17.90
   0   9  -7   67.59   10.00
   0   9  -7   57.09   13.00
   0   9  -7   58.69    8.20
   0  -9   7   53.19    9.70
  -1   9  -7  352.26   32.50
  -1   9  -7  339.57   27.70
  -1   9  -7  323.47   23.30
   1  -9   7  356.26   24.40
  -2   9  -7  529.15   36.70
  -2   9  -7  471.45   30.60
   2  -9   7  530.35   33.40
  -3   9  -7  129.09   20.40
   3  -9   7  125.09   15.60
  -4   9  -7  122.29   22.80
   4  -9   7  116.69   13.60
  -5   9  -7  493.65   35.70
  -5   9  -7  423.36   32.60
  -5   9  -7  409.46   36.30
   5  -9   7  500.15   31.40
   5   8  -7  167.78   23.90
   5   8  -7  159.68   14.40
  -5  -8   7  185.28   22.60
  -5  -8   7  203.18   18.70
   4   8  -7  679.83   41.10
   4   8  -7  633.94   39.30
   4   8  -7  622.04   44.00
   4   8  -7  580.94   50.79
  -4  -8   7  677.93   40.30
   3   8  -7   33.00   16.70
   3   8  -7   38.00    7.80
   3   8  -7   21.10   11.60
  -3  -8   7   34.50    9.30
  -3  -8   7   14.60    7.50
   2   8  -7   30.10   14.60
   2   8  -7   46.30    8.10
   2   8  -7   43.70   11.80
  -2  -8   7   31.40    7.70
  -2  -8   7   34.80    8.80
   1   8  -7  626.94   37.90
   1   8  -7  605.54   44.30
   1   8  -7  629.74   41.60
  -1  -8   7  582.64   38.60
  -1  -8   7  635.74   38.40
   0   8  -7  984.00   60.69
   0   8  -7  888.61   56.89
   0  -8   7 1018.10   58.19
  -1   8  -7   19.80    5.20
  -1   8  -7   29.50   11.40
  -1   8  -7   17.40   10.30
   1  -8   7   11.30    8.40
  -2   8  -7  216.18   21.90
  -2   8  -7  241.18   15.10
  -2   8  -7  215.38   22.20
   2  -8   7  226.78   18.80
  -3   8  -7  571.54   37.60
  -3   8  -7  523.85   38.40
   3  -8   7  549.85   35.00
  -4   8  -7  224.38   25.20
  -4   8  -7  229.98   23.70
   4  -8   7  260.77   19.30
  -5   8  -7   70.19   16.10
  -5   8  -7   54.69   17.50
  -6   8  -7   84.49   18.30
  -6   8  -7   86.99   17.60
   6  -8   7   69.79   13.00
   6   7  -7  284.07   30.10
   6   7  -7  337.17   42.50
   6   7  -7  314.57   21.70
  -6  -7   7  308.57   26.00
   5   7  -7   17.40   20.40
   5   7  -7   18.90    6.00
   5   7  -7   15.80    9.00
   5   7  -7   16.70   12.10
  -5  -7   7   26.00   10.00
   4   7  -7  141.99   29.10
   4   7  -7  143.19   19.20
   4   7  -7  143.49   12.10
   4   7  -7  151.98   14.90
  -4  -7   7  142.79   16.50
  -4  -7   7  145.99   15.60
  -4  -7   7  177.88   16.60
   3   7  -7 1027.40   64.09
   3   7  -7 1081.99   67.49
   3   7  -7 1012.90   61.29
  -3  -7   7  990.80   61.29
  -3  -7   7 1011.90   61.79
   2   7  -7  528.35   35.30
   2   7  -7  535.65   42.30
   2   7  -7  518.85   32.70
  -2  -7   7  495.85   32.70
  -2  -7   7  544.85   33.50
   1   7  -7   17.00   11.90
   1   7  -7   19.80    6.50
  -1  -7   7   11.30    6.60
  -1  -7   7   27.20    6.10
   0   7  -7  487.55   34.70
   0   7  -7  505.55   30.00
   0   7  -7  488.25   35.90
   0  -7   7  453.05   30.20
   0  -7   7  508.05   30.90
  -1   7  -7 1304.07   74.89
  -1   7  -7 1208.08   74.49
  -1   7  -7 1204.48   71.59
   1  -7   7 1285.37   72.79
   1  -7   7 1115.39   71.59
  -2   7  -7  144.19   10.90
  -2   7  -7  150.48   17.00
  -2   7  -7  153.58   17.50
   2  -7   7  144.69   15.00
  -3   7  -7  152.98   18.10
  -3   7  -7  140.29   17.10
  -3   7  -7  149.39   10.70
   3  -7   7  178.58   14.80
  -4   7  -7  285.17   24.20
  -4   7  -7  250.77   23.60
   4  -7   7  268.87   20.30
  -5   7  -7  391.96   40.00
  -5   7  -7  518.55   35.90
   5  -7   7  531.25   32.00
  -6   7  -7   39.00   19.80
   6  -7   7   24.80    9.80
   6   6  -7  224.68   16.30
   6   6  -7  216.38   25.10
   6   6  -7  220.78   34.80
   6   6  -7  227.18   19.70
  -6  -6   7  221.68   20.80
  -6  -6   7  227.48   22.70
   5   6  -7  764.22   46.00
   5   6  -7  777.72   55.29
   5   6  -7  737.83   49.40
   5   6  -7  763.42   46.90
  -5  -6   7  722.33   48.40
  -5  -6   7  803.22   48.30
   4   6  -7  402.46   26.20
   4   6  -7  450.85   37.50
   4   6  -7  447.26   27.80
  -4  -6   7  412.66   28.00
  -4  -6   7  410.96   28.90
   3   6  -7   13.60    4.30
   3   6  -7   12.30    9.20
  -3  -6   7   22.00    9.10
  -3  -6   7   11.80    8.10
  -3  -6   7   14.80    6.20
   2   6  -7  971.30   59.79
   2   6  -7  938.81   60.69
   2   6  -7  910.01   57.29
   2   6  -7 1021.00   57.39
  -2  -6   7 1002.10   58.09
  -2  -6   7  917.11   57.69
  -2  -6   7 1001.10   57.49
   1   6  -7  852.11   52.09
   1   6  -7  859.41   49.50
   1   6  -7  833.42   53.19
   1   6  -7  800.62   49.40
  -1  -6   7  855.11   50.19
  -1  -6   7  777.82   49.40
  -1  -6   7  842.32   49.50
   0   6  -7  103.79   13.80
   0   6  -7  139.19   19.20
   0   6  -7  137.79   10.80
   0   6  -7  146.79   10.90
   0   6  -7  135.29   15.50
   0  -6   7  142.89   12.20
   0  -6   7  138.19   12.30
  -1   6  -7   94.69    8.50
  -1   6  -7   80.39   12.10
  -1   6  -7   84.79    9.00
  -1   6  -7   92.89   14.00
   1  -6   7   78.89   11.80
   1  -6   7   86.59    8.70
  -2   6  -7  746.33   42.40
  -2   6  -7  705.13   42.30
  -2   6  -7  652.73   44.70
  -2   6  -7  734.93   46.30
   2  -6   7  733.73   43.90
  -3   6  -7  523.65   35.20
  -3   6  -7  561.64   37.60
  -3   6  -7  540.55   32.70
   3  -6   7  570.44   34.50
  -4   6  -7   61.99   13.80
  -4   6  -7   46.30    6.10
  -4   6  -7   80.99   13.90
   4  -6   7   48.40    8.90
  -5   6  -7  190.18   21.30
  -5   6  -7  137.19   20.40
   5  -6   7  202.58   16.50
  -6   6  -7  431.66   34.90
   6  -6   7  425.46   30.30
   7   5  -7  531.55   32.90
   7   5  -7  529.25   35.10
   7   5  -7  543.85   47.30
  -7  -5   7  522.75   34.50
  -7  -5   7  485.95   36.20
   6   5  -7  124.79   26.20
   6   5  -7  165.78   15.40
   6   5  -7  142.49   13.00
  -6  -5   7  152.48   20.10
  -6  -5   7  144.39   16.50
   5   5  -7   81.29   15.90
   5   5  -7  112.99   10.20
   5   5  -7  107.89   13.00
   5   5  -7  131.09   26.60
  -5  -5   7  100.59   13.70
  -5  -5   7  104.09   14.70
   4   5  -7  809.62   52.89
   4   5  -7  825.52   49.99
  -4  -5   7  899.71   50.79
  -4  -5   7  834.12   52.19
   3   5  -7 1129.49   63.69
   3   5  -7 1071.09   67.89
   3   5  -7 1063.19   65.69
   3   5  -7 1030.10   62.99
  -3  -5   7 1085.19   64.19
  -3  -5   7 1100.99   65.19
  -3  -5   7 1092.69   63.69
  -3  -5   7 1019.10   63.99
   2   5  -7   10.50   11.00
   2   5  -7    1.10    7.90
   2   5  -7   -6.30    5.50
   2   5  -7   -5.40    5.10
   2   5  -7    3.90    5.50
  -2  -5   7   -5.90    5.30
  -2  -5   7   -8.00    5.80
  -2  -5   7    2.10    5.70
   1   5  -7  413.76   30.90
   1   5  -7  432.46   26.40
   1   5  -7  440.96   26.60
   1   5  -7  422.76   29.30
  -1  -5   7  401.26   26.40
  -1  -5   7  442.96   26.50
  -1  -5   7  443.26   27.40
   0   5  -7  888.41   53.89
   0   5  -7  857.41   53.29
   0   5  -7  825.72   50.59
   0   5  -7  833.72   50.49
   0  -5   7  901.01   54.99
   0  -5   7  832.82   51.09
  -1   5  -7  836.62   48.60
  -1   5  -7  748.93   45.40
  -1   5  -7  759.72   45.40
   1  -5   7  761.32   48.20
   1  -5   7  708.03   45.30
   1  -5   7  783.22   46.10
  -2   5  -7    7.90    4.30
  -2   5  -7    6.30    4.60
   2  -5   7    0.80    4.70
   2  -5   7   16.10    6.70
  -3   5  -7  559.14   32.80
  -3   5  -7  528.85   37.10
  -3   5  -7  545.65   33.30
   3  -5   7  552.54   34.30
  -4   5  -7  826.52   55.29
  -4   5  -7  901.21   55.39
  -4   5  -7  897.51   51.79
   4  -5   7  895.71   53.39
  -5   5  -7  177.58   11.70
  -5   5  -7  162.48   20.80
  -5   5  -7  126.89   18.40
   5  -5   7  182.58   16.00
  -6   5  -7   51.49   16.70
  -6   5  -7   60.29    8.50
  -7   5  -7  226.38   31.60
   7  -5   7  287.77   24.50
   8   4  -7    2.90   21.60
   8   4  -7   28.50   10.90
   8   4  -7   15.80    6.40
  -8  -4   7   -3.80   14.30
  -8  -4   7   29.90   11.30
  -8  -4   7   19.50   10.20
   7   4  -7   97.99   14.40
   7   4  -7   72.69   15.70
   7   4  -7   80.99   21.80
   7   4  -7   94.19   10.40
  -7  -4   7   69.69   14.00
  -7  -4   7   83.09   11.10
   6   4  -7  400.76   24.30
   6   4  -7  379.76   25.80
   6   4  -7  350.96   28.00
   6   4  -7  319.97   36.80
  -6  -4   7  415.96   26.20
   5   4  -7  916.91   53.69
   5   4  -7  798.52   62.49
   5   4  -7  871.31   55.79
  -5  -4   7  979.40   54.49
  -5  -4   7  916.91   55.69
   4   4  -7  165.58   11.90
   4   4  -7  146.79   13.20
   4   4  -7  189.98   22.60
   4   4  -7  153.28   16.40
   4   4  -7  171.58   13.30
  -4  -4   7  180.28   14.70
  -4  -4   7  182.08   16.50
   3   4  -7  502.55   33.90
   3   4  -7  476.55   30.60
   3   4  -7  515.55   36.70
   3   4  -7  551.14   31.50
   3   4  -7  474.95   32.00
   3   4  -7  484.45   31.80
  -3  -4   7  523.95   31.90
  -3  -4   7  510.25   31.60
  -3  -4   7  534.45   33.50
  -3  -4   7  549.74   31.60
   2   4  -7 2080.49  124.19
   2   4  -7 1983.60  123.09
   2   4  -7 2196.38  125.19
   2   4  -7 2245.08  125.79
   2   4  -7 2063.09  123.19
  -2  -4   7 2029.40  123.29
  -2  -4   7 2070.09  123.09
  -2  -4   7 1991.50  122.89
  -2  -4   7 2335.17  124.69
   1   4  -7 1257.07   71.09
   1   4  -7 1142.49   68.59
   1   4  -7 1216.48   71.29
   1   4  -7 1169.28   68.69
   1   4  -7 1073.79   69.59
  -1  -4   7 1152.48   67.99
  -1  -4   7 1117.99   68.89
  -1  -4   7 1253.37   72.09
  -1  -4   7 1124.09   68.49
   0   4  -7   84.19    8.80
   0   4  -7   84.09    8.80
   0   4  -7   90.69   13.80
   0   4  -7   94.49   15.10
   0  -4   7   81.99   13.60
   0  -4   7   89.19    9.50
   0  -4   7   81.09    9.70
  -1   4  -7 1130.39   66.49
  -1   4  -7 1008.90   65.29
  -1   4  -7 1105.19   63.79
   1  -4   7 1112.59   63.69
   1  -4   7 1136.69   64.49
   1  -4   7 1020.70   65.29
  -2   4  -7  912.11   54.09
  -2   4  -7  954.50   57.49
  -2   4  -7  904.11   55.49
  -2   4  -7  918.91   54.19
   2  -4   7  920.11   54.99
   2  -4   7  897.71   53.99
  -3   4  -7   82.99    9.40
  -3   4  -7   94.29   14.70
  -3   4  -7  101.59    8.80
   3  -4   7   94.29   11.50
  -4   4  -7   56.89   12.30
  -4   4  -7   68.89   13.20
  -4   4  -7   67.29    7.40
   4  -4   7   60.99    8.90
  -5   4  -7  232.18   22.30
  -5   4  -7  271.57   24.50
   5  -4   7  286.77   21.40
  -6   4  -7  354.86   22.50
  -6   4  -7  325.47   30.50
  -7   4  -7   35.80    7.80
   7  -4   7   34.40   11.70
   8   3  -7  452.05   44.90
   8   3  -7  472.75   32.50
   8   3  -7  453.85   29.90
  -8  -3   7  476.45   32.10
  -8  -3   7  460.05   34.50
  -8  -3   7  453.25   33.70
   7   3  -7  409.76   38.20
   7   3  -7  375.96   26.30
   7   3  -7  330.37   28.30
   7   3  -7  386.26   24.80
  -7  -3   7  363.56   29.10
  -7  -3   7  378.26   28.00
  -7  -3   7  402.16   26.60
   6   3  -7    3.50    8.90
   6   3  -7    7.10   16.50
   6   3  -7    7.70    4.80
  -6  -3   7    9.10    8.30
   5   3  -7  983.20   57.49
   5   3  -7  873.11   57.29
   5   3  -7  945.91   59.99
   5   3  -7  989.70   57.89
   5   3  -7 1015.20   63.19
  -5  -3   7  999.20   57.89
  -5  -3   7  983.60   59.19
   4   3  -7  718.03   45.60
   4   3  -7  795.72   50.49
   4   3  -7  770.62   48.10
   4   3  -7  764.42   45.70
   4   3  -7  727.63   45.10
  -4  -3   7  780.92   45.80
  -4  -3   7  751.12   46.60
  -4  -3   7  772.72   47.10
   3   3  -7  429.16   26.30
   3   3  -7  404.56   25.30
   3   3  -7  413.16   26.50
   3   3  -7  438.06   32.00
   3   3  -7  422.16   28.80
   3   3  -7  406.96   26.00
  -3  -3   7  434.46   28.50
  -3  -3   7  439.06   26.30
  -3  -3   7  385.36   26.10
   2   3  -7   65.69   11.50
   2   3  -7   73.59    8.70
   2   3  -7   76.99   13.20
   2   3  -7   66.09    9.70
   2   3  -7   70.89   13.50
   2   3  -7   68.49    8.20
  -2  -3   7   73.19    8.90
  -2  -3   7   69.99   11.30
  -2  -3   7   64.49    7.60
  -2  -3   7   56.39    9.80
   1   3  -7 1527.75   99.39
   1   3  -7 1553.04   99.39
   1   3  -7 1768.82  100.69
   1   3  -7 1765.42   98.39
   1   3  -7 1648.04  100.49
   1   3  -7 1761.42   98.49
  -1  -3   7 1778.72   98.39
  -1  -3   7 1687.43   98.49
  -1  -3   7 1693.13  100.19
  -1  -3   7 1651.93   97.79
   0   3  -7  680.73   44.50
   0   3  -7  701.03   44.70
   0   3  -7  728.23   41.90
   0   3  -7  700.93   41.70
   0  -3   7  706.93   41.70
   0  -3   7  703.13   42.30
   0  -3   7  686.63   43.70
  -1   3  -7  134.99   16.70
  -1   3  -7  176.98   17.30
  -1   3  -7  184.18   12.90
  -1   3  -7  182.78   12.40
   1  -3   7  157.48   13.70
   1  -3   7  170.18   14.80
  -2   3  -7  270.67   17.50
  -2   3  -7  264.07   21.60
   2  -3   7  253.77   17.60
   2  -3   7  288.37   19.10
  -3   3  -7 1143.49   70.69
  -3   3  -7 1131.19   69.69
  -3   3  -7 1175.68   67.89
   3  -3   7 1174.38   68.69
  -4   3  -7  299.77   19.10
  -4   3  -7  301.57   23.90
  -4   3  -7  265.47   23.20
   4  -3   7  313.17   20.90
   4  -3   7  293.47   19.10
  -5   3  -7    6.30   13.10
  -5   3  -7   -8.60    6.10
  -5   3  -7   -5.70   10.00
   5  -3   7    7.30    9.40
  -6   3  -7  270.37   19.70
  -6   3  -7  262.57   28.30
   6  -3   7  296.87   25.40
   9   2  -7  161.88   21.60
  -9  -2   7  171.68   18.50
  -9  -2   7  151.28   20.40
   8   2  -7    8.80   10.20
   8   2  -7   13.60    6.70
   8   2  -7   15.10   20.40
  -8  -2   7    8.70   11.40
  -8  -2   7   15.40   10.90
  -8  -2   7    9.00   10.10
   7   2  -7  579.44   36.30
   7   2  -7  628.34   46.60
   7   2  -7  521.95   38.70
  -7  -2   7  587.54   39.60
  -7  -2   7  605.44   37.20
  -7  -2   7  594.04   39.30
   6   2  -7  989.00   57.59
   6   2  -7  995.10   57.39
   6   2  -7  908.31   59.39
  -6  -2   7  991.80   57.49
  -6  -2   7  910.41   58.89
   5   2  -7  356.16   21.50
   5   2  -7  349.07   22.50
   5   2  -7  336.27   25.80
   5   2  -7  317.77   21.10
   5   2  -7  324.37   30.60
  -5  -2   7  334.37   24.00
  -5  -2   7  361.16   22.70
   4   2  -7  111.09    9.50
   4   2  -7   96.59   15.10
   4   2  -7   97.19   15.60
   4   2  -7  126.59   11.70
   4   2  -7  112.89    8.90
  -4  -2   7  104.19   11.90
  -4  -2   7  113.39   11.00
  -4  -2   7  107.69   12.60
   3   2  -7 2418.06  141.89
   3   2  -7 2434.46  140.29
   3   2  -7 2260.57  142.09
   3   2  -7 2357.46  139.79
   3   2  -7 2500.85  139.89
   3   2  -7 2394.66  139.49
  -3  -2   7 2529.55  139.89
  -3  -2   7 2478.25  141.29
  -3  -2   7 2206.08  139.79
   2   2  -7 1681.63   96.39
   2   2  -7 1648.04   93.99
   2   2  -7 1458.95   93.49
   2   2  -7 1603.84   96.69
   2   2  -7 1696.63   94.09
   2   2  -7 1654.23   94.99
   2   2  -7 1491.85   94.99
  -2  -2   7 1530.75   96.09
  -2  -2   7 1720.33   94.09
  -2  -2   7 1405.76   93.69
  -2  -2   7 1669.53   94.19
  -2  -2   7 1687.53   95.49
  -2  -2   7 1654.33   97.19
   1   2  -7    2.20    5.60
   1   2  -7   -8.40   10.10
   1   2  -7   -7.40    6.80
   1   2  -7    7.00    9.70
   1   2  -7    3.90    7.10
   1   2  -7    1.90    4.90
  -1  -2   7    6.40    5.20
  -1  -2   7    7.50    4.70
  -1  -2   7    3.70    2.60
  -1  -2   7    6.60    8.10
  -1  -2   7    5.90    8.70
   0   2  -7  708.73   46.70
   0   2  -7  752.02   47.10
   0   2  -7  725.93   43.60
   0   2  -7  730.23   46.30
   0   2  -7  745.93   43.80
   0  -2   7  743.53   45.30
   0  -2   7  741.23   43.70
   0  -2   7  721.33   43.80
  -1   2  -7 1146.49   67.19
  -1   2  -7 1151.88   69.79
  -1   2  -7 1144.99   67.19
   1  -2   7 1167.88   67.49
   1  -2   7 1198.58   67.29
   1  -2   7 1053.49   67.89
  -2   2  -7  545.45   33.50
  -2   2  -7  465.75   29.40
  -2   2  -7  451.05   29.50
   2  -2   7  495.85   29.40
   2  -2   7  471.75   29.50
   2  -2   7  479.05   30.00
  -3   2  -7   26.90    5.20
  -3   2  -7   28.80    5.90
   3  -2   7   27.60    5.80
   3  -2   7   35.20    7.20
  -4   2  -7  370.56   28.80
  -4   2  -7  426.16   30.20
   4  -2   7  439.46   25.60
   4  -2   7  362.16   25.70
   4  -2   7  463.55   27.20
  -5   2  -7  766.02   44.60
  -5   2  -7  741.13   48.60
   5  -2   7  718.43   45.30
   5  -2   7  701.43   44.70
  -6   2  -7   92.19   19.00
  -6   2  -7  101.39   13.80
   6  -2   7   94.89   12.80
   9   1  -7  610.64   39.40
   9   1  -7  633.14   41.40
  -9  -1   7  659.73   41.00
  -9  -1   7  599.94   42.90
  -9  -1   7  588.14   42.40
   8   1  -7  415.06   27.60
   8   1  -7  429.06   30.50
  -8  -1   7  437.56   28.90
  -8  -1   7  427.66   31.30
  -8  -1   7  390.16   30.50
   7   1  -7  -13.50   17.20
   7   1  -7   12.80    6.70
   7   1  -7    1.20    5.50
   7   1  -7   -5.40    9.30
  -7  -1   7   -2.60    7.60
  -7  -1   7   -1.00    9.00
  -7  -1   7    5.10    9.40
   6   1  -7  101.39   17.00
   6   1  -7   92.09   15.40
   6   1  -7   86.59    9.50
   6   1  -7   96.09   11.60
  -6  -1   7  104.09   12.90
  -6  -1   7  109.79   11.50
   5   1  -7  917.51   51.39
   5   1  -7  898.51   51.69
   5   1  -7  842.52   53.89
   5   1  -7  835.52   55.49
  -5  -1   7  731.63   52.59
  -5  -1   7  853.71   52.99
  -5  -1   7  951.10   51.59
   4   1  -7  935.61   52.89
   4   1  -7  914.21   52.39
   4   1  -7  879.41   52.69
   4   1  -7  913.91   57.29
   4   1  -7  853.11   55.09
  -4  -1   7  909.61   54.29
  -4  -1   7  951.30   52.89
  -4  -1   7  861.71   53.19
  -4  -1   7  767.82   53.99
   3   1  -7   31.50    6.90
   3   1  -7   51.29   11.00
   3   1  -7   52.19    6.40
   3   1  -7   32.10    6.30
   3   1  -7   47.10    5.80
   3   1  -7   39.90    6.20
  -3  -1   7   47.10    6.50
  -3  -1   7   66.19   11.20
   2   1  -7  467.55   35.20
   2   1  -7  501.35   30.10
   2   1  -7  542.35   34.30
   2   1  -7  458.45   32.00
   2   1  -7  512.15   30.80
   2   1  -7  513.85   30.90
  -2  -1   7  522.75   30.70
  -2  -1   7  532.45   31.10
  -2  -1   7  501.55   30.60
  -2  -1   7  500.35   33.70
  -2  -1   7  475.05   33.10
  -2  -1   7  519.15   32.70
   1   1  -7 2938.31  168.88
   1   1  -7 3118.19  171.38
   1   1  -7 2794.32  169.08
   1   1  -7 2879.91  169.18
  -1  -1   7 2988.10  170.98
  -1  -1   7 2692.73  168.58
  -1  -1   7 2888.91  169.18
  -1  -1   7 3004.50  170.58
  -1  -1   7 2866.21  169.18
   0   1  -7  394.36   25.10
   0   1  -7  381.76   24.90
   0   1  -7  449.66   29.40
   0  -1   7  413.86   26.80
   0  -1   7  396.76   25.00
   0  -1   7  389.96   25.00
   0  -1   7  402.96   29.90
  -1   1  -7  281.37   22.90
  -1   1  -7  276.17   18.70
  -1   1  -7  278.37   18.30
   1  -1   7  282.47   19.00
   1  -1   7  287.27   19.90
   1  -1   7  295.47   18.80
  -2   1  -7  624.64   39.30
  -2   1  -7  633.74   42.10
  -2   1  -7  686.93   43.90
  -2   1  -7  659.63   39.40
   2  -1   7  667.43   39.70
   2  -1   7  669.73   40.00
  -3   1  -7  779.02   47.60
  -3   1  -7  791.32   45.20
  -3   1  -7  723.73   47.80
  -3   1  -7  711.03   45.20
   3  -1   7  769.62   45.30
   3  -1   7  748.93   45.80
  -4   1  -7    4.50   10.30
  -4   1  -7   24.10   12.40
  -4   1  -7    4.10    6.60
   4  -1   7    3.70    6.30
   4  -1   7   11.10    8.40
  -5   1  -7  101.79   20.80
  -5   1  -7  109.79   12.60
   5  -1   7  100.09   15.60
  -6   1  -7  196.78   17.20
  -6   1  -7  171.08   25.60
   6  -1   7  177.18   16.30
   9   0  -7   71.69   11.90
   9   0  -7   88.09   14.00
  -9   0   7  101.99   15.10
  -9   0   7   93.99   20.00
  -9   0   7   84.09   16.10
   8   0  -7  481.85   30.50
   8   0  -7  453.25   29.50
  -8   0   7  448.26   30.00
  -8   0   7  437.56   32.40
  -8   0   7  447.26   32.60
   7   0  -7 1125.69   71.19
   7   0  -7 1194.98   70.29
   7   0  -7 1202.58   70.29
  -7   0   7 1218.48   70.29
  -7   0   7 1150.78   71.59
  -7   0   7 1191.88   72.39
   6   0  -7  331.27   25.00
   6   0  -7  331.17   22.40
   6   0  -7  347.27   22.10
  -6   0   7  332.07   22.20
  -6   0   7  323.87   24.10
   5   0  -7    4.50    5.70
   5   0  -7    6.70    4.50
   5   0  -7    5.10    9.50
  -5   0   7   -1.00    5.90
  -5   0   7   -0.20    7.90
  -5   0   7   10.50    7.40
   4   0  -7 1380.56   78.49
   4   0  -7 1228.18   79.29
   4   0  -7 1342.27   78.79
   4   0  -7 1384.96   78.79
   4   0  -7 1404.66   80.99
  -4   0   7 1205.08   80.29
  -4   0   7 1334.57   80.09
  -4   0   7 1428.86   78.89
   3   0  -7 1728.83   97.59
   3   0  -7 1794.12   97.39
   3   0  -7 1737.23   99.89
   3   0  -7 1622.14   97.39
  -3   0   7 1565.94   98.59
  -3   0   7 1745.53   97.59
  -3   0   7 1616.54   97.49
  -3   0   7 1560.44   99.19
  -3   0   7 1692.53   97.39
  -3   0   7 1596.74   99.89
   2   0  -7  442.46   25.90
   2   0  -7  418.86   24.90
   2   0  -7  371.86   26.80
   2   0  -7  427.66   29.50
   2   0  -7  416.16   25.40
  -2   0   7  399.46   25.70
  -2   0   7  411.56   28.50
  -2   0   7  428.46   25.70
  -2   0   7  403.96   27.60
  -2   0   7  390.06   29.00
  -2   0   7  398.36   25.00
   1   0  -7  109.39   10.40
   1   0  -7  116.59   16.60
   1   0  -7  104.89    9.70
   1   0  -7   98.89   12.10
  -1   0   7  105.49   10.20
  -1   0   7  103.49   13.80
  -1   0   7   91.89   15.00
  -1   0   7   93.79   10.50
  -1   0   7  107.79   10.80
   0   0  -7 2115.89  125.89
   0   0  -7 2133.29  123.69
   0   0  -7 2114.39  123.59
   0   0   7 2122.69  123.69
   0   0   7 2045.10  123.39
   0   0   7 2116.89  124.79
   0   0   7 2191.18  123.79
  -1   0  -7 1108.79   65.09
  -1   0  -7 1081.59   67.49
  -1   0  -7 1069.09   65.19
   1   0   7 1095.59   65.19
   1   0   7 1144.99   65.99
   1   0   7 1128.19   65.29
  -2   0  -7    6.60    4.90
  -2   0  -7    5.10    8.50
  -2   0  -7    7.40   10.10
  -2   0  -7    6.30    3.90
  -2   0  -7    5.00    6.30
   2   0   7   -2.50    3.50
   2   0   7    2.90    5.00
   2   0   7   -4.70    6.40
  -3   0  -7  139.39   13.20
  -3   0  -7  168.88   14.10
  -3   0  -7  142.59   17.20
  -3   0  -7  149.59   17.00
   3   0   7  163.38   14.30
   3   0   7  150.48   14.00
  -4   0  -7  675.23   44.90
  -4   0  -7  657.43   41.00
   4   0   7  669.23   41.50
   4   0   7  686.93   42.00
  -5   0  -7  363.46   28.90
  -5   0  -7  345.27   24.50
   5   0   7  374.26   26.50
  -6   0  -7    2.10    8.80
  -6   0  -7   11.80   17.10
   6   0   7    0.60   11.20
   6   0   7   -1.50    7.90
   9  -1  -7  629.44   40.50
  -9   1   7  670.83   41.50
  -9   1   7  643.84   43.40
  -9   1   7  618.74   44.00
   8  -1  -7  277.87   21.50
   8  -1  -7  271.87   20.10
  -8   1   7  302.67   23.00
  -8   1   7  276.87   23.80
  -8   1   7  262.87   20.80
   7  -1  -7   59.69    9.30
   7  -1  -7   70.19    8.50
   7  -1  -7   54.89   10.10
  -7   1   7   71.49    9.30
  -7   1   7   62.69   13.40
   6  -1  -7 1268.57   76.09
   6  -1  -7 1325.27   76.19
   6  -1  -7 1236.48   77.59
  -6   1   7 1295.77   75.89
  -6   1   7 1298.17   77.69
   5  -1  -7  504.15   33.10
   5  -1  -7  522.55   31.00
   5  -1  -7  518.45   30.50
   5  -1  -7  416.26   31.20
  -5   1   7  502.75   32.50
  -5   1   7  529.65   30.80
   4  -1  -7  118.99   16.60
   4  -1  -7  117.19    9.70
   4  -1  -7  109.89   11.80
   4  -1  -7  100.19   11.80
  -4   1   7   81.49   15.30
  -4   1   7  107.09   13.00
  -4   1   7  109.29   11.40
  -4   1   7  112.39   11.60
   3  -1  -7   31.20    6.20
   3  -1  -7   21.20   10.60
   3  -1  -7   12.80    5.70
   3  -1  -7   39.60    5.60
   3  -1  -7   21.30    5.50
  -3   1   7   23.90    8.30
  -3   1   7   26.00    6.30
  -3   1   7    9.70    8.70
  -3   1   7    1.60    9.80
  -3   1   7   24.80    8.60
  -3   1   7   27.30    6.20
   2  -1  -7 1582.24   92.99
   2  -1  -7 1635.14   90.49
   2  -1  -7 1613.44   90.69
   2  -1  -7 1536.25   90.49
   2  -1  -7 1610.54   92.89
  -2   1   7 1530.15   91.89
  -2   1   7 1474.55   90.49
  -2   1   7 1418.06   92.39
  -2   1   7 1606.84   90.59
  -2   1   7 1504.05   90.19
  -2   1   7 1545.05   93.99
  -2   1   7 1488.25   90.19
   1  -1  -7 1101.59   64.79
   1  -1  -7 1140.39   64.89
   1  -1  -7 1145.89   67.69
  -1   1   7 1145.59   64.89
  -1   1   7  986.10   66.29
  -1   1   7 1080.99   64.39
  -1   1   7 1092.19   64.49
   0  -1  -7   39.30    6.30
   0  -1  -7   30.50   11.50
   0  -1  -7   47.50    6.20
   0   1   7   57.99    6.80
   0   1   7   46.00    8.80
   0   1   7   44.30    6.70
   0   1   7   52.29    7.40
  -1  -1  -7  626.34   40.90
  -1  -1  -7  654.73   38.00
  -1  -1  -7  632.34   39.50
   1   1   7  615.64   37.90
   1   1   7  608.44   39.30
   1   1   7  631.54   38.40
   1   1   7  623.34   37.50
  -2  -1  -7 1160.18   67.79
  -2  -1  -7 1049.49   68.09
  -2  -1  -7 1046.70   65.69
  -2  -1  -7 1100.19   65.99
   2   1   7 1262.97   66.09
   2   1   7 1082.89   66.19
  -3  -1  -7  186.38   21.10
   3   1   7  166.18   13.40
   3   1   7  164.38   14.60
   3   1   7  135.99   15.10
  -4  -1  -7   20.40   14.00
  -4  -1  -7   12.90    8.30
   4   1   7   10.90    8.30
   4   1   7   15.50    9.60
  -5  -1  -7  268.27   21.20
  -5  -1  -7  280.77   29.00
   5   1   7  284.47   21.50
  10  -2  -7   47.50    9.90
 -10   2   7   63.19   14.40
   9  -2  -7   83.89   12.30
  -9   2   7   70.19   14.60
  -9   2   7   93.79   17.70
  -9   2   7   93.89   11.70
   8  -2  -7  699.03   42.40
   8  -2  -7  645.84   42.00
  -8   2   7  705.53   42.20
  -8   2   7  652.53   42.80
  -8   2   7  681.73   44.80
   7  -2  -7  715.63   45.30
   7  -2  -7  728.93   44.40
   7  -2  -7  770.82   44.80
  -7   2   7  691.93   46.70
   6  -2  -7    7.00    8.60
   6  -2  -7   15.50    7.40
   6  -2  -7   10.60    5.90
  -6   2   7    6.00    8.00
  -6   2   7    6.60    5.90
  -6   2   7   -4.90    8.60
   5  -2  -7  424.96   25.60
   5  -2  -7  410.26   28.00
   5  -2  -7  419.16   24.70
   5  -2  -7  368.56   25.80
  -5   2   7  325.57   27.50
  -5   2   7  383.76   26.60
  -5   2   7  378.86   25.00
  -5   2   7  422.16   24.90
   4  -2  -7 1598.34   96.99
   4  -2  -7 1704.83   95.19
   4  -2  -7 1660.23   95.19
  -4   2   7 1689.33   95.09
  -4   2   7 1592.04   98.29
  -4   2   7 1514.75   94.99
  -4   2   7 1584.14   96.29
   3  -2  -7 1024.60   57.89
   3  -2  -7  944.21   58.09
   3  -2  -7  978.50   60.89
   3  -2  -7 1030.10   57.69
  -3   2   7  897.21   57.69
  -3   2   7 1005.40   57.79
  -3   2   7  918.51   59.09
  -3   2   7  972.60   57.19
  -3   2   7  990.80   57.59
   2  -2  -7   44.80   11.60
   2  -2  -7   40.60    6.90
   2  -2  -7   51.39    7.30
  -2   2   7   42.00    7.10
  -2   2   7   35.40   10.30
  -2   2   7   48.20    7.10
  -2   2   7   31.20    6.50
  -2   2   7   59.69    7.70
   1  -2  -7 1043.40   59.89
   1  -2  -7  989.40   62.39
  -1   2   7 1020.90   59.39
  -1   2   7  933.51   61.59
  -1   2   7 1070.39   60.09
  -1   2   7  995.90   59.39
   0  -2  -7 1629.64   90.79
   0  -2  -7 1590.34   92.29
   0  -2  -7 1573.84   89.89
   0   2   7 1574.14   90.09
   0   2   7 1408.86   90.99
   0   2   7 1356.06   89.59
   0   2   7 1587.24   89.59
  -1  -2  -7  153.78   19.00
  -1  -2  -7  182.38   14.00
  -1  -2  -7  172.48   14.20
  -1  -2  -7  190.78   16.30
   1   2   7  178.08   14.70
   1   2   7  167.98   13.80
   1   2   7  195.18   14.20
   1   2   7  169.08   17.10
  -2  -2  -7  131.49   11.80
  -2  -2  -7  129.59   16.30
  -2  -2  -7  181.28   14.40
   2   2   7  151.78   13.00
   2   2   7  172.18   14.10
   2   2   7  138.69   13.00
   2   2   7  158.58   14.90
  -3  -2  -7  461.55   31.30
   3   2   7  492.75   31.70
   3   2   7  458.95   31.40
   3   2   7  546.15   31.60
  -4  -2  -7  450.75   31.40
  -4  -2  -7  480.95   35.80
   4   2   7  463.85   31.30
   4   2   7  443.86   30.70
   4   2   7  509.45   31.20
  -5  -2  -7    7.80    8.60
  -5  -2  -7   16.60   17.50
   5   2   7   26.60   10.80
  10  -3  -7  304.77   23.50
 -10   3   7  305.77   27.40
 -10   3   7  336.57   26.50
 -10   3   7  348.57   32.10
   9  -3  -7  422.66   28.80
  -9   3   7  412.76   30.70
  -9   3   7  448.56   28.70
  -9   3   7  421.16   32.90
   8  -3  -7    6.20    7.60
   8  -3  -7   22.50    9.00
  -8   3   7    9.00    8.50
  -8   3   7   -5.50   10.90
   7  -3  -7  562.34   35.90
   7  -3  -7  608.24   36.50
  -7   3   7  558.14   40.30
   6  -3  -7  767.12   47.10
   6  -3  -7  763.72   45.90
   6  -3  -7  763.72   45.60
  -6   3   7  672.43   45.70
  -6   3   7  761.42   45.30
  -6   3   7  784.42   47.40
   5  -3  -7  595.24   36.80
   5  -3  -7  545.25   34.30
   5  -3  -7  558.94   34.60
   5  -3  -7  570.74   34.10
  -5   3   7  540.95   33.90
  -5   3   7  581.74   35.90
  -5   3   7  480.15   34.00
   4  -3  -7   35.50    6.80
   4  -3  -7   49.40    7.50
   4  -3  -7   21.20    6.20
   4  -3  -7   34.70   10.00
  -4   3   7   33.60    8.60
  -4   3   7   23.90    6.40
  -4   3   7   35.30    6.80
  -4   3   7   23.30    6.40
   3  -3  -7  797.52   46.50
   3  -3  -7  818.32   49.70
   3  -3  -7  811.12   46.70
  -3   3   7  750.12   45.70
  -3   3   7  763.02   46.30
  -3   3   7  753.72   47.80
  -3   3   7  715.63   46.40
  -3   3   7  800.92   46.60
   2  -3  -7  917.61   58.39
   2  -3  -7  942.31   55.79
   2  -3  -7  966.40   55.89
  -2   3   7  888.21   55.09
  -2   3   7  947.81   55.59
  -2   3   7  961.80   55.79
   1  -3  -7  508.25   34.50
   1  -3  -7  487.65   32.80
   1  -3  -7  548.05   32.20
  -1   3   7  484.05   31.20
  -1   3   7  530.35   31.80
  -1   3   7  559.84   32.20
   0  -3  -7  215.28   18.10
   0  -3  -7  230.08   16.00
   0   3   7  236.98   16.50
   0   3   7  203.08   15.80
   0   3   7  199.68   15.10
  -1  -3  -7 1177.68   68.19
  -1  -3  -7 1126.99   69.39
   1   3   7 1074.29   67.79
   1   3   7 1221.88   68.39
  -2  -3  -7  347.67   26.00
  -2  -3  -7  365.06   24.40
   2   3   7  365.66   23.60
   2   3   7  388.26   23.80
   2   3   7  327.87   23.30
   2   3   7  291.47   23.70
  -3  -3  -7   -4.70   12.90
  -3  -3  -7   -2.40    8.10
   3   3   7   -5.30    7.30
   3   3   7   -9.10    9.10
  -4  -3  -7  177.88   25.00
  -4  -3  -7  142.89   17.00
   4   3   7  156.48   19.60
   4   3   7  130.99   16.00
   4   3   7  192.38   19.00
  -5  -3  -7  250.97   30.10
   5   3   7  188.68   21.70
  10  -4  -7    2.40    7.30
 -10   4   7   14.70   10.20
   9  -4  -7  283.67   22.20
  -9   4   7  329.17   28.00
  -9   4   7  310.77   23.30
   8  -4  -7  744.53   46.70
   8  -4  -7  716.83   46.60
  -8   4   7  741.23   46.50
  -8   4   7  824.12   49.99
   7  -4  -7  499.25   31.80
   7  -4  -7  470.75   32.20
  -7   4   7  493.55   31.60
  -7   4   7  528.05   34.40
   6  -4  -7  627.84   37.20
   6  -4  -7  621.54   37.20
   6  -4  -7  577.94   36.20
  -6   4   7  550.04   37.20
  -6   4   7  617.94   36.80
  -6   4   7  609.54   38.80
   5  -4  -7 1360.26   78.69
   5  -4  -7 1333.47   78.69
   5  -4  -7 1393.16   78.69
  -5   4   7 1375.66   78.29
  -5   4   7 1239.98   78.29
  -5   4   7 1332.17   78.49
  -5   4   7 1261.27   79.79
   4  -4  -7  222.78   16.00
   4  -4  -7  195.48   15.20
  -4   4   7  220.18   15.50
  -4   4   7  197.68   13.90
  -4   4   7  230.28   15.40
  -4   4   7  199.18   17.00
  -4   4   7  175.48   15.40
   3  -4  -7   59.59    8.70
   3  -4  -7   49.30    7.70
   3  -4  -7   67.59   10.30
  -3   4   7   54.39    7.20
  -3   4   7   52.89    7.50
  -3   4   7   75.79    9.00
  -3   4   7   47.30   10.70
   2  -4  -7  381.56   24.00
   2  -4  -7  343.37   24.00
   2  -4  -7  402.36   24.30
  -2   4   7  356.76   24.00
   1  -4  -7  637.54   36.30
   1  -4  -7  506.85   36.40
  -1   4   7  599.24   36.10
  -1   4   7  607.94   36.20
   0  -4  -7  546.05   34.90
   0  -4  -7  573.74   33.70
   0   4   7  483.65   32.90
   0   4   7  559.54   33.80
  -1  -4  -7   86.79   14.10
   1   4   7   93.39   15.50
   1   4   7  107.79   14.00
   1   4   7  101.49   12.60
  -2  -4  -7  817.92   47.20
  -2  -4  -7  818.82   49.70
   2   4   7  654.03   46.20
   2   4   7  667.23   47.80
   2   4   7  877.21   47.40
  -3  -4  -7  530.15   39.50
  -3  -4  -7  519.95   35.10
   3   4   7  501.35   35.00
   3   4   7  598.84   36.50
   3   4   7  525.85   35.80
  -4  -4  -7   49.10   10.50
  -4  -4  -7   68.99   18.50
   4   4   7   54.59   13.20
   4   4   7   58.59   12.60
  10  -5  -7  378.66   29.00
 -10   5   7  466.85   31.50
   9  -5  -7   33.70    9.50
  -9   5   7   49.40   10.70
  -9   5   7   44.80   14.80
   8  -5  -7  141.49   14.60
  -8   5   7  141.69   16.00
  -8   5   7  167.78   19.70
   7  -5  -7  406.36   29.00
   7  -5  -7  471.45   29.60
  -7   5   7  457.35   31.60
  -7   5   7  444.96   29.30
   6  -5  -7  880.81   53.09
   6  -5  -7  923.51   52.99
   6  -5  -7  831.72   53.29
  -6   5   7  884.81   55.19
   5  -5  -7   13.50    7.80
   5  -5  -7   23.40    8.40
  -5   5   7   13.80    6.80
  -5   5   7   29.50    7.60
  -5   5   7   14.70    8.90
  -5   5   7    9.70    8.10
   4  -5  -7  436.36   28.20
   4  -5  -7  489.35   28.90
  -4   5   7  467.35   28.00
  -4   5   7  460.05   28.20
  -4   5   7  404.86   29.10
  -4   5   7  378.86   30.20
   3  -5  -7  822.62   51.79
   3  -5  -7  892.31   51.79
  -3   5   7  878.81   51.59
  -3   5   7  840.22   51.49
   2  -5  -7  771.32   44.90
   2  -5  -7  641.04   43.90
  -2   5   7  781.12   44.70
  -2   5   7  739.43   44.40
   1  -5  -7   26.10    8.00
   1  -5  -7   37.80    7.80
  -1   5   7   35.60    8.30
  -1   5   7   30.90    6.80
   0  -5  -7  552.94   41.30
   0  -5  -7  729.43   40.50
   0   5   7  693.23   40.50
  -1  -5  -7  425.86   30.00
  -1  -5  -7  441.66   28.50
   1   5   7  365.06   30.00
   1   5   7  444.86   28.90
  -2  -5  -7  138.99   16.10
   2   5   7  134.59   17.00
   2   5   7  104.79   16.70
   2   5   7  115.19   16.40
  -3  -5  -7   72.19   11.50
  -3  -5  -7   56.09   16.20
   3   5   7   58.89   13.50
   3   5   7   48.10   13.00
   9  -6  -7  277.87   23.40
  -9   6   7  357.16   29.90
  -9   6   7  345.77   25.90
   8  -6  -7  276.77   23.00
  -8   6   7  349.87   28.80
  -8   6   7  327.47   24.30
   7  -6  -7   22.10    9.00
   7  -6  -7    8.50    4.80
  -7   6   7    7.30   12.00
  -7   6   7    6.10   11.20
  -7   6   7   13.00    8.20
   6  -6  -7  415.16   25.60
   6  -6  -7  337.67   26.00
   6  -6  -7  390.06   26.30
  -6   6   7  372.26   27.50
  -6   6   7  404.16   26.10
  -6   6   7  397.86   27.00
   5  -6  -7  722.33   45.40
   5  -6  -7  719.33   45.60
   5  -6  -7  792.62   45.20
  -5   6   7  710.93   46.00
   4  -6  -7  272.87   20.40
   4  -6  -7  245.18   19.40
   4  -6  -7  255.17   19.60
  -4   6   7  271.97   21.20
  -4   6   7  288.17   19.40
   3  -6  -7  187.28   16.90
   3  -6  -7  231.68   18.00
  -3   6   7  217.38   17.60
   2  -6  -7  515.05   33.00
  -2   6   7  514.05   32.70
   1  -6  -7  341.27   22.90
   0  -6  -7   66.49   13.90
   0   6   7   53.69   11.50
   0   6   7   54.19   10.80
   0   6   7   72.79   14.20
  -1  -6  -7  137.09   18.50
  -1  -6  -7  183.78   17.70
   1   6   7  163.48   19.70
   1   6   7  163.68   22.40
   1   6   7  159.78   18.20
  -2  -6  -7  430.36   34.00
  -2  -6  -7  409.86   29.60
   2   6   7  381.66   31.60
  -9   7   7   -0.30   11.30
  -9   7   7  -13.80   15.10
  -9   7   7    2.40   11.60
   8  -7  -7  306.37   25.00
  -8   7   7  380.56   27.50
  -8   7   7  358.26   31.00
  -8   7   7  357.96   26.50
   7  -7  -7  557.34   38.80
  -7   7   7  639.14   40.90
  -7   7   7  618.54   38.70
  -7   7   7  614.14   42.20
   6  -7  -7  145.09   15.70
   6  -7  -7  168.68   14.00
  -6   7   7  145.79   16.60
  -6   7   7  173.78   19.30
  -6   7   7  164.38   18.30
   5  -7  -7  197.08   18.00
   5  -7  -7  236.08   18.80
   5  -7  -7  224.98   18.10
  -5   7   7  195.28   18.30
  -5   7   7  249.88   18.90
  -5   7   7  230.98   19.30
   4  -7  -7  681.13   47.30
   4  -7  -7  716.53   48.30
   4  -7  -7  799.32   47.10
  -4   7   7  814.02   47.50
  -4   7   7  813.02   47.30
   3  -7  -7  296.47   23.70
   3  -7  -7  285.07   21.60
  -3   7   7  322.07   23.10
  -3   7   7  312.47   24.00
   2  -7  -7    5.30   10.00
   2  -7  -7   16.90    8.00
  -2   7   7    6.10    9.20
   1  -7  -7  168.28   19.10
  -1   7   7  156.18   17.30
  -1   7   7  159.08   17.40
   0  -7  -7  390.86   26.80
   0  -7  -7  342.87   29.00
   0   7   7  353.96   26.70
   0   7   7  387.46   26.50
   0   7   7  298.97   30.40
  -1  -7  -7  220.78   24.20
  -1  -7  -7  231.58   21.90
   1   7   7  155.78   27.70
   1   7   7  235.98   24.20
   1   7   7  219.88   22.10
  -2  -7  -7    1.60   11.20
   2   7   7   -6.50   14.10
   2   7   7  -13.80   12.40
  -8   8   7   33.30   14.00
  -8   8   7   25.10   11.50
  -8   8   7   29.10   17.20
   7  -8  -7   60.89   11.80
  -7   8   7   94.99   14.70
  -7   8   7   68.19   16.00
  -7   8   7   75.09   11.40
   6  -8  -7  428.36   33.50
  -6   8   7  421.76   43.20
  -6   8   7  586.64   33.60
  -6   8   7  577.74   36.00
   5  -8  -7  193.68   19.70
   5  -8  -7  263.37   22.20
  -5   8   7  264.77   20.80
  -5   8   7  260.07   23.50
   4  -8  -7   17.80   10.30
   4  -8  -7    5.00   10.80
   4  -8  -7   23.00    8.80
  -4   8   7    2.90   10.70
  -4   8   7   19.30   10.50
   3  -8  -7  171.28   18.00
   3  -8  -7  147.79   15.40
  -3   8   7  149.39   20.20
   2  -8  -7  385.66   30.90
   2  -8  -7  380.06   31.40
  -2   8   7  431.06   29.40
  -2   8   7  436.66   29.90
   1  -8  -7  168.08   18.90
   1  -8  -7  135.79   19.90
  -1   8   7  126.89   16.30
  -1   8   7  138.79   18.40
  -1   8   7  129.89   25.20
   0  -8  -7   39.00   14.30
   0  -8  -7   36.70   12.30
   0   8   7    9.50   14.30
   0   8   7   43.30   19.60
   0   8   7   20.80   12.10
   8  -9  -7  225.98   22.60
  -8   9   7  321.27   22.20
  -7   9   7  161.28   19.80
  -7   9   7  107.99   17.10
   6  -9  -7    5.30    9.90
   6  -9  -7   14.70   10.20
  -6   9   7   -1.30   11.90
  -6   9   7   -3.60   12.00
   5  -9  -7  118.89   13.90
  -5   9   7  140.89   20.00
   4  -9  -7  854.61   55.09
  -4   9   7  846.82   53.99
   3  -9  -7   42.40   14.60
  -3   9   7   61.89   12.60
  -3   9   7   46.20   13.20
   2  -9  -7  104.99   18.70
  -2   9   7  130.79   19.00
  -2   9   7   88.19   23.50
  -2   9   7  147.59   21.60
   1  -9  -7  217.48   24.10
  -1   9   7  186.38   32.00
  -1   9   7  279.87   23.10
   6 -10  -7  166.58   18.70
   5 -10  -7   23.80   12.70
  -5  10   7   10.10   10.90
   4 -10  -7   50.99   14.40
  -2 -10   8  200.78   19.20
   1  10  -8  423.06   32.10
   1  10  -8  436.16   40.80
   1  10  -8  388.36   32.30
   0  10  -8  146.79   15.40
   0  10  -8  130.89   25.10
   0  10  -8  121.69   20.20
  -1  10  -8   28.40    8.40
  -1  10  -8   15.10   15.60
  -1  10  -8    6.20   18.30
  -2  10  -8  179.18   25.20
  -2  10  -8  172.48   30.30
  -3  10  -8  319.57   32.20
   3 -10   8  370.96   26.20
   3   9  -8  391.26   41.70
   3   9  -8  436.36   30.10
   3   9  -8  397.46   34.60
  -3  -9   8  473.95   29.90
   2   9  -8  145.09   22.50
   2   9  -8  104.49   23.70
   2   9  -8  156.28   16.60
  -2  -9   8  142.39   15.90
   1   9  -8  117.09   21.00
   1   9  -8  102.09   21.20
   1   9  -8  128.69   15.00
  -1  -9   8  123.79   13.90
   0   9  -8  434.46   34.60
   0   9  -8  420.46   29.00
   0   9  -8  476.85   40.60
   0  -9   8  467.35   30.60
  -1   9  -8  290.97   22.50
  -1   9  -8  371.36   34.80
  -1   9  -8  358.36   30.10
   1  -9   8  336.57   24.60
  -2   9  -8   28.80   15.40
  -2   9  -8   32.20   16.70
  -2   9  -8   16.10    8.20
   2  -9   8   20.50    8.60
  -3   9  -8   80.19   17.90
  -4   9  -8  251.97   29.20
  -4   9  -8  274.77   28.60
   4  -9   8  316.67   23.50
   4   8  -8   99.19   21.00
   4   8  -8  125.29   17.30
   4   8  -8  149.09   22.60
   3   8  -8   94.09   14.20
   3   8  -8   61.59   21.20
   3   8  -8  110.39   20.10
  -3  -8   8  109.69   12.80
   2   8  -8  577.24   36.60
   2   8  -8  539.55   40.50
   2   8  -8  565.14   44.90
  -2  -8   8  614.84   37.10
   1   8  -8  503.85   36.30
   1   8  -8  474.15   31.70
   1   8  -8  531.25   40.30
  -1  -8   8  494.05   32.30
   0   8  -8   40.80   12.00
   0   8  -8   70.59    8.60
   0   8  -8   63.79   15.90
   0  -8   8   50.09    9.10
  -1   8  -8  466.75   30.00
  -1   8  -8  409.46   38.90
  -1   8  -8  481.25   35.30
   1  -8   8  501.65   31.20
  -2   8  -8  501.55   36.40
  -2   8  -8  476.45   31.70
  -2   8  -8  524.05   37.70
   2  -8   8  538.85   33.10
  -3   8  -8  169.08   23.90
  -3   8  -8  143.89   10.30
  -3   8  -8  116.59   18.50
   3  -8   8  130.79   15.00
  -4   8  -8   10.00   15.60
  -4   8  -8   -7.60   15.80
  -5   8  -8  264.17   29.00
   5  -8   8  317.07   24.30
   5   7  -8  142.79   16.10
   5   7  -8  113.99   21.80
   5   7  -8  119.59   23.70
   5   7  -8  119.29   12.20
  -5  -7   8  148.69   18.30
  -5  -7   8  116.39   18.80
   4   7  -8  219.98   32.20
   4   7  -8  201.48   18.40
   4   7  -8  212.08   22.70
  -4  -7   8  190.08   18.70
  -4  -7   8  204.58   19.80
   3   7  -8  757.62   46.00
   3   7  -8  759.12   53.99
   3   7  -8  723.83   49.40
  -3  -7   8  726.53   46.00
  -3  -7   8  777.32   46.70
   2   7  -8   14.00   11.30
   2   7  -8   17.10    7.50
   2   7  -8   15.80   15.70
  -2  -7   8    8.90    7.40
  -2  -7   8    4.10    7.30
   1   7  -8  779.92   45.50
   1   7  -8  703.73   49.10
  -1  -7   8  749.73   45.50
  -1  -7   8  775.92   46.20
   0   7  -8  753.42   49.99
   0   7  -8  754.02   50.09
   0  -7   8  783.42   47.10
  -1   7  -8  202.98   21.60
  -1   7  -8  206.88   22.00
  -1   7  -8  199.18   14.60
   1  -7   8  192.68   17.30
  -2   7  -8  190.78   13.40
  -2   7  -8  154.08   21.50
  -2   7  -8  202.78   21.90
   2  -7   8  208.58   16.50
  -3   7  -8  423.46   24.90
  -3   7  -8  384.96   32.40
  -3   7  -8  399.36   30.10
   3  -7   8  420.56   27.70
  -4   7  -8   94.59   19.90
  -4   7  -8   74.49   18.70
   4  -7   8  111.39   13.30
  -5   7  -8  114.49   22.60
   5  -7   8  100.89   16.50
   6   6  -8  528.35   33.30
   6   6  -8  470.45   30.50
   6   6  -8  477.75   45.50
   6   6  -8  458.75   37.00
  -6  -6   8  449.46   35.70
  -6  -6   8  538.95   34.10
   5   6  -8  316.47   28.70
   5   6  -8  323.37   37.10
   5   6  -8  380.16   24.90
   5   6  -8  343.57   22.30
  -5  -6   8  366.96   25.50
  -5  -6   8  308.27   30.40
   4   6  -8  141.79   28.70
   4   6  -8  157.88   20.10
   4   6  -8  152.38   15.50
   4   6  -8  181.78   15.90
  -4  -6   8  169.58   17.50
  -4  -6   8  164.58   15.40
  -4  -6   8  183.98   17.30
   3   6  -8  406.66   36.00
   3   6  -8  407.36   31.20
   3   6  -8  439.96   27.60
  -3  -6   8  424.86   27.70
  -3  -6   8  431.96   27.20
  -3  -6   8  404.36   29.30
   2   6  -8  673.83   49.00
  -2  -6   8  669.83   41.10
  -2  -6   8  678.93   41.80
   1   6  -8  422.76   31.20
   1   6  -8  353.26   23.40
  -1  -6   8  342.87   23.50
  -1  -6   8  351.16   24.10
   0   6  -8  291.17   24.20
   0   6  -8  272.57   18.30
   0   6  -8  273.67   26.90
   0  -6   8  276.07   19.70
  -1   6  -8  568.84   33.20
  -1   6  -8  576.64   37.20
  -1   6  -8  468.65   40.00
   1  -6   8  593.14   34.70
   1  -6   8  518.15   33.10
  -2   6  -8  722.03   52.29
  -2   6  -8  728.03   45.40
  -2   6  -8  837.42   49.10
   2  -6   8  768.62   47.10
  -3   6  -8   58.99    7.80
   3  -6   8   67.39    9.60
  -4   6  -8  341.67   28.60
  -4   6  -8  342.97   21.80
   4  -6   8  375.46   24.70
  -5   6  -8  235.78   26.60
  -5   6  -8  323.77   27.50
  -6   6  -8  181.38   25.00
   6  -6   8  178.08   18.60
   7   5  -8  153.48   19.10
   7   5  -8  137.29   12.40
   7   5  -8  125.89   25.80
  -7  -5   8  171.68   19.60
  -7  -5   8  121.79   22.20
   6   5  -8   33.60   12.80
   6   5  -8   58.89    9.40
   6   5  -8   46.50   18.20
   6   5  -8   49.10   10.10
  -6  -5   8   53.09   10.30
  -6  -5   8   49.20   13.70
   5   5  -8  641.04   38.40
   5   5  -8  595.54   36.20
   5   5  -8  559.94   40.30
   5   5  -8  549.65   46.60
  -5  -5   8  611.84   39.60
   4   5  -8  581.34   37.10
   4   5  -8  600.84   45.10
  -4  -5   8  568.64   36.50
  -4  -5   8  595.74   37.60
  -4  -5   8  607.74   38.80
   3   5  -8  129.39   16.20
  -3  -5   8  131.69   14.10
  -3  -5   8  112.99   13.50
  -3  -5   8   82.79   13.10
  -3  -5   8   98.29   12.10
   2   5  -8  238.68   23.30
   2   5  -8  230.88   20.20
   2   5  -8  198.08   16.00
   2   5  -8  237.68   16.00
  -2  -5   8  213.88   15.70
  -2  -5   8  218.08   16.50
  -2  -5   8  227.28   16.30
   1   5  -8  905.41   56.89
   1   5  -8  914.51   53.49
   1   5  -8  928.91   56.79
   1   5  -8  857.51   53.59
  -1  -5   8  875.51   53.59
  -1  -5   8  928.41   54.29
   0   5  -8  695.53   41.50
   0   5  -8  594.94   37.60
   0   5  -8  603.24   37.50
   0   5  -8  636.14   41.70
   0  -5   8  629.54   38.20
   0  -5   8  585.04   37.50
  -1   5  -8   21.70   11.00
  -1   5  -8    0.20    5.10
  -1   5  -8   -0.30    7.00
  -1   5  -8   -1.70   10.30
   1  -5   8   -1.10    7.60
   1  -5   8   -2.10   10.20
   1  -5   8   -1.30    5.50
  -2   5  -8  564.04   33.20
  -2   5  -8  569.74   37.70
  -2   5  -8  505.15   36.30
   2  -5   8  536.15   33.10
   2  -5   8  576.54   34.90
  -3   5  -8  406.66   32.60
  -3   5  -8  483.85   28.20
   3  -5   8  487.95   30.00
  -4   5  -8  107.39   15.80
  -4   5  -8   91.99   18.40
  -4   5  -8  100.59   18.40
   4  -5   8   95.19   15.00
  -5   5  -8   10.30   17.00
  -5   5  -8   -4.80   14.40
  -5   5  -8    5.20    5.90
  -6   5  -8  166.18   26.00
   6  -5   8  212.38   18.90
   7   4  -8  515.45   42.50
   7   4  -8  642.14   40.00
   7   4  -8  641.04   38.10
   7   4  -8  615.24   51.19
  -7  -4   8  669.23   39.70
  -7  -4   8  567.14   42.20
   6   4  -8  317.27   21.10
   6   4  -8  291.57   32.80
   6   4  -8  302.07   23.40
  -6  -4   8  308.37   23.40
  -6  -4   8  331.77   26.60
   5   4  -8    9.80    5.10
   5   4  -8    2.90    9.00
   5   4  -8   18.70   16.50
   5   4  -8    8.40    7.70
  -5  -4   8    8.60    7.20
  -5  -4   8    4.30    8.40
   4   4  -8  194.18   20.40
   4   4  -8  199.38   14.20
  -4  -4   8  235.88   17.00
  -4  -4   8  204.98   17.80
   3   4  -8  897.81   58.89
   3   4  -8  903.21   56.99
   3   4  -8  954.10   54.49
  -3  -4   8  846.62   54.29
  -3  -4   8  919.01   56.09
  -3  -4   8  914.31   54.59
  -3  -4   8  940.61   54.69
   2   4  -8  760.02   50.29
   2   4  -8  840.02   46.60
   2   4  -8  771.42   49.20
   2   4  -8  753.72   46.40
  -2  -4   8  745.23   46.50
  -2  -4   8  796.52   46.30
  -2  -4   8  745.83   45.90
   1   4  -8    4.90    9.20
   1   4  -8   -1.50    5.00
   1   4  -8    4.70    5.80
   1   4  -8    8.70   10.10
  -1  -4   8   -0.80    6.60
  -1  -4   8    6.00    6.00
   0   4  -8 1118.29   69.39
   0   4  -8 1139.89   66.59
   0   4  -8 1159.68   66.49
   0   4  -8 1128.79   69.19
   0  -4   8 1146.09   66.79
   0  -4   8 1035.30   68.39
   0  -4   8 1161.58   66.39
  -1   4  -8 1733.03  100.49
  -1   4  -8 1800.32  103.39
  -1   4  -8 1707.03  102.19
  -1   4  -8 1785.82  100.39
   1  -4   8 1496.45  101.69
   1  -4   8 1779.72  100.89
  -2   4  -8   56.29    8.40
  -2   4  -8   58.19   12.30
   2  -4   8   52.49    6.70
   2  -4   8   64.29   12.00
   2  -4   8   56.29    9.20
  -3   4  -8  280.87   24.20
  -3   4  -8  302.07   18.90
  -3   4  -8  263.87   23.90
   3  -4   8  309.27   21.50
  -4   4  -8  407.16   26.40
  -4   4  -8  346.47   29.80
  -4   4  -8  438.86   30.90
   4  -4   8  415.46   27.10
  -5   4  -8  201.78   21.80
  -5   4  -8  222.68   17.00
   5  -4   8  234.78   20.10
  -6   4  -8   26.30   16.50
  -6   4  -8   12.40    7.20
   6  -4   8   19.30   10.20
   8   3  -8  301.77   36.90
   8   3  -8  344.47   27.10
   8   3  -8  319.27   22.80
  -8  -3   8  331.67   25.70
  -8  -3   8  289.47   29.30
   7   3  -8   -0.60    9.20
   7   3  -8   -8.20    6.60
   7   3  -8    4.60   20.00
   7   3  -8    9.60   10.80
  -7  -3   8   -3.70   10.10
  -7  -3   8   16.90    9.40
   6   3  -8  344.97   24.00
   6   3  -8  327.97   21.90
   6   3  -8  304.87   26.80
   6   3  -8  345.07   35.60
  -6  -3   8  303.47   24.90
  -6  -3   8  361.26   23.80
   5   3  -8 1428.86   84.59
   5   3  -8 1403.86   87.49
  -5  -3   8 1424.26   86.59
  -5  -3   8 1498.05   85.09
   4   3  -8  252.97   26.20
   4   3  -8  211.28   17.10
   4   3  -8  267.27   18.20
   4   3  -8  228.08   15.50
   4   3  -8  234.48   20.80
  -4  -3   8  244.38   19.30
  -4  -3   8  238.48   17.50
   3   3  -8  167.68   21.70
   3   3  -8  146.19   10.70
   3   3  -8  185.78   13.70
   3   3  -8  129.39   13.20
   3   3  -8  159.68   17.30
  -3  -3   8  174.38   14.20
  -3  -3   8  154.78   13.00
  -3  -3   8  151.68   16.50
  -3  -3   8  163.08   14.00
   2   3  -8  529.65   33.50
   2   3  -8  543.65   36.90
   2   3  -8  541.55   39.10
   2   3  -8  585.54   33.90
  -2  -3   8  585.84   33.90
  -2  -3   8  527.95   32.90
  -2  -3   8  537.05   33.60
   1   3  -8 1197.68   74.99
   1   3  -8 1216.58   72.49
   1   3  -8 1142.59   74.79
   1   3  -8 1296.97   72.59
  -1  -3   8 1295.47   72.79
  -1  -3   8 1290.37   72.49
  -1  -3   8 1170.58   74.39
   0   3  -8   56.89   11.80
   0   3  -8   80.89   16.70
   0   3  -8   39.90    6.40
   0   3  -8   54.09    8.60
   0  -3   8   58.69    8.90
   0  -3   8   42.70    6.80
   0  -3   8   30.40   10.40
  -1   3  -8  148.49   11.90
  -1   3  -8  146.89   13.00
  -1   3  -8  146.89   17.80
   1  -3   8  142.09   11.90
   1  -3   8  154.38   16.30
   1  -3   8  150.18   12.80
  -2   3  -8  530.15   31.50
  -2   3  -8  530.15   32.10
  -2   3  -8  521.65   35.90
   2  -3   8  453.95   31.70
   2  -3   8  552.44   32.50
  -3   3  -8  737.43   48.00
  -3   3  -8  749.73   47.40
  -3   3  -8  703.13   44.60
   3  -3   8  764.12   45.20
  -4   3  -8    2.10    6.50
  -4   3  -8  -18.70   11.80
  -4   3  -8  -11.20   12.60
   4  -3   8    8.30    8.30
  -5   3  -8  152.38   23.30
  -5   3  -8  180.78   15.20
   5  -3   8  170.88   16.10
  -6   3  -8  205.58   26.10
  -6   3  -8  229.18   18.50
   6  -3   8  237.88   20.30
   8   2  -8  491.55   32.20
   8   2  -8  502.25   46.80
   8   2  -8  521.95   34.80
  -8  -2   8  506.35   33.70
  -8  -2   8  456.15   35.50
   7   2  -8  714.73   42.90
   7   2  -8  624.84   44.00
   7   2  -8  706.03   41.60
   7   2  -8  657.13   52.09
  -7  -2   8  724.03   42.60
  -7  -2   8  625.54   44.30
   6   2  -8   74.99   16.20
   6   2  -8   91.89   17.50
   6   2  -8   79.19    9.10
   5   2  -8  163.38   12.30
   5   2  -8  157.98   24.70
   5   2  -8  144.49   18.80
   5   2  -8  174.88   14.40
   5   2  -8  141.79   11.80
  -5  -2   8  150.08   15.90
  -5  -2   8  185.78   14.40
   4   2  -8 1665.43   92.99
   4   2  -8 1557.44   92.49
   4   2  -8 1556.04   95.59
   4   2  -8 1524.15   96.59
  -4  -2   8 1698.53   93.09
  -4  -2   8 1552.24   94.49
  -4  -2   8 1512.65   93.19
   3   2  -8  667.23   41.30
   3   2  -8  498.05   36.30
   3   2  -8  607.14   36.10
   3   2  -8  548.55   35.10
   3   2  -8  598.94   39.40
  -3  -2   8  616.44   37.90
  -3  -2   8  588.74   35.90
  -3  -2   8  593.04   36.10
  -3  -2   8  605.84   36.30
   2   2  -8    2.40    6.10
   2   2  -8   10.20    3.90
   2   2  -8   11.90    6.50
   2   2  -8   31.40   10.60
   2   2  -8    0.90    5.20
  -2  -2   8   33.50    9.50
  -2  -2   8   14.70    3.90
  -2  -2   8   12.30    5.10
  -2  -2   8    4.10    5.80
   1   2  -8  145.39   12.80
   1   2  -8  147.19   19.00
   1   2  -8  134.59   17.50
   1   2  -8  139.79   12.30
  -1  -2   8  162.88   12.60
  -1  -2   8  145.49   12.00
  -1  -2   8  144.39   16.10
   0   2  -8 1328.67   80.49
   0   2  -8 1282.67   77.79
   0   2  -8 1330.67   77.69
   0  -2   8 1326.67   77.69
   0  -2   8 1333.47   79.29
   0  -2   8 1330.07   77.89
  -1   2  -8  822.52   51.09
  -1   2  -8  789.02   47.40
  -1   2  -8  806.02   47.20
   1  -2   8  794.52   47.30
   1  -2   8  735.53   48.50
   1  -2   8  809.02   47.80
  -2   2  -8   20.60    5.60
  -2   2  -8   19.80    6.50
  -2   2  -8   23.30   12.40
   2  -2   8    7.30    6.70
   2  -2   8   15.50    7.80
  -3   2  -8  485.05   36.20
  -3   2  -8  547.75   36.20
   3  -2   8  529.95   32.70
   3  -2   8  551.64   33.30
  -4   2  -8  659.73   49.80
  -4   2  -8  840.52   47.60
  -4   2  -8  817.02   51.29
   4  -2   8  819.32   48.60
  -5   2  -8   15.10   12.20
  -5   2  -8   37.70   16.00
  -5   2  -8   32.60    8.10
   5  -2   8   29.90   10.40
  -6   2  -8   86.49   13.00
   6  -2   8   75.29   13.60
   9   1  -8  275.47   20.60
   9   1  -8  323.07   28.40
  -9  -1   8  299.87   24.90
  -9  -1   8  267.97   28.30
   8   1  -8   74.99   12.10
   8   1  -8   72.79   10.80
  -8  -1   8   82.99   12.00
  -8  -1   8   55.99   13.40
   7   1  -8  121.69   11.60
   7   1  -8  110.49   17.80
  -7  -1   8  119.29   14.90
  -7  -1   8  114.89   16.80
   6   1  -8 1257.37   73.19
   6   1  -8 1221.88   75.39
   6   1  -8 1207.08   72.79
   5   1  -8  587.64   40.10
   5   1  -8  597.14   36.60
   5   1  -8  584.24   37.30
   5   1  -8  661.63   44.10
  -5  -1   8  610.04   39.20
  -5  -1   8  603.04   37.30
   4   1  -8   26.50    6.30
   4   1  -8   14.30    6.30
   4   1  -8   26.80    4.90
   4   1  -8   31.70   10.70
   4   1  -8   37.90   13.50
  -4  -1   8   13.60    6.50
  -4  -1   8   34.90   10.50
  -4  -1   8   16.40    6.50
   3   1  -8  556.44   32.60
   3   1  -8  492.65   33.20
   3   1  -8  499.35   37.70
   3   1  -8  525.25   31.70
   3   1  -8  512.75   35.90
  -3  -1   8  535.05   32.40
  -3  -1   8  515.15   34.20
  -3  -1   8  571.14   32.50
  -3  -1   8  525.25   32.40
   2   1  -8 1513.45   89.69
   2   1  -8 1414.46   86.99
   2   1  -8 1537.45   87.09
  -2  -1   8 1442.66   88.59
  -2  -1   8 1557.44   87.09
  -2  -1   8 1424.66   86.79
   1   1  -8  382.46   23.10
   1   1  -8  355.76   23.00
   1   1  -8  366.66   27.30
  -1  -1   8  340.87   21.40
  -1  -1   8  342.27   26.20
  -1  -1   8  363.86   23.40
  -1  -1   8  366.56   23.10
   0   1  -8   -8.80    5.90
   0   1  -8   12.50   10.70
   0   1  -8   -2.70    5.40
   0  -1   8    3.50    5.70
   0  -1   8   -2.30    5.90
   0  -1   8   -8.20    8.20
  -1   1  -8  805.02   50.89
  -1   1  -8  774.22   47.90
  -1   1  -8  840.82   47.90
   1  -1   8  816.12   48.20
   1  -1   8  735.53   48.80
   1  -1   8  833.92   48.10
  -2   1  -8  977.50   64.19
  -2   1  -8 1069.89   63.79
  -2   1  -8 1064.29   61.69
   2  -1   8 1025.80   61.89
   2  -1   8 1065.19   61.89
  -3   1  -8   27.40    6.60
  -3   1  -8    7.20   11.40
  -3   1  -8   26.60   10.30
   3  -1   8   22.60    8.60
   3  -1   8   22.80    7.10
  -4   1  -8   77.99   12.60
  -4   1  -8  100.69   19.40
   4  -1   8   92.59   12.60
  -5   1  -8  357.16   22.90
  -5   1  -8  295.77   30.00
   5  -1   8  316.17   25.90
   5  -1   8  266.37   21.70
   9   0  -8  139.19   14.70
   9   0  -8  137.79   20.00
  -9   0   8  132.19   18.80
  -9   0   8  119.19   20.30
   8   0  -8  654.63   41.00
  -8   0   8  679.23   41.80
  -8   0   8  642.34   44.30
   7   0  -8  361.16   27.60
   7   0  -8  368.26   25.70
   7   0  -8  358.06   23.80
  -7   0   8  361.46   25.20
  -7   0   8  363.96   27.60
   6   0  -8   70.19   11.40
   6   0  -8   65.49    9.50
   6   0  -8   52.59   12.00
  -6   0   8   71.29    9.50
  -6   0   8   57.59   12.60
   5   0  -8  496.45   30.00
   5   0  -8  456.55   28.90
   5   0  -8  436.26   32.70
  -5   0   8  505.15   29.70
  -5   0   8  454.45   31.60
   4   0  -8 1217.58   71.69
   4   0  -8 1244.48   74.19
   4   0  -8 1197.58   71.19
  -4   0   8 1255.67   71.59
  -4   0   8 1140.09   72.99
   3   0  -8  286.27   18.60
   3   0  -8  319.57   20.10
   3   0  -8  256.47   23.90
  -3   0   8  285.07   21.60
  -3   0   8  295.37   19.90
  -3   0   8  305.87   19.40
   2   0  -8  260.07   17.00
   2   0  -8  272.27   23.10
   2   0  -8  286.97   18.30
  -2   0   8  219.68   23.10
  -2   0   8  253.07   17.00
  -2   0   8  266.27   17.60
  -2   0   8  282.87   18.30
   1   0  -8  963.20   58.69
   1   0  -8 1057.39   58.89
   1   0  -8  997.60   61.79
  -1   0   8  904.51   60.79
  -1   0   8  997.30   58.69
  -1   0   8  969.80   58.09
  -1   0   8 1054.49   58.89
   0   0  -8 1082.99   61.99
   0   0  -8 1036.30   64.89
   0   0  -8 1010.60   62.09
   0   0   8 1039.30   61.99
   0   0   8 1025.90   63.59
   0   0   8 1086.99   62.09
  -1   0  -8    5.80    6.10
  -1   0  -8   -2.10    5.80
  -1   0  -8    6.60   11.50
   1   0   8    3.70    6.50
   1   0   8   12.50    5.90
   1   0   8    9.80    7.60
  -2   0  -8  417.16   27.70
  -2   0  -8  355.76   28.20
   2   0   8  410.36   25.30
   2   0   8  359.76   23.50
  -3   0  -8  571.34   34.80
  -3   0  -8  498.05   36.60
  -3   0  -8  588.14   38.30
   3   0   8  542.85   34.50
   3   0   8  560.54   35.00
  -4   0  -8  247.28   25.00
  -4   0  -8  222.98   18.90
   4   0   8  205.48   21.90
   4   0   8  244.28   18.50
  -5   0  -8    5.20    9.40
  -5   0  -8   -8.80   16.00
   9  -1  -8  256.77   19.60
   9  -1  -8  274.47   29.30
  -9   1   8  240.28   25.00
  -9   1   8  256.87   22.70
   8  -1  -8   33.70    9.10
   8  -1  -8    0.60    8.50
  -8   1   8   24.90   10.00
  -8   1   8   13.30   11.80
   7  -1  -8  641.74   44.60
   7  -1  -8  729.63   43.20
   7  -1  -8  687.43   42.70
  -7   1   8  692.53   45.40
  -7   1   8  735.43   43.50
   6  -1  -8 1331.67   77.89
   6  -1  -8 1298.17   79.89
   6  -1  -8 1286.07   77.69
  -6   1   8 1247.38   81.19
  -6   1   8 1404.26   78.39
   5  -1  -8  176.88   13.20
   5  -1  -8  147.09   18.30
   5  -1  -8  175.78   14.60
  -5   1   8  165.08   16.50
  -5   1   8  171.68   13.90
   4  -1  -8  704.73   40.10
   4  -1  -8  573.34   41.00
   4  -1  -8  670.23   39.60
   4  -1  -8  646.54   42.90
  -4   1   8  694.93   39.90
  -4   1   8  658.73   39.40
  -4   1   8  632.24   41.40
   3  -1  -8 1335.57   76.79
   3  -1  -8 1331.17   76.49
   3  -1  -8 1313.07   79.39
  -3   1   8 1282.57   76.39
  -3   1   8 1268.47   76.29
  -3   1   8 1196.98   78.09
  -3   1   8 1374.26   76.79
   2  -1  -8  574.14   34.70
   2  -1  -8  588.34   38.40
   2  -1  -8  574.24   34.10
  -2   1   8  544.45   34.00
  -2   1   8  550.24   33.80
  -2   1   8  551.34   34.60
   1  -1  -8   20.00    9.80
   1  -1  -8   -2.30    6.90
  -1   1   8   -0.10    6.50
  -1   1   8    8.00    5.80
  -1   1   8   20.10    9.80
  -1   1   8   16.40    4.40
   0  -1  -8  225.68   20.60
   0  -1  -8  228.38   15.70
   0   1   8  188.78   19.20
   0   1   8  217.48   16.30
   0   1   8  219.38   14.90
   0   1   8  214.78   15.80
  -1  -1  -8  560.44   36.20
  -1  -1  -8  572.24   34.40
  -1  -1  -8  512.25   37.50
   1   1   8  574.04   35.10
   1   1   8  570.24   33.80
   1   1   8  558.44   36.10
   1   1   8  558.84   34.30
  -2  -1  -8  595.14   43.30
  -2  -1  -8  675.43   41.60
  -2  -1  -8  682.83   43.10
   2   1   8  662.73   41.20
   2   1   8  724.73   40.50
  -3  -1  -8   21.10   12.80
  -3  -1  -8    2.00    7.40
   3   1   8    5.00    6.30
   3   1   8   -5.20    8.10
   3   1   8   -7.50    8.40
  -4  -1  -8  533.95   37.80
  -4  -1  -8  513.25   32.80
   4   1   8  442.76   32.60
   4   1   8  471.75   32.50
  -5  -1  -8  391.86   27.70
  -5  -1  -8  315.57   33.30
   9  -2  -8  357.46   25.90
  -9   2   8  376.16   31.00
  -9   2   8  395.16   27.20
   8  -2  -8  268.57   19.60
   8  -2  -8  258.07   20.80
  -8   2   8  259.37   21.30
  -8   2   8  262.57   24.20
   7  -2  -8   78.39   12.80
   7  -2  -8   69.69   10.20
   7  -2  -8   59.99   12.00
  -7   2   8   74.09    9.60
  -7   2   8  100.49   15.60
   6  -2  -8  247.38   17.40
   6  -2  -8  238.88   21.70
   6  -2  -8  258.57   19.50
  -6   2   8  237.98   22.50
   5  -2  -8 1006.30   58.89
   5  -2  -8  996.20   61.59
   5  -2  -8  985.40   58.99
  -5   2   8  960.30   60.59
  -5   2   8  981.60   58.79
   4  -2  -8  638.24   39.50
   4  -2  -8  551.64   36.60
   4  -2  -8  646.74   36.00
   4  -2  -8  578.54   36.20
  -4   2   8  609.64   37.90
  -4   2   8  513.15   36.90
  -4   2   8  563.04   35.30
   3  -2  -8    9.70   11.00
   3  -2  -8   -0.60    6.60
   3  -2  -8    2.70    6.30
   3  -2  -8   -0.90    6.60
  -3   2   8   -7.60    6.50
  -3   2   8   13.40    4.70
  -3   2   8   13.40    5.50
  -3   2   8    7.70    8.80
   2  -2  -8 1042.60   68.09
   2  -2  -8 1180.28   67.79
   2  -2  -8 1093.89   70.49
  -2   2   8 1085.39   67.29
  -2   2   8 1166.28   67.79
  -2   2   8 1299.67   69.09
   1  -2  -8  812.32   52.89
   1  -2  -8  863.01   49.90
  -1   2   8  876.91   49.99
  -1   2   8  757.82   49.30
  -1   2   8  847.32   49.50
   0  -2  -8  113.59   13.60
   0  -2  -8  105.89   11.50
   0  -2  -8  109.39   17.10
   0   2   8  104.99   10.30
   0   2   8  102.79   17.70
   0   2   8  103.59   11.00
   0   2   8  119.99   12.10
  -1  -2  -8   63.79   10.10
  -1  -2  -8   46.20   12.40
   1   2   8   59.19    8.00
   1   2   8   54.59    7.40
   1   2   8   52.49    8.60
  -2  -2  -8  694.23   42.30
   2   2   8  695.43   41.70
   2   2   8  693.93   42.10
   2   2   8  638.74   41.50
  -3  -2  -8  271.87   25.50
  -3  -2  -8  240.58   20.50
   3   2   8  245.18   20.60
   3   2   8  245.78   19.60
   3   2   8  237.78   18.70
  -4  -2  -8   10.50   10.40
  -4  -2  -8    0.30   16.40
   4   2   8   30.20   10.10
   4   2   8   -3.20   12.50
   9  -3  -8    5.70    8.30
  -9   3   8    3.30   14.00
  -9   3   8   13.80   10.70
   8  -3  -8  313.37   22.60
   8  -3  -8  348.17   24.40
  -8   3   8  304.67   27.10
  -8   3   8  324.97   23.90
   7  -3  -8  850.21   52.69
   7  -3  -8  872.31   52.89
  -7   3   8  878.81   55.29
  -7   3   8  876.21   52.89
   6  -3  -8  345.77   23.60
   6  -3  -8  377.46   25.10
   6  -3  -8  343.07   22.50
   6  -3  -8  369.56   26.80
   5  -3  -8   83.99   11.10
   5  -3  -8   95.79   13.50
   5  -3  -8   86.79   15.00
  -5   3   8   95.49   11.50
  -5   3   8   95.29   13.60
   4  -3  -8  719.33   43.20
   4  -3  -8  778.82   44.00
   4  -3  -8  697.13   46.20
  -4   3   8  723.63   43.00
  -4   3   8  758.32   43.30
  -4   3   8  675.03   42.70
  -4   3   8  644.24   44.80
   3  -3  -8  969.70   53.69
   3  -3  -8  758.12   53.49
   3  -3  -8  925.61   53.49
   3  -3  -8  901.21   56.39
  -3   3   8  828.32   54.99
  -3   3   8  930.01   53.29
  -3   3   8  988.40   53.69
  -3   3   8  851.21   52.79
   2  -3  -8  245.98   22.30
   2  -3  -8  245.48   17.60
  -2   3   8  243.98   16.90
  -2   3   8  255.57   17.50
  -2   3   8  207.38   15.80
   1  -3  -8  155.48   15.70
   1  -3  -8  158.98   18.90
   1  -3  -8  175.58   13.90
  -1   3   8  125.79   12.90
  -1   3   8  178.58   14.00
  -1   3   8  156.18   13.10
   0  -3  -8  903.01   51.09
   0  -3  -8  786.52   52.19
   0   3   8  914.41   51.19
   0   3   8  741.83   50.39
   0   3   8  900.51   51.29
  -1  -3  -8  491.45   33.00
  -1  -3  -8  513.65   31.50
   1   3   8  448.36   30.60
   1   3   8  502.95   31.00
  -2  -3  -8   52.99   17.50
  -2  -3  -8   20.30    8.70
   2   3   8   27.20    9.00
   2   3   8   38.90    8.30
  -3  -3  -8  179.58   18.30
  -3  -3  -8  225.38   24.60
   3   3   8  161.78   17.00
   3   3   8  204.48   20.20
  -4  -3  -8  339.47   26.50
  -4  -3  -8  338.67   36.60
   4   3   8  335.77   24.90
   4   3   8  306.27   34.60
   9  -4  -8  319.97   24.60
  -9   4   8  378.46   31.10
  -9   4   8  353.86   26.60
   8  -4  -8  247.78   27.00
   8  -4  -8  148.19   15.80
  -8   4   8  185.58   21.30
  -8   4   8  193.98   16.80
   7  -4  -8   44.70    9.00
   7  -4  -8   48.60   10.00
  -7   4   8   45.90   10.10
  -7   4   8   50.39   12.50
   6  -4  -8  746.53   43.70
   6  -4  -8  650.23   42.30
   6  -4  -8  681.43   43.10
  -6   4   8  730.23   43.00
   5  -4  -8  751.52   44.90
   5  -4  -8  729.23   44.30
  -5   4   8  767.12   44.50
  -5   4   8  665.43   45.70
  -5   4   8  706.73   43.20
   4  -4  -8   22.20    6.70
   4  -4  -8   37.20    8.80
   4  -4  -8   44.30    8.40
  -4   4   8   32.70    9.60
  -4   4   8   23.10    7.40
  -4   4   8   51.39    7.70
  -4   4   8   33.30    5.60
   3  -4  -8  305.97   21.60
   3  -4  -8  332.87   22.20
  -3   4   8  330.07   22.00
  -3   4   8  316.57   21.80
   2  -4  -8  722.73   50.39
   2  -4  -8  871.81   50.39
  -2   4   8  880.21   50.39
  -2   4   8  867.31   50.29
   1  -4  -8  329.87   24.20
   1  -4  -8  349.37   23.10
  -1   4   8  336.37   23.10
  -1   4   8  340.97   22.80
   0  -4  -8   14.70    8.50
   0   4   8   11.60    7.20
  -1  -4  -8  185.58   16.90
  -1  -4  -8  204.78   20.50
   1   4   8  193.28   17.80
   1   4   8  148.89   18.20
   1   4   8  189.38   16.60
  -2  -4  -8  301.77   28.70
  -2  -4  -8  337.17   24.40
   2   4   8  337.57   25.30
  -3  -4  -8  119.99   17.50
  -3  -4  -8  122.59   22.00
   3   4   8  138.29   20.00
   3   4   8  128.49   19.30
   9  -5  -8   78.29   12.40
  -9   5   8   72.79   16.60
  -9   5   8   81.69   12.30
   8  -5  -8  553.44   38.80
  -8   5   8  650.53   38.90
  -8   5   8  627.34   42.60
   7  -5  -8  207.58   17.10
   7  -5  -8  214.88   19.40
  -7   5   8  193.28   18.40
  -7   5   8  210.48   21.80
   6  -5  -8   63.19   10.00
   6  -5  -8   65.19   10.50
   6  -5  -8   51.49    9.50
  -6   5   8   72.89   11.40
  -6   5   8   59.59   14.10
  -6   5   8   59.29   10.30
   5  -5  -8  396.16   27.70
   5  -5  -8  447.76   28.10
   5  -5  -8  443.36   28.90
  -5   5   8  362.56   29.00
  -5   5   8  462.55   27.80
   4  -5  -8 1170.68   66.19
   4  -5  -8 1103.09   66.69
   4  -5  -8 1098.79   66.29
  -4   5   8  995.60   67.69
  -4   5   8 1157.98   65.89
   3  -5  -8  158.18   14.70
   3  -5  -8  161.28   14.00
   3  -5  -8  124.29   12.40
  -3   5   8  163.48   13.50
   2  -5  -8   -9.50    6.20
   2  -5  -8   -6.90    7.70
  -2   5   8  -14.80    6.50
   1  -5  -8  549.85   35.60
   1  -5  -8  475.35   34.80
  -1   5   8  574.84   34.20
  -1   5   8  550.24   34.60
   0  -5  -8  515.05   39.40
   0  -5  -8  647.94   38.90
   0   5   8  669.03   43.10
   0   5   8  618.04   39.20
  -1  -5  -8   33.50   12.20
  -1  -5  -8   44.70   10.30
   1   5   8   53.79   13.90
   1   5   8   52.19   11.50
   1   5   8   24.20   10.80
  -2  -5  -8   26.00   16.90
  -2  -5  -8   11.80   11.00
   2   5   8   15.30   12.00
   2   5   8   26.80   12.50
  -9   6   8  100.19   13.20
  -9   6   8  106.59   21.10
   8  -6  -8   27.30    9.80
  -8   6   8    6.70   10.80
  -8   6   8    1.70   17.20
  -8   6   8   18.00   12.00
   7  -6  -8  223.18   19.60
  -7   6   8  255.27   21.20
  -7   6   8  237.58   23.90
  -7   6   8  272.57   21.50
   6  -6  -8  519.35   37.00
   6  -6  -8  646.64   37.00
   6  -6  -8  599.04   37.70
  -6   6   8  606.44   37.50
  -6   6   8  490.15   39.00
  -6   6   8  614.84   36.90
   5  -6  -8  166.88   16.30
   5  -6  -8  202.18   17.90
   5  -6  -8  212.48   16.60
  -5   6   8  192.48   17.50
  -5   6   8  174.08   18.20
  -5   6   8  148.49   17.40
   4  -6  -8    7.40    9.10
   4  -6  -8   13.80    9.20
   4  -6  -8    9.70    7.80
  -4   6   8    5.70   10.20
  -4   6   8   16.10    9.00
   3  -6  -8  726.43   44.20
  -3   6   8  694.43   45.60
  -3   6   8  718.13   44.80
   2  -6  -8  472.05   30.60
  -2   6   8  450.25   31.00
  -2   6   8  487.55   31.60
   1  -6  -8   19.50   10.30
  -1   6   8    0.50   10.30
   0  -6  -8   74.79   11.80
   0   6   8  109.49   16.90
   0   6   8   55.49   21.30
   0   6   8   87.19   12.60
  -1  -6  -8  389.56   28.60
   1   6   8  357.46   29.60
  -2  -6  -8   64.59   12.70
   2   6   8   32.40   13.70
   8  -7  -8  333.47   27.50
  -8   7   8  431.96   29.00
  -8   7   8  372.76   34.40
  -8   7   8  435.46   31.60
   7  -7  -8   60.19   11.30
  -7   7   8   54.39   11.70
  -7   7   8   64.19   16.90
  -7   7   8   53.69   13.40
   6  -7  -8  186.58   15.60
   6  -7  -8  122.89   16.20
  -6   7   8  173.28   18.60
  -6   7   8  197.38   20.80
   5  -7  -8  456.45   29.10
   5  -7  -8  352.66   28.90
  -5   7   8  443.56   29.00
  -5   7   8  459.25   29.90
   4  -7  -8  333.57   23.80
   4  -7  -8  254.97   23.10
   4  -7  -8  346.17   25.90
  -4   7   8  324.37   23.30
  -4   7   8  303.27   23.90
   3  -7  -8    2.00   10.70
   3  -7  -8    6.50    8.50
  -3   7   8  -12.40    9.80
  -3   7   8   17.60   11.60
   2  -7  -8  182.08   22.00
  -2   7   8  167.98   18.00
   1  -7  -8  420.26   30.30
  -1   7   8  408.36   29.50
  -1   7   8  381.96   30.30
   0  -7  -8  244.28   23.20
   0   7   8  215.48   29.50
   0   7   8  225.98   24.50
  -1  -7  -8   11.50   12.60
   8  -8  -8   53.39   11.90
  -8   8   8   41.50   19.60
   7  -8  -8  207.38   19.60
  -7   8   8  202.08   22.70
   6  -8  -8  293.57   23.00
   6  -8  -8  219.08   20.90
  -6   8   8  307.97   23.30
  -6   8   8  207.98   25.60
  -6   8   8  275.57   24.20
   5  -8  -8    5.90   10.60
   5  -8  -8    7.10   10.40
  -5   8   8   11.50   11.20
  -5   8   8   10.30   10.60
   4  -8  -8  292.17   25.40
  -4   8   8  317.07   24.30
  -4   8   8  322.77   25.20
   3  -8  -8  379.56   30.80
  -3   8   8  417.56   29.50
   2  -8  -8   89.59   19.30
   2  -8  -8   83.39   13.80
  -2   8   8   86.99   14.40
  -2   8   8  100.09   13.80
   1  -8  -8   19.00   13.00
   1  -8  -8   21.20   13.90
  -1   8   8   21.90   12.10
  -1   8   8   -5.30   22.20
  -1   8   8    0.70   12.30
   6  -9  -8  139.59   17.70
   6  -9  -8  114.99   15.80
  -6   9   8  129.79   16.90
  -6   9   8  146.29   21.50
   5  -9  -8  235.98   23.70
  -5   9   8  237.08   23.90
   4  -9  -8  141.69   20.40
  -4   9   8  154.78   23.50
   3  -9  -8   49.40   14.40
  -3   9   8   71.19   15.20
   0  10  -9    3.50   20.80
   0  10  -9    1.00    9.30
   0 -10   9   -8.70    9.40
  -1  10  -9  311.97   24.90
  -1  10  -9  356.46   41.10
   1 -10   9  394.76   26.20
  -3  -9   9   98.49   15.40
   2   9  -9   47.80   22.30
   2   9  -9   54.19   10.50
   2   9  -9   28.00   16.10
  -2  -9   9   54.39   10.10
   1   9  -9  255.17   27.60
   1   9  -9  285.07   24.10
   1   9  -9  249.18   35.50
   0   9  -9  222.58   27.80
   0   9  -9  266.27   36.00
   0   9  -9  237.78   19.30
  -1   9  -9   64.99    9.60
  -1   9  -9   69.89   20.10
  -1   9  -9   63.29   18.00
  -2   9  -9   85.99   19.40
  -2   9  -9   72.99   11.70
  -2   9  -9   62.09   17.90
   2  -9   9  101.09   15.50
  -3   9  -9  278.27   32.80
   3  -9   9  387.36   26.80
   4   8  -9   83.09   17.40
   4   8  -9   87.39   22.30
   3   8  -9  400.26   28.10
   3   8  -9  376.36   41.20
   3   8  -9  384.86   33.60
   2   8  -9  384.46   26.40
   2   8  -9  343.27   31.90
   2   8  -9  354.46   38.60
  -2  -8   9  402.46   26.80
   1   8  -9   -6.00   17.60
   1   8  -9    6.60   14.30
   1   8  -9   13.80    8.40
  -1  -8   9    6.40    9.40
   0   8  -9  302.97   30.30
   0   8  -9  318.07   33.50
   0   8  -9  324.47   23.10
   0  -8   9  378.36   24.90
  -1   8  -9  354.86   31.60
  -1   8  -9  347.87   24.20
  -1   8  -9  322.27   37.60
   1  -8   9  380.66   26.10
  -2   8  -9  212.88   26.20
  -2   8  -9  197.98   16.00
  -2   8  -9  179.28   22.80
   2  -8   9  221.18   19.30
  -3   8  -9    1.80   18.00
   3  -8   9    2.30    9.50
  -4   8  -9  213.78   32.90
  -4   8  -9  258.77   28.40
   4  -8   9  330.07   23.80
   5   7  -9  418.46   30.30
   5   7  -9  331.97   38.10
   5   7  -9  347.07   34.20
  -5  -7   9  425.96   29.60
  -5  -7   9  435.06   29.10
   4   7  -9  123.59   22.00
   4   7  -9  123.79   18.30
   4   7  -9  134.69   24.50
   3   7  -9   34.90   14.20
   3   7  -9   13.00   19.00
   3   7  -9   31.70    9.70
  -3  -7   9   32.00    8.90
  -3  -7   9   18.20    8.20
   2   7  -9  273.27   31.60
   2   7  -9  260.27   20.40
   2   7  -9  262.07   26.10
  -2  -7   9  269.87   20.20
  -2  -7   9  249.78   25.50
   1   7  -9  653.83   46.10
   1   7  -9  645.94   40.80
   1   7  -9  667.63   48.00
  -1  -7   9  681.03   41.90
   0   7  -9  178.58   15.60
   0   7  -9  216.18   23.80
   0  -7   9  201.78   18.10
  -1   7  -9    6.10    7.30
  -1   7  -9   11.70   14.50
  -1   7  -9   15.10   13.00
   1  -7   9   -2.60    8.20
  -2   7  -9  482.25   40.10
  -2   7  -9  566.24   33.50
  -2   7  -9  527.45   38.30
   2  -7   9  574.34   35.00
  -3   7  -9  425.06   36.20
  -3   7  -9  463.45   28.00
  -4   7  -9   12.60   16.60
  -4   7  -9  -10.40   19.30
   4  -7   9  -11.70    9.30
  -5   7  -9   73.89   19.70
   5  -7   9   58.39   12.00
   6   6  -9  172.28   13.50
   6   6  -9  131.39   24.90
   6   6  -9  148.39   27.70
  -6  -6   9  124.59   20.40
  -6  -6   9  142.39   21.90
   5   6  -9   13.90   14.10
   5   6  -9   -1.50   18.30
   5   6  -9   -8.30    9.80
  -5  -6   9    8.10   14.50
  -5  -6   9   -9.60   10.70
   4   6  -9  739.33   55.69
   4   6  -9  786.62   47.10
   4   6  -9  697.43   50.49
  -4  -6   9  792.72   46.90
  -4  -6   9  785.52   46.70
  -4  -6   9  731.73   50.39
   3   6  -9  593.74   45.40
   3   6  -9  594.84   36.60
   3   6  -9  578.44   41.00
  -3  -6   9  583.94   36.70
  -3  -6   9  551.84   36.60
   2   6  -9   17.90    7.20
   2   6  -9   42.20   16.10
   2   6  -9   25.80   13.20
  -2  -6   9   16.00    8.50
  -2  -6   9   15.00    8.10
   1   6  -9   80.59   11.20
   1   6  -9   49.40   12.70
   1   6  -9   70.89   14.80
  -1  -6   9   66.99    9.00
  -1  -6   9   78.19   12.80
   0   6  -9  727.73   50.19
   0   6  -9  772.92   49.90
   0   6  -9  778.12   46.40
   0  -6   9  702.03   45.60
   0  -6   9  778.72   46.10
  -1   6  -9  295.87   26.00
  -1   6  -9  266.87   27.00
   1  -6   9  310.07   21.30
  -2   6  -9    2.30   15.10
  -2   6  -9   -6.50    8.50
  -2   6  -9  -12.60   11.90
   2  -6   9   13.50    8.30
  -3   6  -9  116.09   22.00
  -3   6  -9   99.99   11.10
   3  -6   9  104.99   13.70
  -4   6  -9  602.34   35.20
  -4   6  -9  550.54   41.80
   4  -6   9  575.64   38.80
  -5   6  -9   68.69   17.40
   5  -6   9  111.49   17.70
   7   5  -9   46.70    8.00
  -7  -5   9   41.90   15.40
  -7  -5   9   44.20   12.70
   6   5  -9  427.66   27.50
   6   5  -9  407.96   36.40
   6   5  -9  445.26   31.20
   6   5  -9  442.66   44.00
  -6  -5   9  407.76   32.60
  -6  -5   9  450.05   31.30
   5   5  -9  451.95   42.20
   5   5  -9  416.16   27.60
   5   5  -9  419.46   34.50
   5   5  -9  480.55   31.50
  -5  -5   9  445.96   30.50
  -5  -5   9  440.86   33.70
  -5  -5   9  465.15   30.50
   4   5  -9   89.99   19.80
   4   5  -9   66.39   14.60
   4   5  -9   94.79   14.10
  -4  -5   9   83.59   14.70
  -4  -5   9   87.89   12.50
  -4  -5   9   92.89   13.90
   3   5  -9  233.68   18.50
   3   5  -9  205.28   22.80
   3   5  -9  229.68   27.90
  -3  -5   9  218.58   18.00
  -3  -5   9  213.18   17.20
   2   5  -9  780.82   47.00
   2   5  -9  757.22   50.69
   2   5  -9  736.53   50.19
  -2  -5   9  774.32   46.50
  -2  -5   9  738.83   46.10
   1   5  -9  561.54   39.40
  -1  -5   9  572.24   35.10
  -1  -5   9  548.05   34.60
   0   5  -9   -6.20   11.80
   0  -5   9   -7.50    7.90
   0  -5   9    7.70    7.00
  -1   5  -9  383.36   30.50
   1  -5   9  406.16   26.30
  -2   5  -9  514.25   39.90
   2  -5   9  610.24   36.40
  -3   5  -9  211.18   15.80
  -3   5  -9  201.98   26.30
   3  -5   9  208.48   17.70
  -4   5  -9    3.70    6.90
  -4   5  -9   -1.50   17.50
  -4   5  -9   12.80   15.00
  -5   5  -9  255.27   18.60
  -5   5  -9  223.48   26.80
   5  -5   9  255.27   21.00
   7   4  -9  258.77   24.00
   7   4  -9  221.48   34.80
   7   4  -9  224.38   28.70
   7   4  -9  255.27   17.90
  -7  -4   9  271.77   23.10
  -7  -4   9  247.88   25.30
   6   4  -9   16.10   20.60
   6   4  -9   10.30   15.20
   6   4  -9   21.80    9.80
   6   4  -9   26.20    6.40
  -6  -4   9   -0.10    9.90
  -6  -4   9   13.20   12.00
   5   4  -9  280.77   30.90
   5   4  -9  272.97   18.10
   5   4  -9  255.67   25.80
   5   4  -9  299.47   21.90
  -5  -4   9  249.28   23.20
   4   4  -9  683.73   42.10
   4   4  -9  670.23   49.30
  -4  -4   9  710.73   41.60
  -4  -4   9  663.33   41.60
  -4  -4   9  644.94   44.00
   3   4  -9  325.17   31.00
  -3  -4   9  347.57   26.90
  -3  -4   9  371.16   24.30
  -3  -4   9  362.26   23.70
   2   4  -9  -21.70   12.40
   2   4  -9    2.70   11.50
   2   4  -9    7.30    8.00
  -2  -4   9   14.90    7.60
  -2  -4   9    9.10    6.60
   1   4  -9  752.32   49.50
   1   4  -9  758.62   44.90
   1   4  -9  705.73   45.10
   1   4  -9  729.23   48.80
  -1  -4   9  752.22   44.80
  -1  -4   9  764.72   45.50
   0   4  -9  690.93   42.00
   0   4  -9  701.13   46.40
   0   4  -9  714.63   45.80
   0  -4   9  667.73   42.20
   0  -4   9  705.13   42.80
  -1   4  -9   83.39   12.20
   1  -4   9  113.79   13.10
   1  -4   9   70.79   10.50
   2  -4   9   97.09   14.00
  -3   4  -9  360.76   34.40
  -3   4  -9  393.96   31.30
  -3   4  -9  449.36   26.70
   3  -4   9  434.36   27.80
  -4   4  -9  322.17   21.20
  -4   4  -9  280.57   27.80
   4  -4   9  314.37   22.60
  -5   4  -9    9.70   13.50
  -5   4  -9   11.40    8.50
   5  -4   9    8.70   11.00
   8   3  -9   -4.70   24.60
   8   3  -9   19.60   12.80
   8   3  -9   -5.90    7.40
  -8  -3   9  -14.10    9.40
  -8  -3   9    6.20   13.50
   7   3  -9  290.77   38.70
   7   3  -9  327.47   24.60
   7   3  -9  284.57   19.80
   7   3  -9  260.97   29.10
  -7  -3   9  286.67   23.70
  -7  -3   9  271.57   25.40
   6   3  -9  706.63   43.20
   6   3  -9  656.33   41.30
   6   3  -9  608.34   51.89
  -6  -3   9  739.83   43.10
  -6  -3   9  662.03   44.80
   5   3  -9  253.07   27.70
   5   3  -9  247.18   32.30
   5   3  -9  270.37   18.60
   5   3  -9  315.27   21.60
   4   3  -9   59.89   12.60
   4   3  -9   58.09    7.60
  -4  -3   9   67.69    8.50
  -4  -3   9   76.89    9.20
  -4  -3   9   43.80   10.90
   3   3  -9  867.01   56.99
   3   3  -9  951.90   53.79
   3   3  -9  893.81   58.39
  -3  -3   9  962.50   53.99
  -3  -3   9  890.11   53.69
  -3  -3   9  814.02   53.19
  -3  -3   9  890.01   55.79
   2   3  -9  861.41   50.89
   2   3  -9  842.72   54.59
   2   3  -9  908.81   55.69
  -2  -3   9  819.52   50.89
  -2  -3   9  820.32   50.99
   1   3  -9  164.78   13.80
   1   3  -9  128.89   14.10
   1   3  -9  182.28   19.50
   1   3  -9  185.38   19.90
  -1  -3   9  135.49   13.90
  -1  -3   9  143.59   13.10
   0   3  -9  183.78   14.00
   0   3  -9  173.38   19.90
   0   3  -9  160.48   14.70
   0  -3   9  183.38   14.90
   0  -3   9  183.58   14.30
   0  -3   9  130.49   19.10
  -1   3  -9  872.11   58.39
  -1   3  -9  969.90   54.89
   1  -3   9  911.21   54.79
   1  -3   9  928.31   55.29
  -2   3  -9  385.16   34.70
   2  -3   9  438.26   27.30
   2  -3   9  445.66   28.00
  -3   3  -9   -4.40    7.30
  -3   3  -9    3.80   12.70
   3  -3   9   -4.70    9.30
  -4   3  -9  229.78   17.10
  -4   3  -9  216.18   24.30
   4  -3   9  211.08   18.20
  -5   3  -9  360.86   24.20
  -5   3  -9  293.87   28.40
   5  -3   9  355.86   26.10
   8   2  -9  545.05   35.30
   8   2  -9  601.54   38.90
  -8  -2   9  605.24   37.40
  -8  -2   9  470.35   39.20
   7   2  -9  296.17   34.60
   7   2  -9  281.77   19.80
   7   2  -9  267.27   26.40
   7   2  -9  293.67   23.70
  -7  -2   9  316.97   23.10
  -7  -2   9  270.27   26.40
   6   2  -9  253.37   18.30
   6   2  -9  255.67   33.90
   6   2  -9  294.27   21.50
   6   2  -9  244.48   23.80
  -6  -2   9  256.47   23.00
  -6  -2   9  268.77   21.10
   5   2  -9  591.24   38.00
   5   2  -9  618.44   45.40
   5   2  -9  614.84   42.20
  -5  -2   9  688.13   39.10
   4   2  -9  851.61   54.29
   4   2  -9  868.31   50.89
   4   2  -9  775.22   49.80
   4   2  -9  868.91   56.09
  -4  -2   9  806.02   50.79
  -4  -2   9  831.92   50.59
  -4  -2   9  853.81   52.79
  -4  -2   9  887.91   51.09
   3   2  -9   -9.50    6.30
   3   2  -9   10.10   12.30
   3   2  -9    1.10    4.80
   3   2  -9   -3.80   11.50
  -3  -2   9    0.00    5.00
  -3  -2   9   -1.70    6.80
  -3  -2   9   -3.00    6.90
  -3  -2   9   -7.10   10.00
   2   2  -9  552.74   39.50
   2   2  -9  549.54   39.20
   2   2  -9  598.74   35.20
  -2  -2   9  568.24   35.20
  -2  -2   9  574.14   35.30
   1   2  -9  276.47   24.00
   1   2  -9  301.47   18.80
   1   2  -9  223.98   19.10
  -1  -2   9  270.87   18.80
  -1  -2   9  276.17   18.50
   0   2  -9  548.45   33.40
   0   2  -9  541.85   37.30
   0   2  -9  528.35   34.00
   0  -2   9  546.25   33.50
   0  -2   9  550.54   33.20
   0  -2   9  508.65   36.20
  -1   2  -9  -10.10   11.60
  -1   2  -9   -8.40    7.20
   1  -2   9   -9.70    6.60
   1  -2   9   -9.30    6.90
  -2   2  -9  432.16   32.20
  -2   2  -9  404.06   32.80
  -2   2  -9  472.95   28.60
   2  -2   9  471.45   29.50
   2  -2   9  450.85   28.80
  -3   2  -9  300.17   21.50
  -3   2  -9  301.67   26.60
   3  -2   9  319.17   22.70
  -4   2  -9  196.48   24.10
  -4   2  -9  197.88   17.00
   4  -2   9  191.28   18.20
  -5   2  -9   30.40   16.50
  -5   2  -9    7.90    9.00
   5  -2   9   36.20   10.10
   8   1  -9  175.58   14.90
   8   1  -9  176.58   21.60
  -8  -1   9  191.98   19.10
  -8  -1   9  161.78   21.70
   7   1  -9  337.97   29.00
   7   1  -9  351.56   23.40
   7   1  -9  384.76   26.60
  -7  -1   9  370.96   25.70
  -7  -1   9  319.07   27.70
   6   1  -9  677.53   41.00
   6   1  -9  639.44   45.10
  -6  -1   9  718.53   42.00
  -6  -1   9  644.14   45.00
   5   1  -9    2.00   11.50
   5   1  -9    3.20    7.10
   5   1  -9   -2.30    5.40
  -5  -1   9    9.60    7.30
   4   1  -9  382.56   29.90
   4   1  -9  441.46   26.50
   4   1  -9  351.36   24.40
  -4  -1   9  403.76   25.70
  -4  -1   9  376.56   27.80
  -4  -1   9  439.16   25.80
  -4  -1   9  366.56   25.80
   3   1  -9  908.81   51.09
   3   1  -9  816.52   50.19
   3   1  -9  903.41   54.49
  -3  -1   9  918.91   51.09
  -3  -1   9  834.22   50.59
  -3  -1   9  758.42   52.29
  -3  -1   9  797.72   50.59
   2   1  -9 1090.79   68.49
   2   1  -9 1164.68   65.39
  -2  -1   9 1147.29   65.39
  -2  -1   9 1006.40   64.29
  -2  -1   9 1097.59   65.29
   1   1  -9  193.18   14.80
   1   1  -9  182.78   19.10
  -1  -1   9  182.68   14.30
  -1  -1   9  200.58   15.20
   0   1  -9  964.00   62.89
   0   1  -9 1028.20   59.69
   0  -1   9  963.60   61.69
   0  -1   9 1041.30   59.99
   0  -1   9 1019.30   59.89
  -1   1  -9  606.94   40.80
   1  -1   9  585.74   37.10
   1  -1   9  620.14   37.20
  -2   1  -9  123.69   12.70
   2  -1   9  135.79   14.00
  -3   1  -9  259.47   24.10
  -3   1  -9  287.57   18.80
  -3   1  -9  211.58   24.70
   3  -1   9  224.38   20.20
   3  -1   9  268.87   20.10
  -4   1  -9  237.48   19.30
  -4   1  -9  209.88   26.00
   4  -1   9  228.68   19.40
  -5   1  -9  188.68   28.10
  -5   1  -9  131.09   16.60
   5  -1   9  139.19   18.10
   9   0  -9  451.95   33.50
   9   0  -9  408.16   28.00
  -9   0   9  364.66   32.00
   8   0  -9  216.18   17.80
   8   0  -9  276.57   24.00
  -8   0   9  211.08   23.60
  -8   0   9  250.87   20.80
   7   0  -9    2.20    7.60
  -7   0   9    4.50   11.40
  -7   0   9   -1.10    9.10
   6   0  -9  447.06   28.40
   6   0  -9  477.35   29.40
   6   0  -9  423.86   32.80
  -6   0   9  408.06   31.80
  -6   0   9  465.25   29.50
   5   0  -9  901.41   61.19
   5   0  -9 1042.40   59.09
   5   0  -9  970.20   58.49
   5   0  -9 1011.00   62.29
  -5   0   9 1072.99   58.99
  -5   0   9  896.31   62.59
   4   0  -9  144.19   11.80
   4   0  -9  171.98   14.20
   4   0  -9  130.09   14.00
   4   0  -9  148.69   19.20
  -4   0   9  141.39   16.00
  -4   0   9  153.88   13.90
  -4   0   9  162.48   12.40
   3   0  -9  130.89   18.40
   3   0  -9  136.89   13.40
   3   0  -9  131.19   11.00
  -3   0   9  130.89   15.70
  -3   0   9  138.89   11.60
  -3   0   9  136.69   12.30
  -3   0   9  175.98   13.70
   2   0  -9  666.53   45.10
   2   0  -9  665.73   40.80
   2   0  -9  723.83   41.40
  -2   0   9  710.13   41.80
  -2   0   9  627.84   40.30
  -2   0   9  685.03   41.10
   1   0  -9  621.94   36.70
   1   0  -9  594.44   40.30
  -1   0   9  551.04   35.00
  -1   0   9  614.64   36.80
  -1   0   9  576.64   36.10
   0   0  -9   63.59   13.70
   0   0  -9   54.89    8.30
   0   0   9   57.49    8.30
   0   0   9   61.09   10.10
   0   0   9   49.10   11.00
  -1   0  -9  149.19   19.30
  -1   0  -9  144.29   16.20
   1   0   9  147.39   13.70
   1   0   9  145.29   13.80
  -2   0  -9  535.95   36.10
  -2   0  -9  508.65   32.60
   2   0   9  504.75   32.80
  -3   0  -9  247.08   18.80
  -3   0  -9  188.38   25.30
  -3   0  -9  243.58   24.50
   3   0   9  261.07   19.70
   3   0   9  273.67   19.80
  -4   0  -9    6.30    8.60
  -4   0  -9   -9.50   16.20
   4   0   9  -12.00    9.70
   9  -1  -9    9.90    7.70
  -9   1   9   30.60   10.70
  -9   1   9   -0.50   13.60
   8  -1  -9  256.87   22.70
   8  -1  -9  232.18   18.10
  -8   1   9  253.27   21.80
  -8   1   9  210.88   23.70
   7  -1  -9  698.23   42.50
   7  -1  -9  674.33   45.10
   7  -1  -9  705.63   44.90
  -7   1   9  653.23   45.70
  -7   1   9  720.63   43.30
   6  -1  -9  179.68   14.10
   6  -1  -9  164.88   20.70
   6  -1  -9  184.68   16.30
  -6   1   9  198.18   19.80
  -6   1   9  174.08   16.40
   5  -1  -9  272.27   19.10
   5  -1  -9  284.07   20.80
   5  -1  -9  285.77   24.50
  -5   1   9  309.17   20.50
   4  -1  -9 1470.95   85.09
   4  -1  -9 1446.86   88.09
   4  -1  -9 1501.35   85.49
  -4   1   9 1289.37   86.79
  -4   1   9 1543.35   85.39
  -4   1   9 1417.26   84.99
   3  -1  -9  641.14   37.00
   3  -1  -9  531.95   36.00
   3  -1  -9  616.44   40.90
  -3   1   9  596.94   36.00
  -3   1   9  599.34   36.20
  -3   1   9  522.85   38.70
  -3   1   9  665.23   36.90
   2  -1  -9   37.10   13.30
   2  -1  -9   55.29    8.10
  -2   1   9   62.59    8.50
  -2   1   9   48.80    8.00
  -2   1   9   48.40    7.30
   1  -1  -9  375.16   29.90
   1  -1  -9  426.66   26.30
  -1   1   9  388.36   24.50
  -1   1   9  391.86   25.00
  -1   1   9  387.36   25.70
   0  -1  -9  535.25   38.80
   0  -1  -9  558.54   36.60
   0   1   9  483.65   37.30
   0   1   9  616.04   34.20
   0   1   9  597.44   35.20
   0   1   9  582.54   34.70
  -1  -1  -9  295.77   22.90
  -1  -1  -9  274.87   21.00
   1   1   9  302.97   19.00
   1   1   9  263.07   19.70
   1   1   9  272.37   20.30
  -2  -1  -9    6.00    8.10
  -2  -1  -9   -4.60   16.00
  -2  -1  -9   -9.70   12.40
   2   1   9    4.60    8.00
   2   1   9   -5.60    8.20
  -3  -1  -9  275.77   27.10
  -3  -1  -9  318.97   22.70
   3   1   9  264.57   21.40
   3   1   9  275.47   21.30
  -4  -1  -9  349.17   32.90
  -4  -1  -9  366.56   25.50
   4   1   9  348.47   28.80
   9  -2  -9  281.37   20.80
  -9   2   9  303.67   23.90
  -9   2   9  256.47   27.40
   8  -2  -9    5.20    9.00
  -8   2   9   17.30   13.40
   7  -2  -9  186.18   18.30
   7  -2  -9  155.98   19.20
   7  -2  -9  156.38   14.50
  -7   2   9  171.68   20.00
  -7   2   9  192.18   17.00
   6  -2  -9  699.63   46.60
   6  -2  -9  729.83   43.70
   6  -2  -9  693.83   43.10
  -6   2   9  633.34   46.00
  -6   2   9  769.92   43.70
   5  -2  -9  497.35   30.90
   5  -2  -9  446.96   29.40
   5  -2  -9  451.65   34.40
  -5   2   9  476.65   29.30
   4  -2  -9    2.50    6.00
   4  -2  -9    0.90    7.30
   4  -2  -9   -1.20   11.90
  -4   2   9    2.10    9.80
  -4   2   9    7.00    5.60
  -4   2   9   12.40    7.30
  -4   2   9   -9.60    6.50
   3  -2  -9  359.06   23.70
   3  -2  -9  312.37   27.40
   3  -2  -9  317.97   21.90
  -3   2   9  333.57   21.70
  -3   2   9  331.77   22.10
  -3   2   9  379.76   23.20
   2  -2  -9  814.42   55.79
   2  -2  -9  929.21   52.59
  -2   2   9  851.91   51.79
  -2   2   9  852.11   51.89
  -2   2   9  903.21   52.49
   1  -2  -9  288.67   19.40
   1  -2  -9  253.07   28.60
  -1   2   9  268.17   18.50
  -1   2   9  257.27   18.60
  -1   2   9  282.67   19.70
   0  -2  -9   59.79   10.20
   0   2   9   49.40    8.80
   0   2   9   54.49    7.50
   0   2   9   42.40    7.90
  -1  -2  -9  386.26   30.90
  -1  -2  -9  380.06   25.80
  -1  -2  -9  333.47   30.30
   1   2   9  423.26   25.30
   1   2   9  363.86   24.80
  -2  -2  -9  494.95   32.10
  -2  -2  -9  480.95   35.90
   2   2   9  461.25   31.50
   2   2   9  532.95   32.60
  -3  -2  -9   40.30   16.50
  -3  -2  -9    9.20    9.60
   3   2   9   20.70   12.00
   3   2   9  -15.60   11.40
   9  -3  -9  229.48   18.70
  -9   3   9  238.38   25.60
  -9   3   9  252.37   20.90
   8  -3  -9  412.16   29.50
   8  -3  -9  496.25   30.70
  -8   3   9  424.76   34.30
  -8   3   9  462.65   30.40
   7  -3  -9   41.00   11.60
   7  -3  -9   50.39   10.00
   7  -3  -9   42.90    8.90
  -7   3   9   49.40   13.20
  -7   3   9   46.20    9.80
   6  -3  -9   12.20    8.70
   6  -3  -9    3.70    8.90
   6  -3  -9   18.20   12.10
  -6   3   9   10.70    8.80
  -6   3   9    6.80   11.90
   5  -3  -9  567.64   35.60
   5  -3  -9  534.85   38.50
   5  -3  -9  583.84   35.70
  -5   3   9  587.34   36.60
  -5   3   9  550.94   35.10
  -5   3   9  566.54   34.70
   4  -3  -9 1004.00   60.09
   4  -3  -9  986.80   63.39
   4  -3  -9 1096.89   60.39
  -4   3   9 1008.30   59.49
  -4   3   9  865.41   61.99
  -4   3   9 1069.89   60.09
   3  -3  -9   55.89   15.10
   3  -3  -9   60.09    9.40
   3  -3  -9   37.80    7.80
  -3   3   9   64.49    8.70
  -3   3   9   41.20    7.00
   2  -3  -9  136.79   13.80
  -2   3   9  136.79   13.20
  -2   3   9  115.39   11.50
  -2   3   9  152.78   13.60
   1  -3  -9  974.90   62.39
   1  -3  -9  948.91   65.19
  -1   3   9 1138.79   61.89
  -1   3   9 1088.59   61.49
  -1   3   9  998.10   61.09
   0  -3  -9  344.07   23.20
   0  -3  -9  315.57   24.00
   0   3   9  324.27   21.60
   0   3   9  289.67   21.70
  -1  -3  -9   19.50    9.30
  -1  -3  -9   24.20   21.40
   1   3   9   22.90    7.70
   1   3   9   22.20    8.30
  -2  -3  -9   77.29   11.00
  -2  -3  -9   55.89   16.00
   2   3   9   51.79   10.50
   2   3   9   64.79   12.00
   2   3   9   45.90   12.10
  -3  -3  -9  292.97   22.70
  -3  -3  -9  282.67   31.40
   3   3   9  287.67   25.60
   3   3   9  269.17   22.90
  -9   4   9   52.89   16.40
   8  -4  -9   17.00    9.00
  -8   4   9   18.60   10.20
  -8   4   9   23.70   14.90
   7  -4  -9  610.64   36.70
   7  -4  -9  501.35   35.50
  -7   4   9  524.05   39.30
  -7   4   9  595.84   36.00
   6  -4  -9  514.85   32.30
   6  -4  -9  476.75   31.30
   6  -4  -9  477.05   30.80
  -6   4   9  505.15   31.80
  -6   4   9  427.06   34.30
  -6   4   9  509.45   31.80
  -6   4   9  472.75   30.10
   5  -4  -9   56.79    9.70
   5  -4  -9   80.19   12.20
  -5   4   9   72.39   14.40
  -5   4   9   54.19   10.20
  -5   4   9   91.49   15.10
  -5   4   9   76.29   10.30
   4  -4  -9  157.18   14.90
   4  -4  -9  124.59   13.20
  -4   4   9  159.18   14.60
  -4   4   9  125.29   13.90
   3  -4  -9 1082.39   64.59
   3  -4  -9  915.21   64.19
   3  -4  -9 1135.99   64.29
  -3   4   9 1147.59   65.29
  -3   4   9 1089.79   63.99
   2  -4  -9  228.88   20.70
   2  -4  -9  219.08   19.60
  -2   4   9  234.88   17.40
  -2   4   9  220.78   20.20
   1  -4  -9  -16.20    9.50
   1  -4  -9   -2.40    9.30
  -1   4   9    5.00    9.80
  -1   4   9   -2.40    7.20
   0  -4  -9  134.69   15.80
   0  -4  -9  105.99   17.40
   0   4   9  114.49   13.60
  -1  -4  -9  448.16   37.60
  -1  -4  -9  508.75   32.60
   1   4   9  491.15   33.50
  -2  -4  -9   71.49   11.90
  -2  -4  -9   58.39   19.00
   2   4   9   60.89   13.70
   9  -5  -9  202.68   19.70
  -9   5   9  228.48   25.50
   8  -5  -9  235.38   20.10
  -8   5   9  277.37   22.80
  -8   5   9  255.67   27.10
   7  -5  -9   -0.10    9.00
   7  -5  -9   18.40    9.40
  -7   5   9   14.30   14.40
  -7   5   9    7.80    9.80
  -7   5   9   14.20   11.80
   6  -5  -9  171.38   16.10
   6  -5  -9  177.08   15.70
   6  -5  -9  208.48   17.50
  -6   5   9  203.98   18.80
  -6   5   9  192.48   17.80
  -6   5   9  139.99   20.20
   5  -5  -9  518.15   37.80
   5  -5  -9  645.04   38.80
  -5   5   9  626.74   38.20
  -5   5   9  614.54   38.80
   4  -5  -9  288.37   22.40
   4  -5  -9  350.56   23.20
  -4   5   9  318.87   24.50
   3  -5  -9   60.29   10.20
   3  -5  -9   46.70    8.30
  -3   5   9   68.29   10.70
   2  -5  -9  346.77   26.30
  -2   5   9  441.66   27.60
   1  -5  -9  318.57   26.40
   1  -5  -9  355.06   25.70
  -1   5   9  376.66   25.70
   0  -5  -9   28.30   11.40
   0  -5  -9   60.09   10.90
   0   5   9   18.50   10.90
   0   5   9   32.40   11.60
  -1  -5  -9   60.19   12.40
  -1  -5  -9   49.70   15.90
   1   5   9   50.99   12.20
   1   5   9   58.69   13.40
   8  -6  -9  216.78   20.00
  -8   6   9  277.77   22.90
  -8   6   9  231.78   27.10
  -8   6   9  267.27   23.30
   7  -6  -9  282.37   22.30
  -7   6   9  237.58   27.00
  -7   6   9  341.87   23.30
  -7   6   9  312.07   24.40
   6  -6  -9   54.99   11.00
   6  -6  -9   83.19   11.60
   6  -6  -9   64.29   11.20
  -6   6   9   74.39   12.70
  -6   6   9   48.80   14.80
  -6   6   9   67.49   12.20
   5  -6  -9   25.80   10.80
   5  -6  -9    1.10    9.70
  -5   6   9   -1.20    9.30
  -5   6   9    0.60   13.10
  -5   6   9    1.60   10.80
   4  -6  -9  217.88   20.00
   4  -6  -9  278.37   21.90
  -4   6   9  255.57   22.00
  -4   6   9  267.97   20.80
  -3   6   9  587.04   38.90
  -3   6   9  615.24   39.40
   2  -6  -9  177.38   18.70
  -2   6   9  154.38   18.30
  -2   6   9  112.19   17.90
   1  -6  -9  176.98   20.10
  -1   6   9  172.68   20.20
   0   6   9  348.07   34.10
   0   6   9  438.46   31.20
   0   6   9  435.56   29.70
   1   6   9   96.09   15.10
   8  -7  -9   18.00   10.80
  -8   7   9   25.40   17.00
   7  -7  -9   75.59   12.40
  -7   7   9   82.49   13.30
  -7   7   9   37.30   18.80
  -7   7   9   74.69   12.90
   6  -7  -9  380.06   28.50
  -6   7   9  412.26   29.00
  -6   7   9  359.36   28.80
   5  -7  -9  197.18   19.60
   5  -7  -9  243.98   22.80
  -5   7   9  231.38   21.10
  -5   7   9  267.27   21.60
   4  -7  -9   28.90   13.40
  -4   7   9    6.90   11.20
  -4   7   9   21.30   12.60
   3  -7  -9  159.88   22.30
   3  -7  -9  169.98   20.80
  -3   7   9  150.48   18.80
  -3   7   9  134.79   18.50
   2  -7  -9  420.26   30.10
   2  -7  -9  358.46   31.40
  -2   7   9  368.36   29.80
   1  -7  -9   69.59   14.10
  -1   7   9   59.09   13.60
  -1   7   9   73.29   13.40
  -1   7   9   55.49   21.30
   7  -8  -9  153.08   17.40
   6  -8  -9    6.00   12.00
  -6   8   9  -12.80   12.50
  -6   8   9   -2.20   14.10
   5  -8  -9  151.18   19.80
  -5   8   9  153.08   21.30
  -5   8   9  210.68   19.40
   4  -8  -9  304.17   28.60
  -4   8   9  249.68   25.30
  -4   8   9  296.27   24.80
   3  -8  -9  161.78   21.80
  -3   8   9  152.38   20.80
   2  -8  -9   13.40   17.30
   2  -8  -9   43.60   18.00
  -2   8   9   -3.60   12.50
   1   9 -10  207.58   36.80
   1   9 -10  274.97   22.00
  -1  -9  10  312.97   24.20
   0   9 -10  -10.10   20.70
   0   9 -10    2.30   21.10
   0   9 -10    8.20    9.70
   0  -9  10    3.70   11.50
  -1   9 -10   34.60   18.80
  -1   9 -10   12.80   21.00
  -1   9 -10   42.60    9.90
   1  -9  10   25.00   12.60
   3   8 -10  129.09   24.50
   3   8 -10  106.79   23.60
   3   8 -10  134.79   17.50
  -3  -8  10  139.69   16.40
   2   8 -10    6.80   10.10
   2   8 -10  -10.70   22.90
   2   8 -10   -2.60   16.20
  -2  -8  10    1.30    9.20
   1   8 -10   49.10   12.50
   1   8 -10   51.29   18.00
   1   8 -10   50.79   20.60
  -1  -8  10   56.79   13.10
   0   8 -10  520.35   41.90
   0   8 -10  560.44   45.40
   0   8 -10  501.75   34.30
   0  -8  10  540.45   36.20
  -1   8 -10   98.99   20.10
  -1   8 -10   79.19   20.40
  -1   8 -10   92.89   14.70
   1  -8  10   96.49   14.20
  -2   8 -10   -5.40    8.20
  -2   8 -10   29.10   20.00
   2  -8  10    3.10    9.90
  -3   8 -10  106.89   24.80
   3  -8  10  163.68   17.60
   4   7 -10   -7.80   10.60
   4   7 -10  -21.40   22.00
   4   7 -10    4.10   16.00
  -4  -7  10   -5.30    8.90
   3   7 -10  304.47   30.90
   3   7 -10  306.17   24.30
   3   7 -10  333.57   38.40
   2   7 -10  407.76   40.10
   2   7 -10  379.36   32.90
   2   7 -10  407.46   27.90
   1   7 -10  117.59   14.80
   1   7 -10  136.19   24.10
   1   7 -10  131.79   28.40
  -1  -7  10  137.29   15.60
   0   7 -10   11.40   18.70
   0   7 -10    7.00    8.40
   0   7 -10    4.50   16.50
   0  -7  10  -13.10    9.20
  -1   7 -10  417.76   35.30
  -1   7 -10  411.96   36.20
  -1   7 -10  422.16   27.60
  -2   7 -10  429.16   27.30
  -2   7 -10  389.66   36.90
   2  -7  10  422.26   30.60
  -3   7 -10   10.10   22.40
   3  -7  10   -0.50    9.90
   5   6 -10  232.68   34.20
   5   6 -10  279.07   23.80
   5   6 -10  206.18   29.40
  -5  -6  10  229.78   27.20
  -5  -6  10  275.17   20.90
  -5  -6  10  254.37   23.70
   4   6 -10  447.96   37.90
   4   6 -10  502.15   45.80
   4   6 -10  497.95   32.60
   3   6 -10  118.09   16.10
   3   6 -10  108.39   22.10
   3   6 -10   87.29   21.10
  -3  -6  10  106.39   13.80
  -3  -6  10   98.39   13.40
   2   6 -10   70.79   15.20
   2   6 -10  102.49   12.80
   2   6 -10  102.79   20.00
  -2  -6  10   92.19   12.90
  -2  -6  10   68.69   10.30
   1   6 -10  445.06   29.90
   1   6 -10  444.16   36.40
   1   6 -10  458.55   39.90
  -1  -6  10  476.45   30.20
   0   6 -10  318.07   30.20
   0   6 -10  306.47   22.70
   0   6 -10  345.07   30.50
   0  -6  10  326.37   23.20
  -1   6 -10    5.30    7.70
  -1   6 -10   17.50   17.20
  -1   6 -10    8.90   13.70
   1  -6  10    0.60    8.40
  -2   6 -10  133.39   13.70
  -2   6 -10  116.19   24.50
  -3   6 -10  251.37   30.50
  -3   6 -10  290.07   20.30
   3  -6  10  302.07   22.20
  -4   6 -10   82.49   20.90
  -4   6 -10  134.89   22.40
  -4   6 -10  122.99   13.30
   4  -6  10  138.89   18.20
   6   5 -10  409.66   44.00
   6   5 -10  373.76   36.30
   6   5 -10  462.95   31.00
  -6  -5  10  349.77   34.70
  -6  -5  10  428.16   30.30
  -6  -5  10  465.75   31.70
   5   5 -10   25.80   10.70
   5   5 -10   29.20   15.90
   5   5 -10   29.40   22.30
  -5  -5  10   39.90   16.40
  -5  -5  10   42.80   11.80
   4   5 -10  175.68   24.00
   4   5 -10  209.88   19.40
   4   5 -10  198.48   33.10
  -4  -5  10  166.78   16.30
  -4  -5  10  155.98   20.90
   3   5 -10  892.71   63.89
   3   5 -10  962.80   56.49
   3   5 -10  887.11   60.99
  -3  -5  10  960.40   56.19
  -3  -5  10  942.31   56.49
   2   5 -10  250.67   27.90
   2   5 -10  259.17   30.70
   2   5 -10  275.77   20.20
  -2  -5  10  276.67   19.80
  -2  -5  10  294.87   20.40
   1   5 -10   51.39    9.20
   1   5 -10   32.80   16.20
   1   5 -10   47.10   15.90
  -1  -5  10   26.50    8.30
  -1  -5  10   43.50    9.00
   0   5 -10  250.17   18.10
   0   5 -10  220.18   26.20
   0   5 -10  203.48   24.60
   0  -5  10  229.98   18.10
  -1   5 -10  359.26   33.30
  -1   5 -10  393.06   25.80
   1  -5  10  417.06   27.50
  -2   5 -10  176.18   25.20
  -2   5 -10  184.28   15.80
   2  -5  10  176.48   17.90
  -3   5 -10    6.00   15.90
  -3   5 -10  -12.70   19.70
  -3   5 -10    5.60    7.60
  -4   5 -10  259.87   18.90
  -4   5 -10  213.48   26.70
   4  -5  10  266.17   21.00
   7   4 -10    0.20    7.20
   7   4 -10   -7.40   11.80
   7   4 -10   -7.70   17.80
  -7  -4  10    8.80   17.40
  -7  -4  10   -9.20   12.30
   6   4 -10  126.29   23.70
   6   4 -10  122.39   25.40
   6   4 -10  103.59   11.40
  -6  -4  10  104.29   16.30
  -6  -4  10  129.29   18.70
  -6  -4  10  101.59   20.00
   5   4 -10  311.97   30.60
   5   4 -10  346.37   35.30
   5   4 -10  346.57   25.80
  -5  -4  10  366.16   24.20
  -5  -4  10  328.17   28.20
  -5  -4  10  347.77   26.00
   4   4 -10  463.15   37.80
   4   4 -10  495.45   43.10
   4   4 -10  512.95   33.60
  -4  -4  10  537.05   32.80
  -4  -4  10  463.05   35.50
  -4  -4  10  498.25   32.10
   3   4 -10    6.60    8.20
   3   4 -10   10.10   14.50
   3   4 -10   29.30   16.90
  -3  -4  10    4.10    7.70
  -3  -4  10   -4.00    7.00
   2   4 -10  489.95   37.60
   2   4 -10  504.75   31.60
   2   4 -10  479.75   37.50
  -2  -4  10  488.75   31.50
  -2  -4  10  506.55   32.00
   1   4 -10  576.14   39.70
   1   4 -10  543.45   41.10
   1   4 -10  584.44   35.80
  -1  -4  10  539.85   35.20
  -1  -4  10  580.54   35.90
   0   4 -10  202.58   23.80
   0   4 -10  195.88   16.10
   0  -4  10  164.88   15.70
   0  -4  10  177.78   15.70
  -1   4 -10   83.89   12.20
  -1   4 -10   72.29   17.40
   1  -4  10   89.89   12.40
  -2   4 -10  343.27   33.10
  -2   4 -10  418.86   26.10
   2  -4  10  410.76   27.70
  -3   4 -10  203.68   24.10
  -3   4 -10  166.18   27.20
  -3   4 -10  230.18   16.80
  -4   4 -10    8.50    8.00
  -4   4 -10    5.90   15.70
   4  -4  10    5.40   10.90
   7   3 -10  317.77   33.40
   7   3 -10  326.97   23.00
   7   3 -10  346.07   38.30
   7   3 -10  366.86   28.20
  -7  -3  10  337.57   27.40
  -7  -3  10  337.57   31.70
   6   3 -10  209.88   17.20
   6   3 -10  303.77   36.60
   6   3 -10  241.18   29.20
   6   3 -10  243.48   21.80
  -6  -3  10  242.18   23.90
  -6  -3  10  238.98   21.40
   5   3 -10  100.89   21.30
   5   3 -10  104.19   15.60
   5   3 -10   68.89    9.80
   5   3 -10   89.09   20.60
  -5  -3  10  102.69   15.00
  -5  -3  10   95.39   19.70
  -5  -3  10   99.49   12.80
   4   3 -10  603.74   36.20
   4   3 -10  528.45   44.60
   4   3 -10  535.25   41.00
  -4  -3  10  598.14   35.70
  -4  -3  10  524.35   38.60
  -4  -3  10  576.74   36.00
   3   3 -10  449.16   37.60
   3   3 -10  516.55   32.30
  -3  -3  10  544.45   32.00
  -3  -3  10  492.45   31.80
   2   3 -10   97.99   12.60
   2   3 -10  138.59   23.00
   2   3 -10  101.89   20.10
  -2  -3  10   84.09   12.50
  -2  -3  10   87.99   13.00
   1   3 -10  297.07   27.30
   1   3 -10  364.86   24.10
  -1  -3  10  343.77   22.80
  -1  -3  10  339.47   22.70
   0   3 -10  549.54   33.10
   0   3 -10  492.35   38.30
   0  -3  10  524.55   32.90
   0  -3  10  516.55   33.00
  -1   3 -10  274.37   27.50
  -1   3 -10  322.97   21.10
   1  -3  10  297.47   21.90
   1  -3  10  273.17   21.30
  -2   3 -10    1.00   16.20
  -2   3 -10   14.70    8.80
  -2   3 -10    8.10   11.40
   2  -3  10    5.50    8.40
  -3   3 -10  217.98   29.40
  -3   3 -10  288.17   27.30
  -3   3 -10  290.87   21.50
   3  -3  10  325.47   22.40
  -4   3 -10  224.58   27.00
  -4   3 -10  278.77   23.10
   4  -3  10  269.37   22.20
   8   2 -10   64.89   10.20
   8   2 -10   49.10   14.00
  -8  -2  10   44.20   12.20
  -8  -2  10   53.69   15.10
   7   2 -10   15.30    6.60
   7   2 -10   17.80   16.90
   7   2 -10   29.00   11.60
  -7  -2  10   14.90   13.50
  -7  -2  10   15.00   11.30
   6   2 -10  492.55   32.00
   6   2 -10  564.94   34.70
   6   2 -10  485.95   39.90
  -6  -2  10  565.24   34.50
  -6  -2  10  455.85   36.30
   5   2 -10  527.75   43.70
   5   2 -10  507.05   37.90
   5   2 -10  468.75   31.30
   5   2 -10  551.94   33.80
  -5  -2  10  540.45   33.10
  -5  -2  10  543.45   34.80
  -5  -2  10  449.86   35.60
   4   2 -10  111.99   13.80
   4   2 -10   84.99   19.20
   4   2 -10   80.29    9.50
  -4  -2  10   99.99   16.10
  -4  -2  10  108.09   13.10
  -3  -2  10  286.37   19.80
  -3  -2  10  254.07   18.90
  -2  -2  10 1357.26   81.79
  -2  -2  10 1404.16   81.69
  -1  -2  10  242.08   18.60
  -1  -2  10  260.97   18.90
   0   2 -10   16.50   15.00
   0  -2  10   16.60    8.70
   0  -2  10   29.80    8.70
  -1   2 -10  266.67   19.50
  -1   2 -10  225.58   27.20
   1  -2  10  251.07   19.60
   1  -2  10  268.77   20.00
  -2   2 -10  317.57   22.50
  -2   2 -10  306.17   26.80
   2  -2  10  318.47   23.20
  -3   2 -10   79.99   10.60
  -3   2 -10   57.99   19.00
  -3   2 -10   99.09   20.90
   3  -2  10   86.89   12.20
  -4   2 -10  -13.00    8.90
  -4   2 -10  -12.20   17.40
  -4   2 -10  -11.80   16.40
   4  -2  10   -6.60    9.00
   8   1 -10  442.46   33.20
   8   1 -10  407.06   27.20
  -8  -1  10  371.56   32.80
  -8  -1  10  427.16   30.30
   7   1 -10  135.29   19.10
   7   1 -10  116.39   24.10
   7   1 -10  116.79   12.10
  -7  -1  10  141.99   17.70
  -7  -1  10  136.29   19.90
   6   1 -10   -3.20    6.70
   6   1 -10    3.20    9.90
   6   1 -10   -9.20   16.10
  -6  -1  10  -11.90   12.10
  -6  -1  10   12.00   10.30
   5   1 -10  324.27   22.30
   5   1 -10  266.27   19.60
  -5  -1  10  288.17   20.30
  -5  -1  10  277.37   24.40
   4   1 -10  580.74   36.60
  -4  -1  10  599.04   35.70
  -4  -1  10  489.35   38.20
  -4  -1  10  603.14   35.90
   3   1 -10  199.98   15.70
  -3  -1  10  243.18   17.50
  -3  -1  10  231.28   15.80
  -3  -1  10  255.27   18.20
  -2  -1  10    7.10    7.20
  -2  -1  10   -5.90    7.70
  -2  -1  10   -1.70    3.90
  -1  -1  10  822.22   50.29
  -1  -1  10  844.22   50.59
   0   1 -10  577.14   35.90
   0   1 -10  522.95   40.20
   0  -1  10  571.54   35.30
   0  -1  10  581.14   35.50
  -1   1 -10    9.10   12.40
  -1   1 -10    6.40    8.90
  -1   1 -10    9.00   14.80
   1  -1  10    8.50    8.70
   1  -1  10    6.50    8.80
  -2   1 -10   43.20   18.60
  -2   1 -10   52.59   14.40
  -2   1 -10   59.39    9.00
   2  -1  10   67.59   10.20
  -3   1 -10  397.66   33.10
  -3   1 -10  410.06   27.80
   3  -1  10  396.56   27.70
  -4   1 -10  136.39   23.50
   4  -1  10  164.98   17.30
   8   0 -10   -2.60    7.30
   8   0 -10    3.20   13.00
  -8   0  10   15.10   11.50
  -8   0  10   -1.10   13.90
   7   0 -10  393.66   27.20
   7   0 -10  477.45   30.90
   7   0 -10  362.36   38.70
  -7   0  10  491.05   30.10
  -7   0  10  377.56   32.50
   6   0 -10  368.96   24.70
   6   0 -10  397.96   27.00
  -6   0  10  340.07   29.00
  -6   0  10  390.36   26.90
   5   0 -10  316.97   20.90
  -5   0  10  292.17   25.60
  -5   0  10  324.37   21.30
  -5   0  10  310.87   24.40
   4   0 -10   52.19    8.70
  -4   0  10   75.89    9.70
  -4   0  10   57.39    8.20
  -4   0  10   55.99   13.20
   3   0 -10  992.70   53.79
  -3   0  10  766.92   51.19
  -3   0  10  829.62   51.79
  -3   0  10  876.41   52.19
  -2   0  10  554.74   35.30
  -2   0  10  612.54   36.80
  -2   0  10  604.74   36.40
   1   0 -10  139.39   15.30
   1   0 -10  106.69   20.00
  -1   0  10  102.29   12.10
  -1   0  10   83.09    8.80
  -1   0  10  116.29   12.60
   0   0 -10  254.87   25.70
   0   0 -10  298.27   22.30
   0   0  10  322.67   21.20
   0   0  10  305.77   21.10
  -1   0 -10  607.34   40.60
  -1   0 -10  509.25   42.20
  -1   0 -10  626.94   37.60
   1   0  10  619.34   38.00
   1   0  10  630.24   37.70
  -2   0 -10   84.49   19.60
  -2   0 -10  118.99   14.10
  -2   0 -10  123.39   19.80
   2   0  10  122.29   13.90
  -3   0 -10  -12.80    9.50
  -3   0 -10    3.00   16.00
  -3   0 -10   -9.90   16.40
   3   0  10   16.40    9.40
   8  -1 -10  342.17   24.40
   8  -1 -10  385.36   29.40
  -8   1  10  346.57   30.40
  -8   1  10  362.16   27.40
   7  -1 -10   80.99   12.60
   7  -1 -10   50.49   19.40
   7  -1 -10   55.39    9.90
  -7   1  10   61.49   15.20
  -7   1  10   72.19   11.50
   6  -1 -10  163.78   13.50
  -6   1  10  168.38   17.30
  -6   1  10  132.69   19.80
   5  -1 -10  577.94   36.60
  -5   1  10  658.73   37.90
  -5   1  10  610.24   36.70
  -5   1  10  519.05   39.80
   4  -1 -10  215.58   15.80
  -4   1  10  254.27   16.90
  -4   1  10  220.68   16.50
  -4   1  10  205.68   21.30
   3  -1 -10   10.80    6.70
  -3   1  10    7.70    6.00
  -3   1  10   16.30    9.20
  -3   1  10   24.60    6.80
   2  -1 -10  196.68   23.70
  -2   1  10  208.48   15.70
  -2   1  10  247.28   16.70
  -2   1  10  242.98   17.90
   1  -1 -10  624.04   46.30
   1  -1 -10  683.53   41.80
  -1   1  10  713.83   41.70
  -1   1  10  671.33   40.50
  -1   1  10  673.13   41.10
   0  -1 -10  167.08   23.50
   0  -1 -10  215.18   17.50
   0   1  10  184.98   16.60
   0   1  10  182.88   13.80
   0   1  10  211.98   17.60
  -1  -1 -10   18.70    8.80
  -1  -1 -10   13.60   12.80
  -1  -1 -10   26.70   16.20
   1   1  10   34.80    9.50
   1   1  10   14.80    8.20
  -2  -1 -10  221.38   27.00
  -2  -1 -10  320.97   22.50
  -2  -1 -10  250.47   26.80
   2   1  10  282.27   21.10
  -3  -1 -10  210.78   27.40
  -3  -1 -10  222.28   20.00
   3   1  10  206.48   18.40
   8  -2 -10  150.58   23.40
   8  -2 -10  146.79   14.40
  -8   2  10  145.49   18.20
  -8   2  10  126.19   21.80
   7  -2 -10  475.45   31.70
   7  -2 -10  470.35   38.70
   7  -2 -10  524.45   36.50
  -7   2  10  450.85   36.50
  -7   2  10  548.95   33.20
   6  -2 -10  251.87   18.40
   6  -2 -10  220.38   29.40
  -6   2  10  277.27   18.90
  -6   2  10  273.97   20.90
  -6   2  10  213.48   23.70
   5  -2 -10  -17.20   16.40
   5  -2 -10   -0.90    7.10
  -5   2  10   12.20    7.70
  -5   2  10    7.40   12.00
  -5   2  10    0.80    7.00
  -5   2  10   -3.50   10.50
   4  -2 -10  302.37   28.20
   4  -2 -10  306.97   21.30
  -4   2  10  349.87   21.80
  -4   2  10  327.07   21.50
  -4   2  10  270.17   25.60
  -4   2  10  356.06   25.10
   3  -2 -10  816.92   48.80
   3  -2 -10  794.42   53.59
  -3   2  10  791.92   48.50
  -3   2  10  815.12   48.50
   2  -2 -10  253.07   21.50
   2  -2 -10  250.57   26.10
  -2   2  10  259.97   18.00
  -2   2  10  244.98   18.30
   1  -2 -10   83.29   10.80
   1  -2 -10   58.99   17.30
   1  -2 -10   94.69   14.00
  -1   2  10   87.39   11.50
  -1   2  10   64.19   10.50
   0  -2 -10  557.44   44.40
   0  -2 -10  467.85   39.50
   0  -2 -10  584.04   34.80
   0   2  10  543.25   33.30
   0   2  10  511.45   33.10
  -1  -2 -10  334.97   30.20
  -1  -2 -10  360.76   24.60
   1   2  10  315.77   23.00
  -2  -2 -10    9.30   15.90
  -2  -2 -10   15.80    9.70
   2   2  10   17.10   12.30
   2   2  10   -4.90    8.80
   8  -3 -10  174.68   23.40
   8  -3 -10  165.18   17.20
  -8   3  10  189.98   23.80
  -8   3  10  187.08   19.10
   7  -3 -10  108.49   12.70
   7  -3 -10  103.09   18.00
  -7   3  10   92.29   17.10
  -7   3  10  135.19   16.50
   6  -3 -10  217.28   25.80
   6  -3 -10  185.38   17.20
  -6   3  10  174.08   21.30
  -6   3  10  202.98   19.40
  -6   3  10  213.78   16.50
  -6   3  10  184.58   18.70
   5  -3 -10  356.96   29.60
   5  -3 -10  349.27   23.50
  -5   3  10  325.17   25.30
  -5   3  10  287.97   27.00
  -5   3  10  338.37   24.60
  -5   3  10  331.47   22.40
   4  -3 -10  192.08   24.10
   4  -3 -10  190.48   15.40
  -4   3  10  186.88   15.80
  -4   3  10  189.98   15.10
  -4   3  10  195.38   18.40
   3  -3 -10  121.49   21.80
  -3   3  10  132.59   16.50
  -3   3  10  128.09   13.20
  -3   3  10  110.09   11.80
   2  -3 -10  309.97   22.00
   2  -3 -10  288.97   22.30
   2  -3 -10  254.67   28.10
  -2   3  10  253.57   19.30
  -2   3  10  314.77   22.00
  -2   3  10  273.47   20.20
   1  -3 -10  386.66   36.00
   1  -3 -10  504.85   31.30
   1  -3 -10  478.15   32.30
  -1   3  10  478.25   29.60
  -1   3  10  483.75   31.20
  -1   3  10  427.86   29.10
   0  -3 -10   31.50   10.00
   0   3  10   26.70    7.70
   0   3  10   18.00   11.30
   0   3  10   24.40    8.30
  -1  -3 -10  328.67   32.30
  -1  -3 -10  368.66   25.70
   1   3  10  340.67   27.30
   1   3  10  320.47   24.80
  -2  -3 -10  170.68   26.80
  -2  -3 -10  235.58   21.90
   2   3  10  190.88   22.70
   2   3  10  160.48   21.50
   8  -4 -10  193.08   17.40
  -8   4  10  223.78   19.90
  -8   4  10  200.98   25.60
   7  -4 -10  622.54   41.00
  -7   4  10  560.04   45.10
  -7   4  10  667.33   41.70
  -7   4  10  674.13   42.70
  -7   4  10  702.73   40.40
   6  -4 -10   31.00    9.10
  -6   4  10   17.70   10.80
  -6   4  10    9.30   14.10
  -6   4  10   27.60    7.90
  -6   4  10   16.50   11.00
   5  -4 -10  329.27   24.20
  -5   4  10  378.06   25.90
  -5   4  10  339.77   24.00
  -5   4  10  365.86   25.70
   4  -4 -10  398.46   28.40
  -4   4  10  469.75   29.90
   3  -4 -10  329.57   23.20
   3  -4 -10  285.87   23.10
  -3   4  10  294.27   23.10
  -3   4  10  275.37   21.60
   2  -4 -10   16.40    9.60
   2  -4 -10   16.70   10.60
  -2   4  10   10.70    7.70
  -2   4  10    7.90   10.30
   1  -4 -10  210.58   19.00
   1  -4 -10  161.28   19.70
  -1   4  10  203.38   19.30
  -1   4  10  179.28   17.00
   0  -4 -10  204.68   26.50
   0  -4 -10  233.18   21.70
   0   4  10  303.47   29.00
  -1  -4 -10  217.28   28.60
  -1  -4 -10  229.08   20.90
   1   4  10  224.58   24.30
  -8   5  10   -9.00   16.30
  -8   5  10   -6.50   12.10
  -8   5  10   -4.10   14.20
   7  -5 -10   99.89   13.40
  -7   5  10   98.59   17.00
  -7   5  10   75.59   17.90
  -7   5  10  109.89   16.90
   6  -5 -10  391.46   28.30
   6  -5 -10  414.96   28.40
  -6   5  10  466.75   29.40
  -6   5  10  468.05   30.50
  -6   5  10  344.57   32.60
   5  -5 -10  132.19   15.10
  -5   5  10  166.68   17.70
  -5   5  10  118.89   20.60
  -5   5  10  178.98   16.60
   4  -5 -10   24.10    9.70
   4  -5 -10   21.00   12.00
  -4   5  10   -4.80   10.70
  -4   5  10   11.20   10.40
   3  -5 -10  155.08   19.00
  -3   5  10  149.69   17.90
  -3   5  10  138.29   17.70
   2  -5 -10  489.45   33.10
  -2   5  10  471.45   32.60
  -2   5  10  477.85   33.10
   1  -5 -10  100.39   13.70
  -1   5  10  106.29   17.60
   0  -5 -10   36.00   12.50
   0   5  10   61.39   12.90
   0   5  10   50.09   14.50
   7  -6 -10   42.40   11.30
  -7   6  10   59.19   12.50
  -7   6  10   66.99   12.00
  -7   6  10   33.90   17.20
   6  -6 -10   42.70   12.60
   6  -6 -10   37.10   11.00
  -6   6  10   43.60   13.50
  -6   6  10   44.10   19.50
  -6   6  10   68.19   11.90
   5  -6 -10  192.18   20.70
   5  -6 -10  176.08   18.40
   5  -6 -10  203.38   24.80
  -5   6  10  256.97   21.00
  -5   6  10  245.88   20.90
   4  -6 -10  351.06   28.00
  -4   6  10  347.37   27.10
  -4   6  10  309.77   25.90
   3  -6 -10   58.09   13.10
  -3   6  10   44.60   12.90
  -3   6  10   39.60   12.90
   2  -6 -10   88.49   14.50
  -2   6  10   88.39   14.40
   1  -6 -10  255.67   25.40
  -1   6  10  252.07   24.20
  -1   6  10  260.77   24.60
   7  -7 -10  177.48   18.30
  -6   7  10  245.98   25.90
  -6   7  10  269.37   24.40
   5  -7 -10    2.10   12.90
   5  -7 -10   21.30   14.10
  -5   7  10   14.00   11.40
   4  -7 -10  127.89   23.40
   4  -7 -10  102.89   18.00
  -4   7  10  112.29   14.60
  -4   7  10  122.99   19.70
   3  -7 -10  299.87   29.30
   3  -7 -10  359.06   28.90
  -3   7  10  327.67   29.10
  -3   7  10  351.56   29.50
   2  -7 -10   64.89   15.30
  -2   7  10   63.09   13.10
   1   8 -11  184.18   36.80
   1   8 -11  213.98   19.70
  -1  -8  11  267.17   21.30
   0   8 -11  172.88   36.70
   0   8 -11  211.28   19.50
   0  -8  11  213.08   19.90
   1  -8  11   20.80   11.00
   3   7 -11  375.96   27.00
   3   7 -11  337.87   35.10
   3   7 -11  347.67   41.70
  -3  -7  11  394.76   28.40
   2   7 -11  205.28   36.40
   2   7 -11  164.08   28.40
   2   7 -11  188.08   17.40
  -2  -7  11  177.98   18.00
   1   7 -11   39.00   21.60
   1   7 -11   63.99   11.30
   1   7 -11   53.99   19.50
  -1  -7  11   50.29   10.60
   0   7 -11  249.88   35.10
   0   7 -11  194.18   30.20
   0   7 -11  225.58   20.40
   0  -7  11  248.98   20.00
  -1   7 -11  425.76   29.50
   1  -7  11  438.96   30.10
  -2   7 -11    2.70    8.90
  -2   7 -11    7.70   20.40
   2  -7  11   -9.80   10.70
   4   6 -11   44.20   11.20
   4   6 -11   48.10   23.80
   4   6 -11   27.80   18.20
  -4  -6  11   39.70    9.90
   3   6 -11   47.50   23.50
   3   6 -11   72.09   12.30
   3   6 -11   54.19   19.60
  -3  -6  11   59.89   10.00
   2   6 -11  313.07   40.90
   2   6 -11  323.67   33.60
   2   6 -11  330.37   24.70
   1   6 -11  481.95   42.60
   1   6 -11  375.86   36.10
   1   6 -11  456.05   30.00
   0   6 -11   -0.40    9.30
   0   6 -11   36.80   19.70
   0   6 -11   15.20   20.30
  -1   6 -11  100.69   23.10
  -1   6 -11  143.79   15.90
  -2   6 -11  249.88   20.10
  -2   6 -11  192.98   30.40
   2  -6  11  243.08   20.20
   5   5 -11   87.69   25.80
   5   5 -11   45.20   20.10
   5   5 -11   92.69   12.70
  -5  -5  11   75.89   12.10
  -5  -5  11   55.69   17.50
  -5  -5  11   97.59   14.20
   4   5 -11  457.95   30.50
   4   5 -11  438.16   43.30
   4   5 -11  352.06   34.30
  -4  -5  11  409.46   29.30
  -4  -5  11  407.96   30.30
   3   5 -11  272.97   22.50
   3   5 -11  356.96   37.30
   3   5 -11  267.47   29.00
  -3  -5  11  314.37   24.10
  -3  -5  11  272.77   22.60
   2   5 -11   33.10   19.00
   2   5 -11   13.90   15.50
   2   5 -11   -5.20    9.00
  -2  -5  11    2.70   11.00
  -2  -5  11   -7.80    7.70
   1   5 -11  321.27   23.90
   1   5 -11  325.97   34.30
   1   5 -11  277.17   31.90
  -1  -5  11  333.67   22.90
   0   5 -11  334.27   34.10
   0   5 -11  362.06   25.70
   0  -5  11  387.56   25.20
  -1   5 -11   62.89   20.30
  -1   5 -11   74.39   10.60
  -2   5 -11   33.50    9.00
  -2   5 -11  -10.80   22.20
   2  -5  11   21.60    9.80
  -3   5 -11  189.78   17.10
  -3   5 -11  168.28   26.70
   3  -5  11  164.38   19.70
   6   4 -11  460.15   34.10
   6   4 -11  450.55   41.00
   6   4 -11  482.85   46.20
  -6  -4  11  440.86   37.30
  -6  -4  11  497.35   35.50
  -6  -4  11  530.25   33.10
   5   4 -11   85.29   25.10
   5   4 -11   77.49   18.90
   5   4 -11   90.69   12.70
  -5  -4  11   77.89   19.20
  -5  -4  11   68.49   13.60
   4   4 -11    8.50   20.70
   4   4 -11   16.40   16.70
   4   4 -11  -10.80    9.90
  -4  -4  11    6.60    8.70
  -4  -4  11   -1.60   15.40
   3   4 -11  185.08   27.10
   3   4 -11  220.28   18.80
   3   4 -11  207.28   32.00
  -3  -4  11  219.38   18.10
  -3  -4  11  207.48   18.40
   2   4 -11  577.54   35.80
   2   4 -11  514.75   41.60
   2   4 -11  514.15   42.50
  -2  -4  11  567.54   34.70
  -2  -4  11  538.35   35.10
   1   4 -11  144.99   14.90
   1   4 -11  149.49   24.50
  -1  -4  11  125.39   15.50
  -1  -4  11  123.29   15.80
   0   4 -11   16.00   17.60
   0   4 -11   17.60    9.50
   0  -4  11   15.70    8.60
  -1   4 -11  449.06   39.70
  -1   4 -11  526.05   32.70
   1  -4  11  519.25   32.50
  -2   4 -11  336.77   35.50
  -2   4 -11  458.15   28.20
  -3   4 -11   -7.20    9.40
  -3   4 -11  -33.80   19.30
  -3   4 -11   -2.80   15.20
   3  -4  11   -9.50    9.60
   7   3 -11   46.40   19.00
   7   3 -11   62.59   13.30
   7   3 -11   56.39    9.70
  -7  -3  11   46.50   16.50
  -7  -3  11   52.69   14.10
  -7  -3  11   58.69   11.50
   6   3 -11    9.30   18.20
   6   3 -11  -20.40   23.00
   6   3 -11    4.20   11.70
  -6  -3  11  -20.90   12.50
  -6  -3  11    6.30   10.00
  -6  -3  11   -7.70   14.80
   5   3 -11  438.16   42.70
   5   3 -11  438.26   29.30
   5   3 -11  358.36   36.30
  -5  -3  11  426.26   27.20
  -5  -3  11  324.47   31.60
  -5  -3  11  432.36   29.70
   4   3 -11  398.86   27.00
   4   3 -11  375.56   38.40
   4   3 -11  383.56   33.30
  -4  -3  11  395.46   26.20
  -4  -3  11  317.77   30.00
   3   3 -11   40.20   17.00
   3   3 -11   38.40   10.10
  -3  -3  11   35.40    8.20
  -3  -3  11   29.20   10.40
   2   3 -11   58.09   10.60
   2   3 -11   20.20   16.60
  -2  -3  11   34.80    9.90
  -2  -3  11   25.40    8.20
   1   3 -11  644.34   47.80
   1   3 -11  678.83   42.10
  -1  -3  11  692.23   41.80
  -1  -3  11  684.53   42.00
   0   3 -11  251.97   28.00
   0   3 -11  265.97   20.10
   0  -3  11  249.38   20.40
   0  -3  11  226.88   19.60
  -1   3 -11  -22.80   17.80
  -1   3 -11    4.10    8.30
   1  -3  11    5.20    9.70
  -2   3 -11   52.69   21.80
  -2   3 -11   97.69   14.20
  -2   3 -11   65.49   17.40
  -3   3 -11  293.67   30.00
  -3   3 -11  326.67   23.50
   3  -3  11  334.47   24.70
   7   2 -11  366.46   25.50
   7   2 -11  445.46   31.40
   7   2 -11  352.06   36.90
  -7  -2  11  454.65   30.30
  -7  -2  11  328.27   31.80
   6   2 -11  150.78   26.50
   6   2 -11  184.28   15.20
  -6  -2  11  242.68   21.10
  -6  -2  11  195.48   23.00
   5   2 -11   52.59   17.40
   5   2 -11   65.09   11.50
  -5  -2  11   64.29    9.40
  -5  -2  11   51.69   12.00
  -5  -2  11   53.59   15.30
   4   2 -11  338.77   24.00
   4   2 -11  285.97   29.80
  -4  -2  11  311.77   21.50
  -4  -2  11  275.27   26.30
   3   2 -11  699.83   51.59
   3   2 -11  782.42   46.90
  -3  -2  11  716.63   45.80
  -3  -2  11  799.02   46.40
   2   2 -11  148.69   16.30
   2   2 -11  159.18   24.20
  -2  -2  11  145.29   16.40
  -2  -2  11  164.28   14.20
   1   2 -11    2.70    9.80
   1   2 -11    1.80   17.00
  -1  -2  11    5.00    8.70
  -1  -2  11   11.60    9.20
   0   2 -11  385.06   25.60
   0   2 -11  315.47   31.70
   0  -2  11  362.96   24.40
   0  -2  11  360.86   25.30
  -1   2 -11  434.46   29.60
   1  -2  11  439.86   29.70
  -2   2 -11   57.89    9.80
  -2   2 -11   33.60   20.60
  -2   2 -11   55.49   17.10
   2  -2  11   45.20   11.50
  -3   2 -11   10.20    9.60
  -3   2 -11    6.40   15.40
   3  -2  11    9.50    9.30
   7   1 -11   30.20   13.20
   7   1 -11   18.30    7.90
   7   1 -11    1.10   18.80
  -7  -1  11    7.80   14.70
  -7  -1  11   -5.00   12.20
   6   1 -11  154.78   25.80
   6   1 -11  206.48   20.70
   6   1 -11  179.28   15.00
  -6  -1  11  196.68   17.20
  -6  -1  11  227.38   20.20
  -6  -1  11  157.28   22.00
   5   1 -11  587.54   35.80
   5   1 -11  486.15   32.70
   5   1 -11  514.85   40.40
  -5  -1  11  444.76   37.50
  -5  -1  11  578.44   35.30
  -5  -1  11  562.14   33.60
   4   1 -11  164.18   24.80
   4   1 -11  178.08   18.50
  -4  -1  11  184.78   15.80
  -4  -1  11  155.38   20.70
  -4  -1  11  162.78   14.60
  -4  -1  11  159.98   20.60
   3   1 -11   -5.20   16.40
   3   1 -11    2.80   10.00
  -3  -1  11    7.20    8.20
  -3  -1  11    6.90    5.40
  -3  -1  11    8.20   10.60
   2   1 -11  346.37   32.90
   2   1 -11  417.26   27.90
  -2  -1  11  377.46   27.10
  -2  -1  11  396.56   26.10
   1   1 -11  403.86   25.80
   1   1 -11  303.97   31.90
  -1  -1  11  380.06   25.80
  -1  -1  11  366.46   25.20
   0   1 -11   74.99   10.60
   0  -1  11   83.69   11.00
   0  -1  11   82.49   13.20
  -1   1 -11   20.90   17.80
  -1   1 -11   33.00   10.40
  -1   1 -11   42.80   12.10
   1  -1  11   22.20   10.20
   1  -1  11   32.20    9.90
  -2   1 -11  280.97   28.80
  -2   1 -11  317.07   23.30
   2  -1  11  299.57   21.80
  -3   1 -11   85.79   19.40
  -3   1 -11  103.99   21.70
   8   0 -11  228.08   19.20
   8   0 -11  265.97   26.90
   7   0 -11  440.06   29.60
   7   0 -11  448.56   38.70
   7   0 -11  508.65   34.20
  -7   0  11  377.56   35.10
  -7   0  11  494.95   32.80
   6   0 -11   18.20    8.00
   6   0 -11    4.70   16.50
   6   0 -11   13.80   11.30
  -6   0  11   16.10   14.50
  -6   0  11   19.10   11.10
  -6   0  11   25.30    9.00
   5   0 -11   49.30   17.70
   5   0 -11   98.29   12.70
   5   0 -11   56.49    9.10
  -5   0  11   67.39   15.50
  -5   0  11   91.19   12.70
  -5   0  11   77.09   12.50
   4   0 -11  276.97   29.30
   4   0 -11  350.76   23.70
   4   0 -11  279.27   19.90
  -4   0  11  277.47   20.70
  -4   0  11  248.48   25.60
  -4   0  11  340.47   24.50
  -4   0  11  317.17   21.40
   3   0 -11  390.56   35.70
   3   0 -11  490.25   30.40
  -3   0  11  470.15   28.80
  -3   0  11  412.56   27.40
   2   0 -11   14.40   16.50
   2   0 -11   25.90   10.30
  -2   0  11   18.30   10.80
  -2   0  11   24.80    8.40
   1   0 -11  106.19   14.60
   1   0 -11   68.39   18.30
  -1   0  11   99.29   13.00
  -1   0  11  104.29   14.10
   0   0 -11  613.54   37.20
   0   0 -11  495.45   42.60
   0   0 -11  582.04   40.10
   0   0  11  570.24   37.00
   0   0  11  622.14   36.70
  -1   0 -11  250.27   29.10
  -1   0 -11  286.47   29.00
  -1   0 -11  303.47   23.00
   1   0  11  291.67   21.20
  -2   0 -11   13.00   16.60
  -2   0 -11   19.40   18.50
  -2   0 -11    1.70    9.60
   2   0  11   15.60    9.40
   8  -1 -11   91.29   11.90
   8  -1 -11   76.29   15.70
  -8   1  11   54.09   16.60
  -8   1  11   96.29   14.70
   7  -1 -11   80.39   12.70
   7  -1 -11   83.99   14.90
  -7   1  11  108.69   14.10
  -7   1  11   88.59   13.70
   6  -1 -11  376.56   27.30
   6  -1 -11  470.45   30.60
   6  -1 -11  375.86   34.50
  -6   1  11  436.86   27.50
  -6   1  11  467.65   29.80
  -6   1  11  350.16   32.20
   5  -1 -11  394.66   27.70
   5  -1 -11  459.85   30.70
   5  -1 -11  407.16   35.50
  -5   1  11  417.26   28.40
  -5   1  11  456.35   28.40
  -5   1  11  472.55   30.50
   4  -1 -11  -16.70   16.20
   4  -1 -11    4.80    7.80
   4  -1 -11   11.40   10.60
  -4   1  11    6.80    7.00
  -4   1  11   10.60   10.50
  -4   1  11   17.40    7.80
   3  -1 -11  318.67   31.50
   3  -1 -11  379.96   25.90
  -3   1  11  315.57   22.80
  -3   1  11  358.06   23.60
  -3   1  11  377.26   25.80
   2  -1 -11  364.86   33.50
   2  -1 -11  442.56   30.20
  -2   1  11  457.85   27.70
  -2   1  11  455.55   31.70
  -2   1  11  449.66   28.30
   1  -1 -11  123.59   23.80
   1  -1 -11  170.28   17.20
  -1   1  11  150.88   14.50
  -1   1  11  171.18   19.80
   0  -1 -11   16.00   13.70
   0  -1 -11   17.00   17.70
   0  -1 -11   21.70   10.20
   0   1  11   17.70    8.30
   0   1  11   26.00   11.60
  -1  -1 -11  156.28   22.90
  -1  -1 -11  129.59   24.40
  -1  -1 -11  166.28   18.60
   1   1  11  160.68   14.80
  -2  -1 -11  133.69   25.50
   2   1  11  128.69   15.00
   8  -2 -11  275.67   28.10
   8  -2 -11  221.08   18.50
  -8   2  11  219.58   25.50
   7  -2 -11  171.68   27.50
   7  -2 -11  169.68   16.00
   7  -2 -11  199.48   22.50
  -7   2  11  133.59   22.90
  -7   2  11  163.88   19.90
  -7   2  11  172.08   16.10
   6  -2 -11    5.00   12.20
   6  -2 -11   16.60    9.40
   6  -2 -11   12.60   16.20
  -6   2  11   -0.40    8.20
  -6   2  11  -12.30   14.10
  -6   2  11   -9.30   11.00
  -6   2  11   -0.30   10.90
   5  -2 -11  241.58   19.60
   5  -2 -11  274.27   23.10
   5  -2 -11  244.98   27.80
  -5   2  11  271.47   19.40
  -5   2  11  284.07   22.10
   4  -2 -11  345.17   25.10
   4  -2 -11  391.16   27.80
   4  -2 -11  354.66   32.90
  -4   2  11  377.56   27.50
  -4   2  11  379.56   25.30
  -4   2  11  398.46   24.70
   3  -2 -11  179.38   25.00
   3  -2 -11  192.38   19.20
  -3   2  11  183.98   15.30
  -3   2  11  177.78   15.90
  -3   2  11  175.28   18.80
   2  -2 -11   85.79   11.80
   2  -2 -11   70.19   18.60
  -2   2  11   93.99   12.50
  -2   2  11   76.89   12.20
  -2   2  11   73.79   10.70
   1  -2 -11  405.46   27.70
   1  -2 -11  316.17   31.40
   1  -2 -11  371.56   29.40
  -1   2  11  383.26   25.00
  -1   2  11  410.36   27.80
   0  -2 -11  233.78   26.00
   0  -2 -11  160.38   26.50
   0  -2 -11  235.38   20.00
   0   2  11  230.98   21.60
   0   2  11  204.38   16.80
  -1  -2 -11   55.59   19.40
  -1  -2 -11   27.70   10.80
   1   2  11   22.30    9.70
   8  -3 -11   16.90    8.80
   7  -3 -11  303.87   23.70
   7  -3 -11  314.67   32.50
   7  -3 -11  373.86   29.80
  -7   3  11  312.57   27.10
  -7   3  11  334.77   27.10
  -7   3  11  334.27   25.60
  -7   3  11  249.78   28.80
   6  -3 -11  404.96   30.10
   6  -3 -11  484.15   33.30
   6  -3 -11  447.46   38.20
  -6   3  11  444.66   31.90
  -6   3  11  449.76   31.90
  -6   3  11  475.95   29.60
   5  -3 -11   33.30   17.30
   5  -3 -11   21.80    9.90
   5  -3 -11   43.70   12.40
  -5   3  11   27.10   10.40
  -5   3  11   17.50    8.40
  -5   3  11   18.20   15.40
  -5   3  11   29.30   11.80
   4  -3 -11   62.99   10.20
   4  -3 -11   88.99   19.00
   4  -3 -11   91.69   13.30
  -4   3  11   81.19   11.60
  -4   3  11   68.69   12.40
  -4   3  11   88.89   12.10
   3  -3 -11  233.88   29.40
   3  -3 -11  330.97   23.50
  -3   3  11  291.37   23.00
  -3   3  11  265.07   20.70
  -3   3  11  276.27   19.90
   2  -3 -11  210.48   22.00
   2  -3 -11  317.77   22.40
   2  -3 -11  239.78   28.90
  -2   3  11  279.57   22.40
  -2   3  11  269.17   19.30
  -2   3  11  244.58   21.70
   1  -3 -11   27.90   15.40
   1  -3 -11   11.50   11.30
  -1   3  11    9.30   12.00
   0  -3 -11   62.59   12.10
   0  -3 -11   74.59   18.40
  -1  -3 -11  262.47   32.10
   1   3  11  258.07   26.70
   7  -4 -11   55.59   10.60
   7  -4 -11   42.10   16.20
  -7   4  11   70.59   12.80
  -7   4  11   59.89   12.80
  -7   4  11   38.50   16.90
  -7   4  11   67.59   10.30
   6  -4 -11  149.29   16.60
   6  -4 -11  212.88   22.30
  -6   4  11  171.58   21.40
  -6   4  11  118.49   23.30
  -6   4  11  161.48   20.30
  -6   4  11  157.78   19.70
   5  -4 -11  315.97   25.70
   5  -4 -11  384.36   29.10
  -5   4  11  374.56   27.30
  -5   4  11  377.76   27.60
   4  -4 -11  127.39   13.80
   4  -4 -11  162.08   19.40
  -4   4  11  131.69   17.10
  -4   4  11  122.09   18.10
   3  -4 -11   -3.90   11.80
  -3   4  11   -8.30   11.60
  -3   4  11    6.50   11.60
   2  -4 -11  265.17   22.70
  -2   4  11  236.78   22.60
  -2   4  11  209.38   25.50
   1  -4 -11  332.27   25.40
  -1   4  11  260.67   26.20
   0  -4 -11   34.20   12.90
   7  -5 -11  165.58   19.90
  -7   5  11  167.08   28.00
  -7   5  11  233.98   23.60
   6  -5 -11  162.48   22.50
   6  -5 -11  154.48   15.90
  -6   5  11  161.98   19.60
  -6   5  11  176.98   18.90
  -6   5  11  119.59   24.90
   5  -5 -11   -6.60   13.20
   5  -5 -11   -9.50    9.70
  -5   5  11    4.30   12.00
  -5   5  11   -2.60   12.70
   4  -5 -11  401.36   31.50
  -4   5  11  406.16   30.30
  -4   5  11  411.56   30.60
   3  -5 -11  217.98   22.60
  -3   5  11  180.08   20.30
  -3   5  11  168.18   21.40
   2  -5 -11   67.69   12.60
  -2   5  11   59.79   14.00
  -2   5  11   49.80   12.10
   1  -5 -11   39.30   13.70
  -6   6  11  202.08   22.50
   5  -6 -11  178.88   21.70
   5  -6 -11  148.49   17.60
   5  -6 -11  257.47   28.10
  -5   6  11  220.88   24.00
   4  -6 -11   14.70   14.60
  -4   6  11    6.40   13.80
  -4   6  11   37.40   12.40
   3  -6 -11   44.70   14.90
  -3   6  11   26.40   13.70
   3   6 -12  307.67   42.60
  -3  -6  12  359.56   27.10
   2   6 -12  239.68   20.70
   2   6 -12  264.27   41.60
   2   6 -12  192.18   29.50
  -2  -6  12  195.38   19.70
   1   6 -12    9.50   11.20
   1   6 -12   33.10   18.30
   1   6 -12   36.00   23.20
  -1  -6  12    3.00    9.80
   0   6 -12  147.69   17.30
   0   6 -12  135.99   28.30
   0  -6  12  150.68   19.30
  -1   6 -12  259.07   21.70
   1  -6  12  300.67   24.60
   4   5 -12  192.98   37.90
   4   5 -12  228.18   22.20
   4   5 -12  194.38   30.50
  -4  -5  12  185.08   20.10
   3   5 -12    1.40   19.60
   3   5 -12   -6.00   23.30
   3   5 -12    2.00   10.60
  -3  -5  12    3.70    9.10
   2   5 -12  110.19   23.10
   2   5 -12  118.99   23.90
   2   5 -12  153.78   16.90
  -2  -5  12  130.49   15.40
   1   5 -12  335.47   25.30
   1   5 -12  302.77   35.00
  -1  -5  12  383.86   26.20
   0   5 -12  123.89   16.80
   0   5 -12   98.39   23.80
   0  -5  12  140.99   17.50
  -1   5 -12   15.00   20.80
  -1   5 -12  -12.90   10.80
   1  -5  12    9.70   11.70
   5   4 -12   13.20   19.50
   5   4 -12    4.40   13.20
   5   4 -12    4.20   23.90
  -5  -4  12   19.10   13.90
  -5  -4  12    5.60   10.50
   4   4 -12  268.67   22.70
   4   4 -12  226.98   42.60
   4   4 -12  202.28   31.20
  -4  -4  12  259.27   23.80
  -4  -4  12  255.67   21.10
   3   4 -12  259.07   22.10
   3   4 -12  230.58   31.20
  -3  -4  12  250.07   25.70
   2   4 -12   95.09   12.50
   2   4 -12   67.99   19.00
   1   4 -12   42.90   11.80
   1   4 -12   16.30   18.20
   0   4 -12  307.47   32.70
   0   4 -12  362.16   25.90
   0  -4  12  348.57   26.40
  -1   4 -12  173.68   18.70
   1  -4  12  207.88   18.20
   6   3 -12  171.98   30.60
   6   3 -12  242.78   25.40
  -6  -3  12  221.08   18.80
  -6  -3  12  149.88   28.00
  -6  -3  12  228.18   25.20
   5   3 -12  364.56   28.40
   5   3 -12  308.57   35.30
  -5  -3  12  370.36   25.10
  -5  -3  12  368.66   29.50
   4   3 -12   20.60   12.20
   4   3 -12    5.60   19.30
  -4  -3  12   32.20   13.60
   3   3 -12   45.40   19.70
   3   3 -12   85.79   12.50
  -3  -3  12   68.89   11.60
  -3  -3  12   63.69   17.00
   2   3 -12  193.78   29.10
   2   3 -12  260.47   22.20
  -2  -3  12  249.38   19.90
  -2  -3  12  244.68   22.10
   1   3 -12  320.97   35.00
   1   3 -12  386.46   26.40
  -1  -3  12  376.16   25.20
   0   3 -12   18.10   10.10
   0   3 -12    0.40   18.10
  -1   3 -12  156.78   18.20
   1  -3  12  178.08   17.60
   2  -3  12  238.18   21.40
   6   2 -12    7.20   13.10
   6   2 -12  -18.80   19.90
  -6  -2  12  -10.30   16.10
  -6  -2  12    9.70   14.00
  -6  -2  12   -1.50    9.80
   5   2 -12   89.89   20.80
   5   2 -12  117.19   14.90
  -5  -2  12  127.89   20.20
  -5  -2  12   73.19   18.20
   4   2 -12  408.66   40.10
   4   2 -12  515.25   34.30
  -4  -2  12  506.85   32.20
  -4  -2  12  525.55   35.90
   3   2 -12  205.58   26.10
   3   2 -12  229.78   21.00
  -3  -2  12  225.18   22.90
  -3  -2  12  230.78   18.70
   2   2 -12  120.19   17.60
   2   2 -12   61.59   20.30
  -2  -2  12  102.19   14.50
   1   2 -12   99.99   15.80
  -1  -2  12  100.99   14.70
  -1  -2  12   99.09   13.70
   0   2 -12  194.58   30.30
   0   2 -12  260.67   22.20
   0  -2  12  286.57   20.70
  -1   2 -12  104.99   18.70
  -1   2 -12  114.59   15.60
   7   1 -12   80.09   24.10
   7   1 -12  139.09   22.10
   7   1 -12   91.09   13.20
  -7  -1  12  144.79   17.50
  -7  -1  12  127.19   14.80
   6   1 -12  383.96   36.70
   6   1 -12  350.26   26.30
  -6  -1  12  433.36   28.70
  -6  -1  12  314.67   32.40
  -6  -1  12  464.65   30.80
   5   1 -12   73.99   20.00
   5   1 -12  121.09   14.60
  -5  -1  12   97.39   14.80
  -5  -1  12   77.29   18.20
  -5  -1  12   94.59   13.10
   4   1 -12   24.10   11.80
   4   1 -12   19.70   18.70
  -4  -1  12   16.70   12.40
  -4  -1  12   26.00    8.00
   3   1 -12  173.38   27.20
   3   1 -12  198.38   19.80
  -3  -1  12  197.78   20.90
  -3  -1  12  203.08   17.30
   2   1 -12  495.55   32.50
  -2  -1  12  431.16   34.70
  -2  -1  12  478.35   31.20
   1   1 -12   98.69   12.60
  -1  -1  12   91.89   14.30
   0   1 -12   55.49   12.20
   0   1 -12   27.30   17.80
   0  -1  12   58.49   10.50
  -1   1 -12  240.88   26.80
  -1   1 -12  266.87   21.10
  -1   1 -12  174.78   28.30
   7   0 -12   79.09   12.00
   7   0 -12   52.19   22.50
   7   0 -12   86.39   16.10
  -7   0  12   94.29   14.40
  -7   0  12   90.69   14.60
   6   0 -12   42.30    9.10
   6   0 -12   22.00   14.10
   6   0 -12    2.00   20.80
  -6   0  12   24.30   16.40
  -6   0  12   43.40   13.90
   5   0 -12  422.56   29.50
   5   0 -12  323.17   25.40
   5   0 -12  338.17   36.70
  -5   0  12  410.96   26.50
  -5   0  12  423.56   29.60
   4   0 -12  264.27   22.60
   4   0 -12  192.38   25.90
  -4   0  12  235.68   22.30
  -4   0  12  242.28   19.00
   3   0 -12   15.60   11.40
   3   0 -12  -23.30   15.40
  -3   0  12   14.70    8.70
  -3   0  12   -2.20   12.20
   2   0 -12   87.99   12.90
   2   0 -12   55.49   19.90
  -2   0  12   78.79   13.30
  -2   0  12   90.29   12.90
   1   0 -12  269.77   22.40
   1   0 -12  213.58   29.80
  -1   0  12  285.57   20.30
  -1   0  12  274.37   25.30
   0   0 -12  162.98   17.80
   0   0 -12  157.88   23.40
   0   0  12  126.29   19.20
   0   0  12  130.29   15.30
  -1   0 -12   18.40   18.80
  -1   0 -12  -12.60   16.50
   7  -1 -12  210.18   29.20
   7  -1 -12  212.28   18.30
  -7   1  12  172.28   27.10
   6  -1 -12  312.97   27.00
   6  -1 -12  280.77   21.30
   6  -1 -12  283.27   32.00
  -6   1  12  329.87   22.00
  -6   1  12  244.18   28.50
  -6   1  12  306.67   24.50
  -6   1  12  303.37   26.00
   5  -1 -12   10.50   12.70
   5  -1 -12   16.00    8.70
   5  -1 -12    9.80   18.40
  -5   1  12   11.30   12.60
  -5   1  12    1.80   15.90
  -5   1  12   14.70    8.50
  -5   1  12    4.00   13.70
   4  -1 -12  185.38   28.30
   4  -1 -12  235.88   22.30
  -4   1  12  240.08   18.10
  -4   1  12  222.78   22.20
   3  -1 -12  496.25   44.60
   3  -1 -12  643.54   39.50
  -3   1  12  597.54   37.70
  -3   1  12  625.64   39.50
   2  -1 -12  109.69   16.70
   2  -1 -12   48.80   20.30
  -2   1  12   85.69   12.30
  -2   1  12   86.59   14.00
   1  -1 -12   28.10   15.40
   1  -1 -12   25.60   12.00
   1  -1 -12   40.60   19.10
  -1   1  12   26.30    8.90
  -1   1  12   30.40   12.80
   0  -1 -12  149.59   23.60
   0  -1 -12  118.09   25.10
   0  -1 -12  131.59   18.90
   0   1  12  131.69   20.40
   0   1  12  130.39   14.30
   7  -2 -12    7.80   15.40
   7  -2 -12    1.80   21.90
   7  -2 -12    1.50    8.50
  -7   2  12   27.50   14.10
   6  -2 -12  253.47   25.60
   6  -2 -12  227.08   30.30
   6  -2 -12  195.88   18.00
  -6   2  12  256.67   23.50
  -6   2  12  226.08   22.40
  -6   2  12  274.37   19.10
   5  -2 -12  423.66   30.90
   5  -2 -12  347.67   35.50
  -5   2  12  399.86   28.40
  -5   2  12  408.06   26.80
  -5   2  12  390.06   30.10
   4  -2 -12   55.19   13.40
   4  -2 -12   33.70   19.70
  -4   2  12   52.09   13.20
  -4   2  12   39.80    9.60
   3  -2 -12   16.30   19.70
   3  -2 -12   36.90   12.20
  -3   2  12   28.00    9.20
  -3   2  12   28.30   13.10
   2  -2 -12  261.47   27.80
   2  -2 -12  292.27   23.30
   2  -2 -12  232.68   30.20
  -2   2  12  239.18   19.30
  -2   2  12  256.77   24.10
   1  -2 -12   94.99   21.30
   1  -2 -12  153.18   18.80
   1  -2 -12  147.89   21.90
  -1   2  12  119.79   14.00
  -1   2  12  147.09   20.70
   0  -2 -12   21.20   19.00
   0  -2 -12    0.90   16.80
   0   2  12    2.50   14.30
   0   2  12    9.70    9.70
   7  -3 -12  161.58   24.40
   7  -3 -12   90.39   23.00
   7  -3 -12  107.69   14.70
  -7   3  12  144.89   15.90
   6  -3 -12   67.29   11.40
   6  -3 -12   60.39   15.30
   6  -3 -12   60.59   22.70
  -6   3  12   62.29    9.70
  -6   3  12   65.59   14.20
  -6   3  12   60.69   13.10
  -6   3  12   46.30   18.50
   5  -3 -12   23.10   10.50
   5  -3 -12   62.19   14.70
   5  -3 -12   49.80   19.70
  -5   3  12   44.10   13.30
  -5   3  12   40.70    9.70
  -5   3  12   23.00   12.70
   4  -3 -12  466.55   32.50
   4  -3 -12  392.06   37.40
  -4   3  12  445.66   31.90
  -4   3  12  402.06   30.90
  -4   3  12  434.36   36.90
   3  -3 -12  111.39   15.60
   3  -3 -12  124.99   25.70
  -3   3  12  133.49   20.10
   2  -3 -12   55.39   19.80
   2  -3 -12   41.20   11.50
   2  -3 -12   25.10   19.70
  -2   3  12   64.79   14.40
   1  -3 -12  134.79   21.70
  -1   3  12  133.59   22.10
   6  -4 -12  180.28   17.60
   6  -4 -12  247.28   26.40
  -6   4  12  239.98   23.80
   5  -4 -12  180.48   23.20
   5  -4 -12  119.99   14.60
  -5   4  12  128.89   19.30
  -5   4  12  147.59   19.80
   4  -4 -12    5.50   14.30
  -4   4  12   20.90   13.30
   3  -4 -12  206.28   23.20
  -3   4  12  162.78   21.90
   2  -4 -12  228.08   21.70
  -2   4  12  227.58   23.60
  -3  -4  13   69.29   12.50
  -2  -4  13   49.50   10.70
  -1  -4  13  144.99   18.60
   4   3 -13   94.79   23.40
  -4  -3  13  113.99   16.70
  -4  -3  13  141.79   21.10
   3   3 -13  295.47   24.90
   3   3 -13  220.38   31.90
  -3  -3  13  313.57   23.00
   2   3 -13  164.78   19.90
  -2  -3  13  166.28   16.60
   1   3 -13   18.70   15.80
   1   3 -13  -18.10   21.60
  -1  -3  13  -15.00    9.40
   5   2 -13  183.88   29.20
  -5  -2  13  227.08   26.00
  -5  -2  13  234.78   18.70
   4   2 -13  190.08   20.70
  -4  -2  13  180.28   23.60
  -4  -2  13  169.18   17.90
   3   2 -13   10.80   12.20
   3   2 -13  -24.00   20.10
  -3  -2  13   -1.00   13.90
  -3  -2  13    6.20    8.50
   2   2 -13  280.77   22.60
   2   2 -13  189.68   31.20
  -2  -2  13  274.97   21.20
   1   2 -13  280.37   24.70
  -1  -2  13  282.47   22.40
   5   1 -13   33.70   13.90
  -5  -1  13   37.50   15.50
  -5  -1  13   34.10   10.10
   4   1 -13  231.38   23.10
  -4  -1  13  234.78   25.40
   3   1 -13  143.09   28.90
   3   1 -13  235.48   21.70
  -3  -1  13  199.58   23.60
   2   1 -13   78.19   12.90
   2   1 -13   39.00   21.00
  -2  -1  13   62.69   14.60
   1   1 -13   31.20   18.20
   5   0 -13  170.28   30.30
   5   0 -13  245.78   24.40
  -5   0  13  251.87   25.00
   4   0 -13   49.40   13.80
   4   0 -13   16.40   18.20
  -4   0  13   41.10   15.40
   3   0 -13   89.89   19.80
   3   0 -13  142.69   19.50
  -3   0  13   95.49   16.40
  -3   0  13  116.59   14.70
   2   0 -13  235.98   22.00
  -2   0  13  225.68   24.80
  -2   0  13  242.88   22.20
   5  -1 -13  137.09   22.10
   5  -1 -13  138.69   26.90
  -5   1  13  150.08   21.70
   4  -1 -13  289.77   26.20
  -4   1  13  286.97   21.50
  -4   1  13  269.27   26.80
   3  -1 -13   67.79   14.30
   3  -1 -13   61.29   20.20
  -3   1  13   74.49   10.60
  -3   1  13   50.99   13.90
  -2   1  13   -3.00   10.30
  -2   1  13   11.00   14.80
   5  -2 -13   39.50   26.30
   5  -2 -13   55.19   11.10
  -5   2  13   91.49   17.20
   4  -2 -13   19.80   14.00
  -4   2  13   23.00    9.40
  -4   2  13   17.80   14.60
   3  -2 -13  179.78   24.40
  -3   2  13  159.48   17.10
  -3   2  13  137.49   22.90
_computing_structure_solution     'SHELXT 2014/5 (Sheldrick, 2014)'
_computing_structure_solution     'SHELXT 2014/4 (Sheldrick, 2014)'
;
_shelx_hkl_checksum              67992
_shelx_res_file
;
    BSMS.res created by SHELXL-2014/7
TITL BSMS_a.res in P-1
CELL  0.71073   6.8271   8.1878   8.8227   95.180  106.637  108.328
ZERR     2.00   0.0007   0.0009   0.0009    0.043    0.050    0.036
LATT   1
SFAC  C    H    O    BA   SR
UNIT  8    16   16   1.70 0.30
MERG   2
OMIT -3 59
OMIT     0  -1   1
DFIX 0.85 0.02 O7 H7A O7 H7B O8 H8A O8 H8B O5 H5A O5 H5B O6 H6A O6 H6B
DFIX 1.38 0.02 H7A H7B H8A H8B H5A H5B H6A H6B
HTAB O5 O4
EQIV $1 x, y+1, z
HTAB O5 O3_$1
HTAB O8 O3
EQIV $2 -x+1, -y+2, -z+2
HTAB O7 O6_$2
EQIV $3 x-1, y, z
HTAB O7 O8_$3
EQIV $4 -x+2, -y+1, -z+2
HTAB O8 O4_$4
EQIV $5 -x+1, -y+1, -z+2
HTAB O8 O7_$5
HTAB O6 O5_$2
EQIV $6 x-1, y+1, z
HTAB O6 O8_$6
SUMP 1 0.001 1. 2 1. 3
EADP BA1 SR1
FMAP   2
PLAN   20
SIZE     0.10   0.15   0.20
ACTA
BOND   $H
CONF
L.S.   4
TEMP    23.00
WGHT    0.029100    0.659300
FVAR       0.82799   0.85448   0.14552
C1    1    0.383443    0.437359    0.640080    11.00000    0.01448    0.01578 =
         0.01785    0.00518    0.00679    0.00309
C2    1    0.624995    0.503034    0.691302    11.00000    0.01488    0.01829 =
         0.01612    0.00448    0.00611    0.00500
C3    1    0.617839    0.322328    0.654561    11.00000    0.01383    0.01744 =
         0.01842    0.00576    0.00549    0.00437
C4    1    0.379663    0.258326    0.607422    11.00000    0.01437    0.01441 =
         0.02097    0.00710    0.00695    0.00497
O1    3    0.234600    0.499382    0.615662    11.00000    0.01926    0.02163 =
         0.03233    0.00727    0.01108    0.01016
O2    3    0.224496    0.113359    0.548219    11.00000    0.01620    0.01526 =
         0.03645    0.00685    0.00504    0.00089
O3    3    0.755980    0.250954    0.651448    11.00000    0.01739    0.02466 =
         0.03301    0.00779    0.00958    0.01118
O4    3    0.772688    0.651773    0.734859    11.00000    0.01766    0.01866 =
         0.02606    0.00253    0.00733   -0.00044
O5    3    0.600882    0.923322    0.751152    11.00000    0.02580    0.02670 =
         0.03719    0.00888    0.01585    0.00947
O7    3    0.270194    0.710709    0.945949    11.00000    0.03950    0.03474 =
         0.03504    0.00992    0.00748    0.01114
O8    3    1.121177    0.342968    0.919395    11.00000    0.03524    0.04028 =
         0.02734    0.00809    0.00745    0.01277
PART    1
BA1   4    0.136517    0.793767    0.636523    10.85000    0.01035    0.01177 =
         0.01659    0.00370    0.00499    0.00299
PART    2
SR1   5    0.125558    0.791245    0.617717    10.15000    0.01035    0.01177 =
         0.01659    0.00370    0.00499    0.00299
PART    0
O6    3    0.263041    1.063256    0.902483    11.00000    0.06621    0.03835 =
         0.03151    0.00718    0.01185    0.02755
H6B   2    0.305548    1.036033    0.996293    11.00000   -1.20000
H6A   2    0.190472    1.128370    0.917513    11.00000   -1.20000
H5B   2    0.654839    0.844833    0.740362    11.00000    0.08177
H5A   2    0.661376    1.010604    0.713240    11.00000    0.04791
H8A   2    1.004624    0.314430    0.837448    11.00000    0.05179
H7A   2    0.403908    0.771261    1.004899    11.00000    0.07594
H7B   2    0.267855    0.603463    0.932961    11.00000    0.07322
H8B   2    1.082053    0.337304    1.003140    11.00000    0.10004
HKLF 4
REM  BSMS_a.res in P-1
REM R1 =  0.0227 for    2345 Fo > 4sig(Fo)  and  0.0243 for all    2451 data
REM    153 parameters refined using     13 restraints
END
WGHT      0.0279      0.5894
REM Highest difference peak  1.508,  deepest hole -1.582,  1-sigma level  0.146
Q1    1   0.2277  1.1109  0.9822  11.00000  0.05    1.51
Q2    1   0.9674  0.5240  0.7285  11.00000  0.05    1.25
Q3    1   0.1689  0.8681  0.7259  11.00000  0.05    0.89
Q4    1   0.0869  0.7505  0.5345  11.00000  0.05    0.87
Q5    1   0.6470  0.4242  0.6839  11.00000  0.05    0.54
Q6    1   0.3590  0.3374  0.6228  11.00000  0.05    0.48
Q7    1   0.4928  0.2619  0.6386  11.00000  0.05    0.45
Q8    1   0.5067  0.5012  0.6659  11.00000  0.05    0.45
Q9    1   0.6498  0.5991  0.6653  11.00000  0.05    0.43
Q10   1   0.1120  1.0176  0.8934  11.00000  0.05    0.40
Q11   1   0.5457  0.3239  0.8011  11.00000  0.05    0.40
Q12   1   0.4676  0.9221  0.6383  11.00000  0.05    0.38
Q13   1   0.2884  0.6616  0.5485  11.00000  0.05    0.37
Q14   1   0.2696  0.7131  0.6168  11.00000  0.05    0.37
Q15   1   0.2859  1.0061  0.7812  11.00000  0.05    0.35
Q16   1   0.0281  0.8851  0.6417  11.00000  0.05    0.35
Q17   1   0.1291  0.6983  0.6398  11.00000  0.05    0.35
Q18   1   0.5895  0.6285  0.6074  11.00000  0.05    0.35
Q19   1   0.1216  0.1904  0.4403  11.00000  0.05    0.34
Q20   1   0.9567  0.1376  0.9178  11.00000  0.05    0.34
;
_shelx_res_checksum              12574
loop_
_space_group_symop_operation_xyz
'x, y, z'
'-x, -y, -z'
loop_
_atom_site_type_symbol
_atom_site_label
_atom_site_fract_x
_atom_site_fract_y
_atom_site_fract_z
_atom_site_U_iso_or_equiv
_atom_site_adp_type
_atom_site_calc_flag
_atom_site_occupancy
_atom_site_disorder_assembly
_atom_site_disorder_group
C C1 0.3834(4) 0.4374(3) 0.6401(3) 0.0162(5) Uani d 1 . .
C C2 0.6250(4) 0.5030(4) 0.6913(3) 0.0164(5) Uani d 1 . .
C C3 0.6178(4) 0.3223(4) 0.6546(3) 0.0167(5) Uani d 1 . .
C C4 0.3797(4) 0.2583(3) 0.6074(3) 0.0161(5) Uani d 1 . .
O O1 0.2346(4) 0.4994(3) 0.6157(3) 0.0230(4) Uani d 1 . .
O O2 0.2245(3) 0.1134(3) 0.5482(3) 0.0246(4) Uani d 1 . .
O O3 0.7560(4) 0.2510(3) 0.6514(3) 0.0237(4) Uani d 1 . .
O O4 0.7727(3) 0.6518(3) 0.7349(3) 0.0227(4) Uani d 1 . .
O O5 0.6009(4) 0.9233(3) 0.7512(3) 0.0285(5) Uani d 1 . .
O O7 0.2702(5) 0.7107(4) 0.9459(3) 0.0379(6) Uani d 1 . .
O O8 1.1212(5) 0.3430(4) 0.9194(3) 0.0350(6) Uani d 1 . .
Ba Ba1 0.1365(2) 0.79377(17) 0.63652(10) 0.01297(10) Uani d 0.85 A 1
Sr Sr1 0.126(2) 0.7912(17) 0.6177(11) 0.01297(10) Uani d 0.15 A 2
O O6 0.2630(6) 1.0633(4) 0.9025(3) 0.0441(7) Uani d 1 . .
H H6B 0.306(8) 1.036(7) 0.996(4) 0.053 Uiso d 1 . .
H H6A 0.190(8) 1.128(6) 0.918(6) 0.053 Uiso d 1 . .
H H5B 0.655(10) 0.845(6) 0.740(8) 0.08(2) Uiso d 1 . .
H H5A 0.661(8) 1.011(4) 0.713(6) 0.048(14) Uiso d 1 . .
H H8A 1.005(5) 0.314(7) 0.837(4) 0.052(15) Uiso d 1 . .
H H7A 0.404(5) 0.771(6) 1.005(7) 0.08(2) Uiso d 1 . .
H H7B 0.268(9) 0.603(3) 0.933(7) 0.07(2) Uiso d 1 . .
H H8B 1.082(9) 0.337(11) 1.003(4) 0.10(3) Uiso d 1 . .
loop_
_atom_site_aniso_label
_atom_site_aniso_U_11
_atom_site_aniso_U_22
_atom_site_aniso_U_33
_atom_site_aniso_U_12
_atom_site_aniso_U_13
_atom_site_aniso_U_23
C1 0.0145(11) 0.0158(11) 0.0179(12) 0.0031(9) 0.0068(9) 0.0052(9)
C2 0.0149(11) 0.0183(12) 0.0161(11) 0.0050(9) 0.0061(9) 0.0045(9)
C3 0.0138(11) 0.0174(12) 0.0184(12) 0.0044(9) 0.0055(9) 0.0058(9)
C4 0.0144(11) 0.0144(11) 0.0210(12) 0.0050(9) 0.0069(9) 0.0071(9)
O1 0.0193(10) 0.0216(10) 0.0323(11) 0.0102(8) 0.0111(8) 0.0073(9)
O2 0.0162(10) 0.0153(9) 0.0365(12) 0.0009(8) 0.0050(9) 0.0068(8)
O3 0.0174(9) 0.0247(10) 0.0330(12) 0.0112(8) 0.0096(8) 0.0078(9)
O4 0.0177(9) 0.0187(10) 0.0261(11) -0.0004(8) 0.0073(8) 0.0025(8)
O5 0.0258(11) 0.0267(12) 0.0372(13) 0.0095(9) 0.0158(10) 0.0089(10)
O7 0.0395(15) 0.0347(14) 0.0350(14) 0.0111(12) 0.0075(12) 0.0099(11)
O8 0.0352(14) 0.0403(14) 0.0273(12) 0.0128(11) 0.0074(11) 0.0081(11)
Ba1 0.01035(17) 0.01177(10) 0.0166(3) 0.00299(11) 0.0050(2) 0.0037(2)
Sr1 0.01035(17) 0.01177(10) 0.0166(3) 0.00299(11) 0.0050(2) 0.0037(2)
O6 0.066(2) 0.0383(15) 0.0315(14) 0.0276(15) 0.0119(13) 0.0072(12)
loop_
_atom_type_symbol
_atom_type_description
_atom_type_scat_dispersion_real
_atom_type_scat_dispersion_imag
_atom_type_scat_source
C C 0.0033 0.0016 'International Tables Vol C Tables 4.2.6.8 and 6.1.1.4'
H H 0.0000 0.0000 'International Tables Vol C Tables 4.2.6.8 and 6.1.1.4'
O O 0.0106 0.0060 'International Tables Vol C Tables 4.2.6.8 and 6.1.1.4'
Ba Ba -0.3244 2.2819 'International Tables Vol C Tables 4.2.6.8 and 6.1.1.4'
Sr Sr -1.5307 3.2498 'International Tables Vol C Tables 4.2.6.8 and 6.1.1.4'
loop_
_geom_angle_atom_site_label_1
_geom_angle_atom_site_label_2
_geom_angle_atom_site_label_3
_geom_angle_site_symmetry_1
_geom_angle_site_symmetry_3
_geom_angle
O1 C1 C4 . . 132.2(3)
O1 C1 C2 . . 137.9(3)
C4 C1 C2 . . 89.6(2)
O1 C1 Sr1 . 2_566 58.1(3)
C4 C1 Sr1 . 2_566 75.7(3)
C2 C1 Sr1 . 2_566 154.5(3)
O4 C2 C3 . . 135.1(3)
O4 C2 C1 . . 135.0(3)
C3 C2 C1 . . 89.7(2)
O3 C3 C4 . . 134.2(3)
O3 C3 C2 . . 135.6(3)
C4 C3 C2 . . 89.9(2)
O2 C4 C1 . . 132.0(3)
O2 C4 C3 . . 136.9(3)
C1 C4 C3 . . 90.8(2)
O2 C4 Sr1 . 2_566 55.0(3)
C1 C4 Sr1 . 2_566 79.2(3)
C3 C4 Sr1 . 2_566 155.8(3)
O2 C4 Ba1 . 2_566 55.03(15)
C1 C4 Ba1 . 2_566 79.71(16)
C3 C4 Ba1 . 2_566 154.25(18)
C1 O1 Ba1 . . 145.98(19)
C1 O1 Sr1 . . 147.3(3)
C1 O1 Sr1 . 2_566 100.5(3)
Sr1 O1 Sr1 . 2_566 109.0(3)
C1 O1 Ba1 . 2_566 101.09(18)
Ba1 O1 Ba1 . 2_566 110.47(8)
C4 O2 Sr1 . 1_545 135.8(3)
C4 O2 Ba1 . 1_545 133.02(19)
C4 O2 Sr1 . 2_566 103.4(3)
Sr1 O2 Sr1 1_545 2_566 117.0(3)
C4 O2 Ba1 . 2_566 104.13(18)
Ba1 O2 Ba1 1_545 2_566 118.93(8)
C3 O3 Sr1 . 2_666 121.4(3)
C3 O3 Ba1 . 2_666 119.47(19)
C2 O4 Ba1 . 1_655 130.86(19)
C2 O4 Sr1 . 1_655 129.1(3)
Ba1 O5 H5B . . 113(5)
Sr1 O5 H5B . . 113(5)
Ba1 O5 H5A . . 115(4)
Sr1 O5 H5A . . 113(4)
H5B O5 H5A . . 110(3)
Ba1 O7 H7A . . 115(4)
Sr1 O7 H7A . . 116(4)
Ba1 O7 H7B . . 108(4)
Sr1 O7 H7B . . 107(4)
H7A O7 H7B . . 104(3)
H8A O8 H8B . . 107(3)
O1 Ba1 O2 . 1_565 141.84(9)
O1 Ba1 O6 . . 129.81(9)
O2 Ba1 O6 1_565 . 69.09(9)
O1 Ba1 O4 . 1_455 95.95(8)
O2 Ba1 O4 1_565 1_455 120.90(9)
O6 Ba1 O4 . 1_455 83.48(10)
O1 Ba1 O7 . . 69.45(9)
O2 Ba1 O7 1_565 . 129.60(10)
O6 Ba1 O7 . . 63.37(9)
O4 Ba1 O7 1_455 . 69.79(9)
O1 Ba1 O5 . . 76.65(9)
O2 Ba1 O5 1_565 . 79.21(9)
O6 Ba1 O5 . . 74.23(11)
O4 Ba1 O5 1_455 . 142.15(8)
O7 Ba1 O5 . . 72.92(10)
O1 Ba1 O3 . 2_666 71.60(8)
O2 Ba1 O3 1_565 2_666 74.41(8)
O6 Ba1 O3 . 2_666 136.67(10)
O4 Ba1 O3 1_455 2_666 136.70(9)
O7 Ba1 O3 . 2_666 134.88(9)
O5 Ba1 O3 . 2_666 76.77(9)
O1 Ba1 O2 . 2_566 133.28(9)
O2 Ba1 O2 1_565 2_566 61.07(8)
O6 Ba1 O2 . 2_566 93.88(10)
O4 Ba1 O2 1_455 2_566 70.33(7)
O7 Ba1 O2 . 2_566 135.78(10)
O5 Ba1 O2 . 2_566 140.07(8)
O3 Ba1 O2 2_666 2_566 88.17(8)
O1 Ba1 O1 . 2_566 69.53(8)
O2 Ba1 O1 1_565 2_566 114.02(8)
O6 Ba1 O1 . 2_566 147.10(10)
O4 Ba1 O1 1_455 2_566 66.68(7)
O7 Ba1 O1 . 2_566 114.79(9)
O5 Ba1 O1 . 2_566 138.38(9)
O3 Ba1 O1 2_666 2_566 70.15(7)
O2 Ba1 O1 2_566 2_566 64.00(7)
O1 Ba1 C4 . 2_566 113.96(9)
O2 Ba1 C4 1_565 2_566 80.87(8)
O6 Ba1 C4 . 2_566 108.56(11)
O4 Ba1 C4 1_455 2_566 59.33(7)
O7 Ba1 C4 . 2_566 129.12(10)
O5 Ba1 C4 . 2_566 157.24(8)
O3 Ba1 C4 2_666 2_566 87.37(8)
O2 Ba1 C4 2_566 2_566 20.83(6)
O1 Ba1 C4 2_566 2_566 44.55(7)
O1 Ba1 Ba1 . 2_566 36.97(6)
O2 Ba1 Ba1 1_565 2_566 135.48(6)
O6 Ba1 Ba1 . 2_566 155.07(8)
O4 Ba1 Ba1 1_455 2_566 78.78(7)
O7 Ba1 Ba1 . 2_566 93.87(9)
O5 Ba1 Ba1 . 2_566 110.32(9)
O3 Ba1 Ba1 2_666 2_566 66.46(6)
O2 Ba1 Ba1 2_566 2_566 96.45(7)
O1 Ba1 Ba1 2_566 2_566 32.56(5)
C4 Ba1 Ba1 2_566 2_566 77.05(7)
O2 Sr1 O1 1_565 . 143.9(5)
O2 Sr1 O3 1_565 2_666 77.1(3)
O1 Sr1 O3 . 2_666 73.2(3)
O2 Sr1 O2 1_565 2_566 63.0(3)
O1 Sr1 O2 . 2_566 137.5(4)
O3 Sr1 O2 2_666 2_566 92.6(3)
O2 Sr1 O4 1_565 1_455 121.3(5)
O1 Sr1 O4 . 1_455 94.7(4)
O3 Sr1 O4 2_666 1_455 141.0(4)
O2 Sr1 O4 2_566 1_455 71.3(3)
O2 Sr1 O5 1_565 . 78.7(3)
O1 Sr1 O5 . . 75.2(3)
O3 Sr1 O5 2_666 . 77.5(3)
O2 Sr1 O5 2_566 . 141.7(5)
O4 Sr1 O5 1_455 . 136.3(4)
O2 Sr1 O6 1_565 . 68.0(3)
O1 Sr1 O6 . . 124.4(4)
O3 Sr1 O6 2_666 . 136.8(5)
O2 Sr1 O6 2_566 . 93.6(4)
O4 Sr1 O6 1_455 . 80.8(3)
O5 Sr1 O6 . . 71.5(3)
O2 Sr1 O1 1_565 2_566 119.1(4)
O1 Sr1 O1 . 2_566 71.0(3)
O3 Sr1 O1 2_666 2_566 73.3(3)
O2 Sr1 O1 2_566 2_566 66.6(2)
O4 Sr1 O1 1_455 2_566 67.7(3)
O5 Sr1 O1 . 2_566 140.3(5)
O6 Sr1 O1 . 2_566 146.6(5)
O2 Sr1 O7 1_565 . 125.4(4)
O1 Sr1 O7 . . 67.0(3)
O3 Sr1 O7 2_666 . 133.3(5)
O2 Sr1 O7 2_566 . 133.4(5)
O4 Sr1 O7 1_455 . 67.2(3)
O5 Sr1 O7 . . 69.8(2)
O6 Sr1 O7 . . 60.2(2)
O1 Sr1 O7 2_566 . 113.5(4)
O2 Sr1 C4 1_565 2_566 83.6(3)
O1 Sr1 C4 . 2_566 116.9(4)
O3 Sr1 C4 2_666 2_566 91.5(3)
O2 Sr1 C4 2_566 2_566 21.61(11)
O4 Sr1 C4 1_455 2_566 60.5(2)
O5 Sr1 C4 . 2_566 160.9(4)
O6 Sr1 C4 . 2_566 108.6(4)
O1 Sr1 C4 2_566 2_566 46.17(17)
O7 Sr1 C4 . 2_566 127.7(4)
O2 Sr1 C1 1_565 2_566 105.0(3)
O1 Sr1 C1 . 2_566 91.7(3)
O3 Sr1 C1 2_666 2_566 83.6(3)
O2 Sr1 C1 2_566 2_566 46.33(18)
O4 Sr1 C1 1_455 2_566 59.3(2)
O5 Sr1 C1 . 2_566 159.4(4)
O6 Sr1 C1 . 2_566 128.9(5)
O1 Sr1 C1 2_566 2_566 21.33(10)
O7 Sr1 C1 . 2_566 120.1(4)
C4 Sr1 C1 2_566 2_566 25.15(10)
O2 Sr1 Sr1 1_565 2_566 142.0(4)
O1 Sr1 Sr1 . 2_566 36.9(2)
O3 Sr1 Sr1 2_666 2_566 69.3(3)
O2 Sr1 Sr1 2_566 2_566 100.7(4)
O4 Sr1 Sr1 1_455 2_566 78.9(4)
O5 Sr1 Sr1 . 2_566 109.7(5)
O6 Sr1 Sr1 . 2_566 149.9(5)
O1 Sr1 Sr1 2_566 2_566 34.07(16)
O7 Sr1 Sr1 . 2_566 91.3(4)
C4 Sr1 Sr1 2_566 2_566 80.1(3)
C1 Sr1 Sr1 2_566 2_566 55.0(2)
Ba1 O6 H6B . . 115(3)
Sr1 O6 H6B . . 118(3)
Ba1 O6 H6A . . 126(4)
Sr1 O6 H6A . . 125(4)
H6B O6 H6A . . 103(3)
loop_
_geom_bond_atom_site_label_1
_geom_bond_atom_site_label_2
_geom_bond_site_symmetry_2
_geom_bond_distance
C1 O1 . 1.247(3)
C1 C4 . 1.459(4)
C1 C2 . 1.478(4)
C1 Sr1 2_566 3.372(12)
C2 O4 . 1.253(3)
C2 C3 . 1.468(4)
C3 O3 . 1.261(3)
C3 C4 . 1.459(4)
C4 O2 . 1.259(3)
C4 Sr1 2_566 3.325(12)
C4 Ba1 2_566 3.432(3)
O1 Ba1 . 2.701(3)
O1 Sr1 . 2.717(14)
O1 Sr1 2_566 2.913(12)
O1 Ba1 2_566 3.019(3)
O2 Sr1 1_545 2.683(13)
O2 Ba1 1_545 2.732(3)
O2 Sr1 2_566 2.800(12)
O2 Ba1 2_566 2.900(3)
O3 Sr1 2_666 2.746(12)
O3 Ba1 2_666 2.863(3)
O4 Ba1 1_655 2.806(3)
O4 Sr1 1_655 2.843(13)
O5 Ba1 . 2.838(3)
O5 Sr1 . 2.909(12)
O5 H5B . 0.846(19)
O5 H5A . 0.854(19)
O7 Ba1 . 2.837(3)
O7 Sr1 . 2.985(10)
O7 H7A . 0.86(2)
O7 H7B . 0.870(19)
O8 H8A . 0.857(19)
O8 H8B . 0.85(2)
Ba1 O2 1_565 2.732(3)
Ba1 O6 . 2.798(3)
Ba1 O4 1_455 2.806(3)
Ba1 O3 2_666 2.863(3)
Ba1 O2 2_566 2.900(3)
Ba1 O1 2_566 3.019(3)
Ba1 C4 2_566 3.432(4)
Ba1 Ba1 2_566 4.703(3)
Sr1 O2 1_565 2.683(13)
Sr1 O3 2_666 2.746(12)
Sr1 O2 2_566 2.800(12)
Sr1 O4 1_455 2.843(13)
Sr1 O6 . 2.912(12)
Sr1 O1 2_566 2.913(12)
Sr1 C4 2_566 3.325(12)
Sr1 C1 2_566 3.372(12)
Sr1 Sr1 2_566 4.59(3)
O6 H6B . 0.869(19)
O6 H6A . 0.859(19)
loop_
_geom_hbond_atom_site_label_D
_geom_hbond_atom_site_label_H
_geom_hbond_atom_site_label_A
_geom_hbond_site_symmetry_A
_geom_hbond_distance_DH
_geom_hbond_distance_HA
_geom_hbond_distance_DA
_geom_hbond_angle_DHA
O5 H5B O4 . 0.846(19) 1.989(19) 2.832(3) 174(6)
O5 H5A O3 1_565 0.854(19) 2.05(2) 2.875(3) 164(5)
O8 H8A O3 . 0.857(19) 1.882(19) 2.738(4) 177(5)
O7 H7A O6 2_677 0.86(2) 2.11(2) 2.962(5) 166(6)
O7 H7B O8 1_455 0.870(19) 2.03(3) 2.822(4) 152(5)
O8 H8B O4 2_767 0.85(2) 2.22(4) 2.919(4) 139(5)
O8 H8B O7 2_667 0.85(2) 2.49(5) 3.149(4) 135(5)
O6 H6B O5 2_677 0.869(19) 2.10(3) 2.909(4) 155(4)
O6 H6A O8 1_465 0.859(19) 1.96(3) 2.761(4) 155(5)
loop_
_geom_torsion_atom_site_label_1
_geom_torsion_atom_site_label_2
_geom_torsion_atom_site_label_3
_geom_torsion_atom_site_label_4
_geom_torsion_site_symmetry_1
_geom_torsion_site_symmetry_4
_geom_torsion
O1 C1 C2 O4 . . 2.7(6)
C4 C1 C2 O4 . . 175.9(3)
Sr1 C1 C2 O4 2_566 . 122.1(6)
O1 C1 C2 C3 . . -172.1(4)
C4 C1 C2 C3 . . 1.1(2)
Sr1 C1 C2 C3 2_566 . -52.7(7)
O4 C2 C3 O3 . . -1.0(6)
C1 C2 C3 O3 . . 173.8(3)
O4 C2 C3 C4 . . -175.9(3)
C1 C2 C3 C4 . . -1.1(2)
O1 C1 C4 O2 . . -1.8(6)
C2 C1 C4 O2 . . -175.8(3)
Sr1 C1 C4 O2 2_566 . -16.8(4)
O1 C1 C4 C3 . . 172.8(3)
C2 C1 C4 C3 . . -1.1(2)
Sr1 C1 C4 C3 2_566 . 157.9(3)
O1 C1 C4 Sr1 . 2_566 14.9(4)
C2 C1 C4 Sr1 . 2_566 -159.0(3)
O1 C1 C4 Ba1 . 2_566 16.9(3)
C2 C1 C4 Ba1 . 2_566 -157.03(16)
O3 C3 C4 O2 . . 0.3(6)
C2 C3 C4 O2 . . 175.3(4)
O3 C3 C4 C1 . . -173.9(3)
C2 C3 C4 C1 . . 1.1(2)
O3 C3 C4 Sr1 . 2_566 -109.1(7)
C2 C3 C4 Sr1 . 2_566 65.9(7)
O3 C3 C4 Ba1 . 2_566 -106.3(5)
C2 C3 C4 Ba1 . 2_566 68.7(5)
C4 C1 O1 Ba1 . . -177.3(2)
C2 C1 O1 Ba1 . . -6.5(6)
C4 C1 O1 Sr1 . . -171.8(5)
C2 C1 O1 Sr1 . . -1.0(7)
Sr1 C1 O1 Sr1 2_566 . -154.7(4)
C4 C1 O1 Sr1 . 2_566 -17.1(4)
C2 C1 O1 Sr1 . 2_566 153.8(4)
C4 C1 O1 Ba1 . 2_566 -19.3(4)
C2 C1 O1 Ba1 . 2_566 151.6(3)
C1 C4 O2 Sr1 . 1_545 -136.0(5)
C3 C4 O2 Sr1 . 1_545 51.9(6)
Sr1 C4 O2 Sr1 2_566 1_545 -156.2(4)
C1 C4 O2 Ba1 . 1_545 -133.9(3)
C3 C4 O2 Ba1 . 1_545 54.0(5)
Ba1 C4 O2 Ba1 2_566 1_545 -156.5(3)
C1 C4 O2 Sr1 . 2_566 20.3(4)
C3 C4 O2 Sr1 . 2_566 -151.9(4)
C1 C4 O2 Ba1 . 2_566 22.7(4)
C3 C4 O2 Ba1 . 2_566 -149.5(3)
C4 C3 O3 Sr1 . 2_666 87.0(5)
C2 C3 O3 Sr1 . 2_666 -85.9(5)
C4 C3 O3 Ba1 . 2_666 85.8(4)
C2 C3 O3 Ba1 . 2_666 -87.1(4)
C3 C2 O4 Ba1 . 1_655 41.1(5)
C1 C2 O4 Ba1 . 1_655 -131.5(3)
C3 C2 O4 Sr1 . 1_655 44.4(5)
C1 C2 O4 Sr1 . 1_655 -128.2(4)

_cod_database_fobs_code 2021715
