#------------------------------------------------------------------------------
#$Date: 2018-06-05 18:42:32 +0300 (Tue, 05 Jun 2018) $
#$Revision: 208128 $
#$URL: file:///home/coder/svn-repositories/cod/cif/2/02/11/2021150.cif $
#------------------------------------------------------------------------------
#
# This file is available in the Crystallography Open Database (COD),
# http://www.crystallography.net/. The original data for this entry
# were provided by IUCr Journals, http://journals.iucr.org/.
#
# The file may be used within the scientific community so long as
# proper attribution is given to the journal article from which the
# data were obtained.
#
data_2021150
loop_
_publ_author_name
'Karthikeyan, Ammasai'
'Zeller, Matthias'
'Thomas Muthiah, Packianathan'
_publ_section_title
;
 Supramolecular architectures in metal(II) (Cd/Zn) halide/nitrate
 complexes of cytosine/5-fluorocytosine
;
_journal_coeditor_code           QS3072
_journal_issue                   7
_journal_name_full               'Acta Crystallographica Section C'
_journal_page_first
;
;
_journal_paper_doi               10.1107/S2053229618007672
_journal_volume                  74
_journal_year                    2018
_chemical_formula_iupac          '[Cd I2 (C4 H5 N3 O1)2]'
_chemical_formula_moiety         'C8 H10 Cd I2 N6 O2'
_chemical_formula_sum            'C8 H10 Cd I2 N6 O2'
_chemical_formula_weight         588.42
_chemical_name_common
;
Bis(cytosine)diiodidocadmium(II)
;
_chemical_name_systematic
;
Bis(4-amino-1,2-dihydropyrimidin-2-one-\k<i>N</i>^3^)diiodidocadmium(II)
;
_space_group_crystal_system      triclinic
_space_group_IT_number           2
_space_group_name_Hall           '-P 1'
_space_group_name_H-M_alt        'P -1'
_symmetry_space_group_name_Hall  '-P 1'
_symmetry_space_group_name_H-M   'P -1'
_atom_sites_solution_hydrogens   geom
_atom_sites_solution_primary     direct
_atom_sites_solution_secondary   difmap
_audit_creation_method           SHELXL-2018/1
_cell_angle_alpha                89.1090(13)
_cell_angle_beta                 74.2345(13)
_cell_angle_gamma                87.4815(13)
_cell_formula_units_Z            2
_cell_length_a                   7.2911(3)
_cell_length_b                   8.1724(3)
_cell_length_c                   12.5766(5)
_cell_measurement_reflns_used    9533
_cell_measurement_temperature    100(2)
_cell_measurement_theta_max      33.2760
_cell_measurement_theta_min      2.9055
_cell_volume                     720.49(5)
_computing_cell_refinement
;
SAINT (Bruker, 2014)
;
_computing_data_collection
;
APEX2 (Bruker, 2014)
;
_computing_data_reduction
;
SAINT (Bruker, 2014)
;
_computing_molecular_graphics
;
<i>ORTEP-3</i> (Farrugia, 2012),
PLATON (Spek, 2009) and Mercury (Macrae <i>et al.</i>, 2008)
;
_computing_publication_material
;
PLATON (Spek, 2009) and publCIF (Westrip (2010)
;
_computing_structure_refinement
;
SHELXL2018 (Sheldrick, 2015) and
shelXle (H\"ubschle <i>et al.</i>,  2011)
;
_computing_structure_solution
;
SHELXS97 (Sheldrick, 2008)
;
_diffrn_ambient_temperature      100(2)
_diffrn_measured_fraction_theta_full 0.986
_diffrn_measured_fraction_theta_max 0.825
_diffrn_measurement_device_type  'Bruker D8 Quest CMOS'
_diffrn_measurement_method       'omega and phi scans'
_diffrn_radiation_monochromator  'laterally graded multilayer (Goebel) mirror'
_diffrn_radiation_type           MoK\a
_diffrn_radiation_wavelength     0.71073
_diffrn_reflns_av_R_equivalents  0.0218
_diffrn_reflns_limit_h_max       10
_diffrn_reflns_limit_h_min       -10
_diffrn_reflns_limit_k_max       12
_diffrn_reflns_limit_k_min       -10
_diffrn_reflns_limit_l_max       17
_diffrn_reflns_limit_l_min       -17
_diffrn_reflns_number            13024
_diffrn_reflns_theta_full        25.000
_diffrn_reflns_theta_max         33.276
_diffrn_reflns_theta_min         2.905
_exptl_absorpt_coefficient_mu    5.807
_exptl_absorpt_correction_T_max  0.7466
_exptl_absorpt_correction_T_min  0.5530
_exptl_absorpt_correction_type   multi-scan
_exptl_absorpt_process_details
;
(APEX2; Bruker, 2014)
;
_exptl_crystal_colour            colourless
_exptl_crystal_density_diffrn    2.712
_exptl_crystal_description       needle
_exptl_crystal_F_000             540
_exptl_crystal_size_max          0.370
_exptl_crystal_size_mid          0.160
_exptl_crystal_size_min          0.090
_refine_diff_density_max         1.676
_refine_diff_density_min         -0.947
_refine_ls_extinction_method     none
_refine_ls_goodness_of_fit_ref   1.126
_refine_ls_hydrogen_treatment    constr
_refine_ls_matrix_type           full
_refine_ls_number_parameters     172
_refine_ls_number_reflns         4587
_refine_ls_number_restraints     0
_refine_ls_restrained_S_all      1.126
_refine_ls_R_factor_all          0.0266
_refine_ls_R_factor_gt           0.0213
_refine_ls_shift/su_max          0.001
_refine_ls_shift/su_mean         0.000
_refine_ls_structure_factor_coef Fsqd
_refine_ls_weighting_details
'w=1/[\s^2^(Fo^2^)+(0.0077P)^2^+1.3973P] where P=(Fo^2^+2Fc^2^)/3'
_refine_ls_weighting_scheme      calc
_refine_ls_wR_factor_gt          0.0412
_refine_ls_wR_factor_ref         0.0430
_reflns_number_gt                4155
_reflns_number_total             4587
_reflns_threshold_expression     'I > 2\s(I)'
_cod_data_source_file            qs3072sup1.cif
_cod_data_source_block           I
_cod_database_code               2021150
_shelx_space_group_comment
;
The symmetry employed for this shelxl refinement is uniquely defined
by the following loop, which should always be used as a source of
symmetry information in preference to the above space-group names.
They are only intended as comments.
;
_shelx_estimated_absorpt_t_min   0.222
_shelx_estimated_absorpt_t_max   0.623
_shelx_hkl_file
;
  -1   0   0 217.209 5.37101   2
  -1   0   0 197.725 5.68157   1
   1   0   0 213.199 5.31247   2
  -2   0   0 88.1454 3.06178   2
  -2   0   0 91.3164 3.22029   2
  -2   0   0 86.4243 3.21707   1
   2   0   0 90.2151 3.17419   2
   2   0   0 87.0491 3.19237   1
   2   0   0 88.3484 3.12703   2
  -3   0   0 932.567 25.0632   1
  -3   0   0 937.647 23.1670   2
   3   0   0 959.383 25.1488   1
   3   0   0 953.154 23.3972   2
   3   0   0 973.124 23.2641   2
  -4   0   0 1313.22 34.7991   1
  -4   0   0 1311.81 32.1705   2
   4   0   0 1332.65 32.5124   2
   4   0   0 1343.64 32.3041   2
   4   0   0 1315.95 34.9184   1
  -5   0   0 614.985 17.1570   2
  -5   0   0 639.817 18.3942   1
   5   0   0 665.410 17.5219   2
   5   0   0 626.310 17.5495   2
  -6   0   0 52.2044 3.64807   2
  -6   0   0 56.8745 4.39538   1
   6   0   0 53.7071 3.96570   2
   6   0   0 55.3595 4.68061   2
  -7   0   0 35.4304 4.48902   1
  -7   0   0 35.7332 3.43390   2
   7   0   0 26.0348 4.15544   2
   7   0   0 35.8589 3.69232   2
  -8   0   0 3.59055 2.24156   2
  -8   0   0 3.71831 4.05792   1
   8   0   0 1.40428 2.34824   2
   8   0   0 1.46584 4.23587   2
  -9   0   0 19.3754 3.59125   2
   9   0   0 20.6968 4.05102   2
 -10   0   0 486.292 17.7937   2
  10   0   0 494.417 18.3197   2
  10  -1   0 70.4804 9.54850   2
   9  -1   0 56.9993 6.54612   2
  -9   1   0 73.7836 6.60041   2
   8  -1   0 18.6338 4.86142   2
   8  -1   0 16.6798 3.16980   2
  -8   1   0 18.8692 3.05946   2
  -8   1   0 21.2720 4.43008   1
   7  -1   0 9.99590 2.33302   2
   7  -1   0 11.9158 3.39263   2
  -7   1   0 11.9677 3.04608   1
  -7   1   0 11.6104 2.43000   2
   6  -1   0 124.636 6.25345   2
   6  -1   0 123.281 5.88119   2
  -6   1   0 116.916 5.54963   2
  -6   1   0 121.478 5.91779   1
   5  -1   0 1744.98 41.9860   2
   5  -1   0 1717.18 42.1106   2
  -5   1   0 1665.11 41.4955   2
   4  -1   0 578.911 15.2465   2
   4  -1   0 564.640 15.3515   2
  -4   1   0 552.063 16.0429   1
  -4   1   0 577.032 15.1650   2
   3  -1   0 665.035 17.0649   2
   3  -1   0 683.290 17.2736   2
  -3   1   0 704.817 17.3113   2
  -3   1   0 679.509 17.0899   2
  -3   1   0 665.717 18.2883   1
   2  -1   0 2208.14 51.8533   2
   2  -1   0 2224.34 53.5827   2
  -2   1   0 2175.22 52.9965   2
  -2   1   0 2209.29 52.4710   2
   1  -1   0 283.667 7.30044   2
   1  -1   0 297.492 7.29584   2
  -1   1   0 294.635 7.27550   2
  -1   1   0 277.467 7.29970   2
  -1  -1   0 371.073 9.86000   1
  -1  -1   0 370.635 9.02181   2
   1   1   0 376.445 9.04251   2
   1   1   0 369.823 9.82770   1
  -2  -1   0 497.217 13.1730   1
  -2  -1   0 452.862 12.0375   2
   2   1   0 486.170 12.2318   2
   2   1   0 495.273 13.0956   1
   2   1   0 498.891 12.1857   2
  -3  -1   0 1026.80 27.6166   1
  -3  -1   0 1014.06 25.3729   2
   3   1   0 1064.12 27.6154   1
   3   1   0 1062.18 25.6793   2
   3   1   0 1084.75 25.5536   2
  -4  -1   0 391.593 11.1063   2
  -4  -1   0 399.797 11.9569   1
   4   1   0 390.392 11.8001   1
   4   1   0 402.851 11.3132   2
   4   1   0 378.180 11.2882   2
  -5  -1   0 261.846 8.50703   2
  -5  -1   0 257.203 9.23416   1
   5   1   0 259.170 8.79841   2
   5   1   0 257.201 8.84869   1
   5   1   0 262.779 8.84711   2
  -6  -1   0 86.4148 5.26606   1
  -6  -1   0 87.0256 4.54385   2
   6   1   0 82.8982 5.40851   2
   6   1   0 93.3738 5.08465   2
   6   1   0 78.9003 4.42977   1
  -7  -1   0 29.7508 4.61885   1
  -7  -1   0 27.3685 3.33340   2
   7   1   0 28.6213 4.21173   2
   7   1   0 22.6758 3.36663   2
  -8  -1   0 101.835 6.02708   2
  -8  -1   0 94.8878 7.53811   1
   8   1   0 108.923 8.64604   2
   8   1   0 100.986 6.51025   2
  -9  -1   0 14.6542 3.33237   2
   9   1   0 10.8485 3.35801   2
 -10  -1   0 337.255 14.6757   2
  10   1   0 347.992 15.2634   2
  10  -2   0 22.0562 5.90086   2
   9  -2   0 252.820 11.8370   2
  -9   2   0 246.921 11.1521   2
   8  -2   0 -2.6404 2.55089   2
  -8   2   0 2.39548 2.29727   2
   7  -2   0 179.468 7.96606   2
   7  -2   0 164.580 8.46907   2
  -7   2   0 162.837 7.98736   1
  -7   2   0 180.331 7.59403   2
   6  -2   0 324.342 11.0287   2
   6  -2   0 313.929 10.8766   2
  -6   2   0 329.060 11.2514   1
  -6   2   0 324.084 10.6924   2
   5  -2   0 1574.53 38.0727   2
   5  -2   0 1570.28 38.3999   2
  -5   2   0 1545.51 38.0305   2
  -5   2   0 1509.51 40.9608   1
   4  -2   0 173.884 6.24170   2
   4  -2   0 184.068 6.35887   2
  -4   2   0 176.350 6.35507   1
  -4   2   0 178.070 6.11621   2
   3  -2   0 48.9418 2.62083   2
   3  -2   0 47.7821 2.48905   2
  -3   2   0 49.8910 2.41266   2
  -3   2   0 49.7509 2.77506   2
   2  -2   0 5005.90 122.250   2
   2  -2   0 5462.06 125.665   2
  -2   2   0 5276.87 125.091   2
  -2   2   0 5436.21 125.694   2
   1  -2   0 150.778 4.09033   2
  -1   2   0 151.016 4.06403   2
  -1   2   0 158.014 4.17545   2
   0  -2   0 856.780 19.5231   2
   0  -2   0 832.350 19.4939   2
   0   2   0 850.468 19.5493   2
  -1  -2   0 45.2257 1.91790   1
   1   2   0 47.0041 1.63407   2
   1   2   0 45.1932 1.85579   1
  -2  -2   0 1695.43 43.2642   1
  -2  -2   0 1733.57 39.5017   2
   2   2   0 1684.86 43.9148   1
   2   2   0 1688.69 39.6127   2
   2   2   0 1695.47 39.5060   2
  -3  -2   0 229.290 7.39262   1
  -3  -2   0 225.908 6.73846   2
   3   2   0 218.688 6.87243   2
   3   2   0 229.552 7.16485   1
   3   2   0 227.375 6.88602   2
  -4  -2   0 -0.2016 1.25489   1
  -4  -2   0 -0.5693 0.78651   2
   4   2   0 -0.5981 0.72559   1
   4   2   0 -0.7614 0.77977   2
   4   2   0 0.72513 1.28122   2
  -5  -2   0 256.854 8.47879   2
   5   2   0 267.331 8.95955   2
   5   2   0 259.703 8.89591   1
   5   2   0 255.979 8.77837   2
  -6  -2   0 433.874 13.0177   2
  -6  -2   0 437.650 14.2916   1
   6   2   0 410.744 13.2942   2
   6   2   0 422.503 13.6171   1
  -7  -2   0 3.17559 1.67565   2
  -7  -2   0 -0.9747 2.84699   1
   7   2   0 1.73499 3.14542   2
   7   2   0 3.58499 1.67304   1
  -8  -2   0 906.060 26.1687   2
   8   2   0 971.769 26.9522   2
   8   2   0 921.550 27.0033   2
  -9  -2   0 2.72681 3.30440   2
   9   2   0 5.20238 3.35771   2
 -10  -2   0 246.721 12.7123   2
  10  -3   0 94.6275 10.7076   2
   9  -3   0 142.748 9.52503   2
  -9   3   0 129.532 8.31002   2
  -8   3   0 7.67961 2.84221   2
   7  -3   0 943.533 26.9715   2
   7  -3   0 1039.30 27.5786   2
  -7   3   0 1000.78 27.0245   2
  -7   3   0 995.739 28.7553   1
   6  -3   0 98.7955 6.03171   2
   6  -3   0 105.578 5.46601   2
  -6   3   0 98.2866 4.99453   2
  -6   3   0 93.4948 5.59745   1
   5  -3   0 997.233 26.0719   2
   5  -3   0 1036.49 26.4160   2
  -5   3   0 1008.89 27.9122   1
  -5   3   0 1040.12 26.2092   2
   4  -3   0 471.646 12.8388   2
   4  -3   0 449.089 12.8018   2
  -4   3   0 454.241 12.7039   2
   3  -3   0 725.812 18.1377   2
   3  -3   0 746.229 18.1319   2
  -3   3   0 705.538 18.2102   2
  -3   3   0 701.176 18.0031   2
   2  -3   0 2379.39 55.1739   2
  -2   3   0 2396.19 56.6882   2
  -2   3   0 2407.85 56.1480   2
   1  -3   0 534.319 12.4647   2
  -1   3   0 522.652 12.4500   2
  -1   3   0 514.255 12.5305   2
   0  -3   0 60.6641 1.57409   2
   0  -3   0 67.1077 1.59552   2
   0   3   0 64.0818 1.73892   2
   1   3   0 0.47934 0.38124   1
   1   3   0 0.31798 0.36230   2
  -2  -3   0 315.460 9.23031   1
  -2  -3   0 290.187 8.47918   2
   2   3   0 321.122 9.10804   1
   2   3   0 312.432 8.35501   2
   2   3   0 323.596 8.30202   2
  -3  -3   0 884.538 23.7373   1
  -3  -3   0 850.207 21.4831   2
   3   3   0 879.360 23.4650   1
   3   3   0 882.173 21.8418   2
   3   3   0 888.233 21.6969   2
  -4  -3   0 332.140 10.7938   1
  -4  -3   0 332.920 9.73620   2
   4   3   0 340.235 10.0769   2
   4   3   0 334.968 10.3671   1
   4   3   0 334.052 10.0670   2
  -5  -3   0 191.833 6.88755   2
  -5  -3   0 191.272 7.90579   1
   5   3   0 183.856 7.06682   2
   5   3   0 189.773 7.12822   1
   5   3   0 193.317 7.44573   2
  -6  -3   0 14.1771 2.18824   2
  -6  -3   0 20.5730 3.50357   1
   6   3   0 17.9359 2.54320   2
   6   3   0 17.9697 2.36772   1
   6   3   0 21.2294 3.46131   2
  -7  -3   0 52.3618 4.21658   2
  -7  -3   0 46.9045 5.84817   1
   7   3   0 51.0286 6.41674   2
   7   3   0 41.1838 3.73121   1
   7   3   0 36.7792 4.12984   2
   8   3   0 736.664 22.2834   2
   8   3   0 750.263 22.8213   1
   8   3   0 733.218 23.0285   2
  -9  -3   0 2.25475 3.45192   2
   9   3   0 10.3104 3.51029   2
 -10  -3   0 5.93358 5.16979   2
   9  -4   0 22.4562 5.21825   2
  -9   4   0 10.5657 4.01847   2
   8  -4   0 20.0862 3.93506   2
  -8   4   0 14.4111 3.09091   2
   7  -4   0 1240.58 31.7955   2
   7  -4   0 1123.99 31.1946   2
  -7   4   0 1146.24 33.2459   1
  -7   4   0 1173.18 31.2030   2
   6  -4   0 2.25092 1.72133   2
   6  -4   0 2.69534 2.64298   2
  -6   4   0 1.54167 2.48592   1
   5  -4   0 34.9159 3.83370   2
   5  -4   0 33.0075 3.11882   2
  -5   4   0 32.3472 2.86448   2
  -5   4   0 37.0443 3.72821   1
   4  -4   0 976.349 25.0774   2
  -4   4   0 1020.26 25.1319   2
   3  -4   0 714.424 18.5896   2
   3  -4   0 752.924 18.6886   2
  -3   4   0 745.559 18.6539   2
  -3   4   0 763.643 18.9631   2
   2  -4   0 686.504 18.4235   2
   2  -4   0 772.634 18.5768   2
  -2   4   0 816.580 18.6410   2
  -2   4   0 797.046 18.8208   2
   1  -4   0 25.9345 1.18683   2
   1  -4   0 26.5518 1.25505   2
  -1   4   0 24.9235 1.13506   2
  -1   4   0 25.8983 1.36215   2
  -1  -4   0 8.56309 0.74332   2
   1   4   0 8.04103 0.77731   2
   1   4   0 8.36398 1.05840   1
  -2  -4   0 365.355 10.9139   1
   2   4   0 365.716 10.7405   1
   2   4   0 369.179 9.54329   2
   2   4   0 375.410 9.70412   2
  -3  -4   0 815.792 20.0402   2
  -3  -4   0 795.963 22.2826   1
   3   4   0 827.544 22.0736   1
   3   4   0 796.610 20.3375   2
   3   4   0 822.952 20.2251   2
  -4  -4   0 382.344 10.9685   2
  -4  -4   0 392.834 12.4745   1
   4   4   0 381.024 11.2976   2
   4   4   0 390.640 11.8918   1
   4   4   0 395.177 11.4217   2
  -5  -4   0 75.3854 5.07451   1
  -5  -4   0 70.6641 3.82649   2
   5   4   0 67.3493 3.96090   2
   5   4   0 72.5725 4.00824   1
   5   4   0 67.5155 4.70980   2
  -6  -4   0 583.091 16.4300   2
  -6  -4   0 565.120 18.4890   1
   6   4   0 602.342 17.2980   2
   6   4   0 551.029 16.7977   2
   6   4   0 554.018 17.3901   1
  -7  -4   0 98.7748 5.54111   2
  -7  -4   0 81.1829 8.09403   1
   7   4   0 89.6229 5.21332   1
   7   4   0 87.3210 5.73630   2
   7   4   0 97.0969 8.06488   2
  -8  -4   0 757.787 22.2084   2
   8   4   0 781.794 23.1359   2
   8   4   0 760.184 24.0377   2
   8   4   0 751.497 23.4294   1
  -9  -4   0 35.9969 5.19201   2
   9   4   0 30.5034 4.35581   2
   9   4   0 37.8813 5.13225   1
 -10  -4   0 32.8454 6.28480   2
   8  -5   0 6.00695 3.73984   2
  -8   5   0 2.43789 3.01621   2
   7  -5   0 975.226 27.1600   2
  -7   5   0 984.578 26.9444   2
   6  -5   0 16.5369 3.77774   2
   6  -5   0 16.5962 2.67482   2
  -6   5   0 13.8695 3.47439   1
  -6   5   0 14.7221 2.52269   2
   5  -5   0 66.3808 4.05762   2
   5  -5   0 80.4210 5.09711   2
  -5   5   0 71.4296 4.06977   2
   4  -5   0 361.668 10.8288   2
   4  -5   0 370.496 10.7339   2
  -4   5   0 366.124 10.7163   2
   3  -5   0 483.926 12.9730   2
  -3   5   0 500.331 12.9910   2
   2  -5   0 434.849 11.0986   2
  -2   5   0 433.685 11.1068   2
  -2   5   0 446.972 11.4413   2
   1  -5   0 216.759 5.33557   2
   1  -5   0 213.671 5.36027   2
  -1   5   0 217.943 5.76730   2
  -1   5   0 219.108 5.56049   2
   0   5   0 103.879 2.66754   2
  -1  -5   0 231.753 5.39050   2
  -1  -5   0 226.923 5.39586   2
   1   5   0 227.898 7.36753   1
   2   5   0 16.9094 1.35346   2
   2   5   0 15.8046 1.50320   2
   2   5   0 20.2735 1.72321   1
  -3  -5   0 1289.82 34.3834   1
   3   5   0 1299.65 34.0414   1
   3   5   0 1282.76 30.8458   2
   3   5   0 1267.08 31.0796   2
  -4  -5   0 2.16201 0.97517   2
  -4  -5   0 1.68774 1.94866   1
   4   5   0 1.21555 1.65732   2
   4   5   0 0.36473 0.99103   2
   4   5   0 1.08363 1.06037   1
  -5  -5   0 12.6051 1.95395   2
  -5  -5   0 10.6022 3.10935   1
   5   5   0 11.7935 2.74939   2
   5   5   0 15.0571 2.20768   1
   5   5   0 8.82662 1.83722   2
  -6  -5   0 812.876 21.4827   2
  -6  -5   0 775.131 24.4210   1
   6   5   0 792.106 22.4032   2
   6   5   0 772.481 22.0190   2
  -7  -5   0 220.413 12.0604   1
  -7  -5   0 227.848 8.95228   2
   7   5   0 228.213 9.43701   1
   7   5   0 220.291 9.42066   2
   7   5   0 231.220 11.0408   2
  -8  -5   0 230.927 10.1159   2
   8   5   0 229.718 12.9259   2
   8   5   0 236.712 9.98397   1
   8   5   0 226.446 10.2739   2
  -9  -5   0 54.0430 7.50183   2
   9   5   0 52.4069 7.04979   2
   9   5   0 51.4499 6.38222   1
  -8   6   0 14.4049 3.82854   2
   7  -6   0 217.560 9.77255   2
  -7   6   0 217.738 9.35406   2
   6  -6   0 62.5861 6.82132   2
   6  -6   0 62.6643 4.87870   2
  -6   6   0 62.7400 4.61906   2
  -6   6   0 63.9577 6.06696   1
   5  -6   0 355.163 10.9909   2
   5  -6   0 336.774 11.2742   2
  -5   6   0 332.913 11.5078   2
   4  -6   0 741.864 19.6253   2
   4  -6   0 767.928 19.5919   2
  -4   6   0 755.784 19.6117   2
   3  -6   0 10.4485 1.73454   2
  -3   6   0 9.30452 1.30298   2
   2  -6   0 40.0183 2.06539   2
   2  -6   0 46.5896 2.22040   2
  -2   6   0 45.2770 1.99656   2
   0   6   0 75.6601 3.66389   1
   1   6   0 1192.46 27.3781   2
   1   6   0 1193.52 27.4793   2
   1   6   0 1194.35 31.7578   1
  -2  -6   0 169.613 4.75631   2
   2   6   0 178.024 5.25193   2
   2   6   0 169.465 5.05815   2
   2   6   0 180.187 6.44656   1
   3   6   0 841.364 21.3624   2
   3   6   0 886.419 21.7520   2
   3   6   0 878.028 24.0307   1
  -4  -6   0 185.030 7.95873   1
  -4  -6   0 182.922 6.18696   2
   4   6   0 189.912 6.74320   2
   4   6   0 176.122 6.95958   1
   4   6   0 185.020 6.83947   2
  -5  -6   0 254.143 10.6548   1
  -5  -6   0 253.741 8.26821   2
   5   6   0 228.938 8.99014   2
   5   6   0 242.977 8.73938   2
   5   6   0 238.262 8.88510   1
  -6  -6   0 1035.69 26.8291   2
  -6  -6   0 987.253 30.6263   1
   6   6   0 1073.54 27.8317   2
   6   6   0 1033.88 29.2790   1
   6   6   0 1003.29 27.5743   2
  -7  -6   0 197.046 8.55531   2
   7   6   0 195.303 8.81541   2
   7   6   0 195.187 8.63522   1
  -8  -6   0 -0.7530 3.32101   2
   8   6   0 9.03585 3.16167   1
   8   6   0 4.06296 3.34980   2
  -7   7   0 7.31126 2.95814   2
   6  -7   0 14.9049 3.07397   2
  -6   7   0 16.5327 2.76650   2
   5  -7   0 406.062 12.2054   2
  -5   7   0 398.063 12.2390   2
   4  -7   0 148.206 6.30580   2
   4  -7   0 145.788 6.04729   2
  -4   7   0 145.506 5.49665   2
   3  -7   0 161.868 5.29902   2
  -3   7   0 157.836 5.24595   2
   2  -7   0 39.5699 1.53197   2
   2  -7   0 41.6505 1.56605   2
  -2   7   0 43.4662 1.91269   2
   0   7   0 0.36430 1.14920   1
   1   7   0 1528.43 40.4500   1
   2   7   0 30.6893 1.76117   2
   2   7   0 33.4437 1.84489   2
   2   7   0 40.7944 2.89492   1
  -3  -7   0 106.550 3.87003   2
   3   7   0 104.325 4.17569   2
   3   7   0 110.534 5.08661   1
   3   7   0 104.126 4.21668   2
   4   7   0 426.674 13.5914   1
   4   7   0 449.371 12.5302   2
   4   7   0 408.355 12.2166   2
  -5  -7   0 549.056 15.0994   2
  -5  -7   0 521.487 18.2489   1
   5   7   0 560.061 17.0555   1
   5   7   0 547.269 16.0044   2
  -6  -7   0 461.067 13.7206   2
  -6  -7   0 427.074 17.5801   1
   6   7   0 457.541 14.4352   2
   6   7   0 431.321 15.0138   2
   6   7   0 459.927 15.0794   1
  -7  -7   0 58.2115 5.57921   2
   7   7   0 50.0262 5.72887   2
   7   7   0 57.4365 5.09048   1
   7   7   0 49.3004 6.96678   2
   8   7   0 76.8659 6.57717   1
   8   7   0 78.9292 7.29178   2
  -7   8   0 30.0419 4.35421   2
  -6   8   0 8.26248 2.61585   2
   5  -8   0 11.6767 3.74129   2
  -5   8   0 11.7350 2.12230   2
   4  -8   0 141.903 5.83426   2
   4  -8   0 146.371 6.05741   2
  -4   8   0 144.915 5.45185   2
   3  -8   0 224.860 6.07200   2
  -3   8   0 221.635 6.56201   2
   0   8   0 13.5375 2.11016   1
   1   8   0 1374.23 37.0538   1
   2   8   0 34.4216 1.32960   2
   2   8   0 38.5911 1.38319   2
   2   8   0 36.2267 3.06751   1
  -3  -8   0 56.0440 1.79828   2
  -3  -8   0 57.3968 1.82568   2
   3   8   0 56.4684 2.84813   2
   3   8   0 61.8418 4.04874   1
  -4  -8   0 534.540 13.9765   2
   4   8   0 555.725 16.9672   1
   4   8   0 531.496 14.7427   2
   4   8   0 524.026 14.6077   2
   5   8   0 482.797 14.5707   2
   5   8   0 516.835 16.2535   1
   5   8   0 488.074 14.8959   2
  -6  -8   0 50.2589 4.68074   2
   6   8   0 49.6221 4.75126   1
   6   8   0 48.6341 4.91597   2
   6   8   0 56.7559 7.99628   2
   7   8   0 9.37889 3.53593   1
   7   8   0 0.85343 3.22815   2
  -6   9   0 40.4784 5.27270   2
   5  -9   0 -4.1499 3.63618   2
  -5   9   0 0.40965 1.97319   2
   4  -9   0 350.006 8.82784   2
  -4   9   0 325.203 9.93796   2
  -3   9   0 30.8884 1.89604   2
  -1   9   0 883.571 25.6101   1
   0   9   0 72.3376 4.73095   1
   1   9   0 456.138 14.6429   1
   3   9   0 658.620 19.3579   1
   3   9   0 624.845 15.1753   2
   3   9   0 609.615 15.0650   2
   4   9   0 141.046 6.81654   1
   4   9   0 119.616 5.08735   2
   5   9   0 77.4731 4.92049   2
   5   9   0 77.1846 5.77843   1
   6   9   0 1.84907 3.26284   1
   6   9   0 0.37653 2.87729   2
   7   9   0 24.5441 4.82317   1
   7   9   0 14.3918 4.45838   2
  -6  10   0 54.4524 6.28166   2
  -5  10   0 65.1088 4.57091   2
  -2  10   0 82.1914 5.99272   1
  -1  10   0 824.557 24.6602   1
   0  10   0 184.533 8.24169   1
   1  10   0 2.91262 2.55056   1
   2  10   0 99.9121 5.94938   1
   3  10   0 447.285 15.0133   1
   4  10   0 57.7626 2.88564   2
   4  10   0 64.3442 3.11102   2
   4  10   0 69.3690 5.55396   1
   5  10   0 7.46863 3.67560   1
   5  10   0 -2.3746 2.26339   2
   6  10   0 1.34658 4.22195   1
   6  10   0 6.04885 3.39898   2
  -2  11   0 219.326 10.5119   1
  -1  11   0 361.439 13.5579   1
   0  11   0 72.8707 6.17190   1
   1  11   0 163.173 8.30439   1
   2  11   0 16.0766 3.69194   1
   3  11   0 192.834 9.32498   1
   4  11   0 49.4581 6.70086   1
   5  11   0 32.0641 6.27378   1
  -1  12   0 30.5448 5.29973   1
   0  12   0 2.21180 4.31884   1
   1  12   0 215.433 10.8970   1
   2  12   0 -0.5699 4.40422   1
   3  12   0 1.36155 5.09480   1
   3  12  -1 26.0690 5.61067   1
   2  12  -1 76.9095 8.03611   1
   0  12  -1 356.494 14.1641   1
  -1  12  -1 12.5863 4.95112   1
  -2  12  -1 5.01439 4.81820   1
  -3  12  -1 161.742 11.4997   1
   5  11  -1 46.2096 6.43109   1
   4  11  -1 176.706 9.69913   1
   3  11  -1 57.9499 6.25488   1
   2  11  -1 362.222 13.2313   1
   1  11  -1 107.549 6.66622   1
   0  11  -1 142.067 7.76120   1
  -1  11  -1 16.0761 3.34173   1
  -2  11  -1 12.4177 3.65946   1
  -3  11  -1 142.105 8.94662   1
   6  10  -1 309.238 11.7876   2
   6  10  -1 393.969 14.7186   1
   5  10  -1 160.055 6.61714   2
   5  10  -1 173.407 8.84314   1
   4  10  -1 20.6854 1.61114   2
   4  10  -1 22.4593 3.85625   1
   3  10  -1 41.5450 4.71227   1
   2  10  -1 802.448 23.6619   1
   1  10  -1 17.5087 2.90346   1
   0  10  -1 4.45091 2.20955   1
  -1  10  -1 37.7942 4.21830   1
  -2  10  -1 51.4704 5.15942   1
  -5  10  -1 7.28338 2.05051   2
  -6  10  -1 1.62152 3.24541   2
   7   9  -1 321.842 14.3115   1
   6   9  -1 273.647 11.1256   1
   6   9  -1 212.071 9.48917   2
   5   9  -1 44.6693 4.20297   2
   5   9  -1 36.1519 4.75574   1
   4   9  -1 237.843 9.37374   1
   4   9  -1 211.714 7.09337   2
   3   9  -1 4.94541 0.69498   2
   3   9  -1 2.80144 0.58544   2
   3   9  -1 6.51198 2.18605   1
   2   9  -1 454.143 14.4852   1
   1   9  -1 18.8156 2.90899   1
   0   9  -1 105.790 5.44591   1
  -1   9  -1 30.2669 3.42984   1
  -4   9  -1 407.800 10.9157   2
  -5   9  -1 4.77432 1.97472   2
  -6   9  -1 110.609 6.59966   2
   7   8  -1 334.654 13.0104   1
   7   8  -1 318.718 12.6576   2
   6   8  -1 21.5342 3.24591   2
   5   8  -1 15.4362 2.86038   1
   5   8  -1 12.0928 2.26272   2
   5   8  -1 14.7495 3.66025   2
   4   8  -1 614.385 16.6058   2
   4   8  -1 643.422 16.7375   2
  -4  -8   1 617.809 15.8443   2
   3   8  -1 0.52473 1.55885   1
   3   8  -1 1.26285 0.93452   2
   2   8  -1 52.4835 3.50627   1
   1   8  -1 137.930 5.84138   1
   0   8  -1 52.5955 3.49029   1
  -1   8  -1 79.7926 4.45607   1
  -3   8  -1 340.741 8.93176   2
  -4   8  -1 139.782 5.04316   2
   4  -8   1 123.820 4.98643   2
   4  -8   1 138.310 5.22847   2
  -5   8  -1 64.3891 4.19572   2
   5  -8   1 62.6820 5.96661   2
  -6   8  -1 431.364 13.6267   2
  -7   8  -1 50.3895 6.26162   2
   8   7  -1 127.028 8.43280   1
   8   7  -1 95.7779 8.45642   2
   7   7  -1 188.232 9.14209   1
   7   7  -1 188.537 9.04947   2
   6   7  -1 4.20767 2.26065   2
   6   7  -1 6.62951 4.34564   2
   6   7  -1 10.0415 2.55437   1
  -6  -7   1 11.9915 5.97887   1
  -6  -7   1 4.33097 2.27993   2
   5   7  -1 21.0731 3.56413   2
   5   7  -1 29.1674 3.46179   2
   5   7  -1 20.3201 3.22850   1
  -5  -7   1 25.5402 2.99785   2
  -5  -7   1 19.8056 4.62896   1
   4   7  -1 525.710 14.4719   2
   4   7  -1 527.334 15.9081   1
   4   7  -1 506.205 14.4006   2
  -4  -7   1 515.516 16.8977   1
   3   7  -1 94.7643 3.74789   2
   3   7  -1 93.2198 4.53139   1
   3   7  -1 89.7759 3.97127   2
  -3  -7   1 91.1154 3.47863   2
   2   7  -1 42.6644 1.83706   2
   2   7  -1 43.5561 1.79971   2
   2   7  -1 49.8652 3.04361   1
   1   7  -1 90.4190 4.22669   1
   0   7  -1 0.18717 1.00506   1
  -2   7  -1 794.990 18.6233   2
  -3   7  -1 301.552 8.26817   2
   3  -7   1 300.229 7.99793   2
   3  -7   1 294.122 7.92293   2
  -4   7  -1 3.38283 1.19701   2
   4  -7   1 2.78198 1.91360   2
  -5   7  -1 30.9119 3.15606   2
   5  -7   1 30.3347 3.71521   2
   5  -7   1 28.3608 3.33464   2
  -6   7  -1 1126.93 29.1309   2
  -6   7  -1 1094.70 31.8332   1
   6  -7   1 1106.90 29.3063   2
  -7   7  -1 2.82879 2.79014   2
   8   6  -1 96.1382 7.17330   1
   8   6  -1 74.6237 6.94226   2
  -8  -6   1 66.3514 7.01447   2
   7   6  -1 29.9507 4.47506   1
   7   6  -1 39.8202 4.99733   2
   7   6  -1 47.7671 6.56650   2
  -7  -6   1 27.9301 3.77221   2
   6   6  -1 157.195 7.29530   2
   6   6  -1 157.558 7.15898   1
   6   6  -1 143.680 8.39336   2
  -6  -6   1 141.672 9.57183   1
  -6  -6   1 154.356 6.83022   2
   5   6  -1 87.8638 4.95458   2
   5   6  -1 94.3799 4.95643   1
   5   6  -1 84.2789 5.76700   2
  -5  -6   1 85.1573 4.42253   2
  -5  -6   1 84.4268 6.83115   1
   4   6  -1 276.269 9.34778   1
   4   6  -1 265.685 8.71922   2
   4   6  -1 264.625 8.87868   2
  -4  -6   1 271.735 8.24532   2
  -4  -6   1 274.574 10.2577   1
   3   6  -1 605.444 15.6873   2
   3   6  -1 628.928 17.6413   1
   3   6  -1 600.518 15.8196   2
   2   6  -1 115.089 4.66273   1
   2   6  -1 109.605 3.65691   2
   2   6  -1 112.996 3.68237   2
  -2  -6   1 114.670 3.29548   2
   1   6  -1 75.0597 3.51249   1
   0   6  -1 217.796 7.28688   1
  -2   6  -1 719.754 17.2838   2
   2  -6   1 736.638 16.8991   2
   2  -6   1 716.216 16.8571   2
  -3   6  -1 339.854 9.42156   2
   3  -6   1 354.040 9.42370   2
  -4   6  -1 707.810 18.2489   2
   4  -6   1 695.707 18.2074   2
  -5   6  -1 5.97447 1.67480   2
   5  -6   1 3.80609 2.54470   2
   5  -6   1 6.79405 1.75213   2
  -6   6  -1 851.956 22.8251   2
  -6   6  -1 810.915 24.4625   1
   6  -6   1 859.507 22.9548   2
   6  -6   1 807.587 22.9673   2
  -7   6  -1 -0.4013 2.38468   2
   7  -6   1 4.67485 2.81537   2
  -8   6  -1 43.4060 5.95436   2
  -9  -5   1 272.625 12.7023   2
   8   5  -1 42.2886 5.30575   1
   8   5  -1 46.5643 7.88810   2
   8   5  -1 57.5214 5.64588   2
  -8  -5   1 30.2890 4.40324   2
   7   5  -1 72.5349 5.47434   2
   7   5  -1 71.8501 8.51840   2
   7   5  -1 72.5813 4.91786   1
  -7  -5   1 59.5810 8.58434   1
  -7  -5   1 64.4187 5.23593   2
   6   5  -1 98.7335 5.69045   2
   6   5  -1 102.384 7.28137   2
  -6  -5   1 104.023 8.02845   1
  -6  -5   1 96.7065 5.22493   2
   5   5  -1 9.56701 2.61256   2
   5   5  -1 11.6478 1.92892   1
   5   5  -1 8.34422 1.89863   2
  -5  -5   1 13.2545 3.20077   1
  -5  -5   1 10.0112 1.73424   2
   4   5  -1 113.165 5.24642   2
   4   5  -1 110.858 4.90905   2
   4   5  -1 108.477 4.84444   1
  -4  -5   1 114.656 4.53144   2
  -4  -5   1 117.996 5.91724   1
   3   5  -1 827.612 20.6643   2
   3   5  -1 834.153 22.6728   1
   3   5  -1 819.481 20.7810   2
  -3  -5   1 830.265 23.0198   1
   2   5  -1 71.2095 2.84207   2
   2   5  -1 75.5728 2.81456   2
   2   5  -1 73.0163 3.29952   1
  -2  -5   1 68.7568 3.63532   1
   1   5  -1 442.436 10.3492   2
   1   5  -1 429.749 12.4354   1
   0   5  -1 825.854 22.0977   1
  -1   5  -1 1529.57 35.1343   2
  -2   5  -1 185.931 5.17988   2
   2  -5   1 182.016 5.07808   2
   2  -5   1 184.562 5.08184   2
  -3   5  -1 56.3465 2.65346   2
   3  -5   1 56.4286 2.96661   2
   3  -5   1 55.9846 2.88292   2
  -4   5  -1 1174.49 28.6081   2
   4  -5   1 1138.77 28.5045   2
   4  -5   1 1159.03 28.5171   2
  -5   5  -1 2.01534 1.33916   2
   5  -5   1 3.21149 2.25591   2
   5  -5   1 4.99495 1.56643   2
  -6   5  -1 381.600 12.3614   2
  -6   5  -1 388.097 13.3016   1
   6  -5   1 406.986 12.7144   2
   6  -5   1 371.339 12.8144   2
  -7   5  -1 -1.8266 2.02347   2
  -7   5  -1 2.33397 3.90356   1
   7  -5   1 2.49903 2.46135   2
  -8   5  -1 176.830 9.01543   2
   8  -5   1 203.107 10.0162   2
   9   4  -1 157.756 9.48225   2
  -9  -4   1 153.978 9.90149   2
   8   4  -1 2.30693 5.86540   2
   8   4  -1 3.36471 2.64644   2
   8   4  -1 6.85089 2.63530   1
  -8  -4   1 -3.3796 2.79728   2
   7   4  -1 124.560 6.90653   2
   7   4  -1 126.874 6.71081   1
   7   4  -1 139.742 9.11400   2
  -7  -4   1 141.117 6.83710   2
  -7  -4   1 125.490 9.32579   1
   6   4  -1 219.409 8.60522   1
   6   4  -1 236.207 9.58874   2
  -6  -4   1 210.551 9.91981   1
  -6  -4   1 241.430 8.57884   2
   5   4  -1 355.181 11.5719   1
   5   4  -1 349.711 11.3315   2
   5   4  -1 356.862 11.4258   2
  -5  -4   1 364.835 12.5545   1
  -5  -4   1 354.720 10.8740   2
   4   4  -1 180.009 6.45328   2
   4   4  -1 162.478 6.27985   1
   4   4  -1 175.261 6.52916   2
  -4  -4   1 169.022 5.94942   2
  -4  -4   1 172.524 7.03426   1
   3   4  -1 453.658 12.1526   2
   3   4  -1 453.954 13.0751   1
   3   4  -1 466.545 12.3068   2
  -3  -4   1 444.116 11.8404   2
  -3  -4   1 440.020 13.3333   1
   2   4  -1 20.3951 1.57069   1
   2   4  -1 18.8130 1.41020   2
   2   4  -1 22.8831 1.70113   2
  -2  -4   1 18.9024 1.86981   1
   1   4  -1 1531.21 34.2823   2
   1   4  -1 1464.85 38.2985   1
   1   4  -1 1513.40 34.3307   2
  -1  -4   1 1471.47 34.5544   2
   0   4  -1 772.698 20.4174   1
  -1   4  -1 3321.18 77.7170   2
   1  -4   1 3358.21 76.8099   2
   1  -4   1 3425.38 76.9357   2
  -2   4  -1 314.608 8.15618   2
   2  -4   1 312.341 8.11937   2
  -3   4  -1 276.463 8.06450   2
   3  -4   1 290.713 8.20065   2
   3  -4   1 289.743 8.13045   2
  -4   4  -1 2029.18 49.5907   2
   4  -4   1 2134.57 49.7877   2
   4  -4   1 2120.03 49.6708   2
  -5   4  -1 65.4123 3.72593   2
  -5   4  -1 57.3578 4.10775   1
   5  -4   1 58.4492 4.25340   2
   5  -4   1 57.8934 3.67064   2
  -6   4  -1 -0.4268 2.21555   1
  -6   4  -1 1.93917 1.41966   2
   6  -4   1 3.43149 1.63926   2
   6  -4   1 1.38058 2.50856   2
  -7   4  -1 24.9602 3.67075   2
  -7   4  -1 18.9035 4.31307   1
   7  -4   1 21.7341 3.32890   2
   7  -4   1 19.5929 4.13943   2
  -8   4  -1 110.802 6.70626   2
   8  -4   1 115.233 7.77840   2
  -9   4  -1 95.7418 7.76067   2
   9  -4   1 110.857 9.06052   2
 -10  -3   1 21.2709 6.29706   2
   9   3  -1 5.72787 3.64375   2
  -9  -3   1 1.95879 3.64541   2
   8   3  -1 6.22551 5.30199   2
   8   3  -1 15.0131 3.04038   2
   7   3  -1 31.4343 4.89573   2
   7   3  -1 16.4541 2.73675   2
   7   3  -1 21.0619 3.21975   1
  -7  -3   1 25.4634 3.44718   2
  -7  -3   1 22.2747 4.78396   1
   6   3  -1 261.257 9.54539   2
   6   3  -1 240.807 9.18878   1
   6   3  -1 266.113 10.1584   2
  -6  -3   1 254.244 8.96499   2
  -6  -3   1 250.980 10.2792   1
   5   3  -1 1023.57 26.6864   2
   5   3  -1 1072.76 27.1022   2
   5   3  -1 1042.02 28.5746   1
  -5  -3   1 993.557 26.3360   2
  -5  -3   1 1063.94 29.1443   1
   4   3  -1 409.421 11.6495   2
   4   3  -1 406.573 11.7241   2
   4   3  -1 380.740 11.9943   1
  -4  -3   1 410.103 12.5773   1
  -4  -3   1 393.789 11.2672   2
   3   3  -1 5.24626 1.03890   1
   3   3  -1 5.25575 1.33110   2
   3   3  -1 3.69411 0.95545   2
  -3  -3   1 5.81800 1.49226   1
  -3  -3   1 2.94025 0.84875   2
   2   3  -1 278.233 8.01038   1
   2   3  -1 269.426 7.38015   2
   2   3  -1 269.466 7.42861   2
  -2  -3   1 263.439 8.07834   1
   1   3  -1 4104.67 98.2255   2
   1   3  -1 4360.02 110.219   1
   1   3  -1 4285.25 99.3944   2
  -1  -3   1 4249.47 109.988   1
  -1   3  -1 50.2419 1.56401   2
   1  -3   1 46.7004 1.52002   2
   1  -3   1 46.4698 1.49919   2
  -2   3  -1 1485.56 35.1031   2
   2  -3   1 1508.25 35.1378   2
   2  -3   1 1530.70 35.0876   2
  -3   3  -1 726.777 18.1590   2
   3  -3   1 712.267 18.1015   2
   3  -3   1 745.298 18.2766   2
  -4   3  -1 1058.48 27.8962   1
  -4   3  -1 1026.35 25.9092   2
   4  -3   1 1028.84 26.0548   2
   4  -3   1 1065.56 25.9782   2
  -5   3  -1 30.0335 2.98268   1
  -5   3  -1 33.1055 2.55926   2
   5  -3   1 31.8201 3.28953   2
   5  -3   1 37.1933 2.90108   2
  -6   3  -1 80.4753 4.46711   2
  -6   3  -1 70.3615 4.88605   1
   6  -3   1 78.4973 5.28597   2
   6  -3   1 74.6927 4.50609   2
  -7   3  -1 13.6172 2.40939   2
  -7   3  -1 7.56113 3.23534   1
   7  -3   1 9.65298 2.32865   2
   7  -3   1 10.7948 3.48177   2
  -8   3  -1 4.26719 2.34437   2
   8  -3   1 2.97766 2.75094   2
  -9   3  -1 250.961 10.9823   2
   9  -3   1 247.282 11.5421   2
  10  -3   1 101.939 11.1477   2
 -10  -2   1 87.3167 9.49333   2
   9   2  -1 19.8206 4.24386   2
  -9  -2   1 21.9903 4.61738   2
   8   2  -1 11.4134 2.69146   2
   8   2  -1 10.2410 5.31775   2
  -8  -2   1 14.6229 2.82929   2
   7   2  -1 170.353 8.91400   2
   7   2  -1 158.037 7.52150   2
  -7  -2   1 157.338 8.36066   1
  -7  -2   1 156.463 7.11122   2
   6   2  -1 529.234 16.0910   1
   6   2  -1 499.313 15.5769   2
   6   2  -1 506.848 15.6374   2
  -6  -2   1 549.714 16.7362   1
  -6  -2   1 506.772 15.1488   2
   5   2  -1 998.534 27.4407   1
   5   2  -1 1008.23 26.0077   2
   5   2  -1 1018.22 25.8068   2
  -5  -2   1 976.611 27.7030   1
  -5  -2   1 983.755 25.4738   2
   4   2  -1 363.687 10.7315   2
   4   2  -1 368.019 11.0914   1
   4   2  -1 371.520 10.6886   2
  -4  -2   1 353.890 10.3494   2
  -4  -2   1 337.603 11.1880   1
   3   2  -1 1146.73 27.1581   2
   3   2  -1 1138.18 26.9434   2
   3   2  -1 1062.34 29.0351   1
  -3  -2   1 1097.43 26.7606   2
  -3  -2   1 1096.69 29.2653   1
   2   2  -1 373.183 10.5886   1
   2   2  -1 390.061 9.92542   2
   2   2  -1 373.637 9.95969   2
  -2  -2   1 380.568 10.7306   1
  -2  -2   1 382.021 9.79390   2
   1   2  -1 9937.21 250.411   1
   1   2  -1 9981.24 228.399   2
   1   2  -1 9999.99 228.257   2
  -1  -2   1 9839.82 250.276   1
   0   2  -1 80.3090 1.94409   2
  -1   2  -1 111.585 3.10552   2
   1  -2   1 118.067 3.08773   2
  -2   2  -1 1335.43 31.2597   2
   2  -2   1 1336.19 31.2102   2
  -3   2  -1 292.753 8.25187   2
  -3   2  -1 287.452 8.61386   1
   3  -2   1 292.031 8.34964   2
   3  -2   1 295.053 8.28374   2
  -4   2  -1 188.427 6.62596   1
  -4   2  -1 192.909 6.44050   2
   4  -2   1 189.274 6.55261   2
   4  -2   1 201.821 6.66859   2
  -5   2  -1 297.651 9.87335   1
  -5   2  -1 285.207 9.26525   2
   5  -2   1 291.610 9.66822   2
   5  -2   1 300.382 9.63138   2
  -6   2  -1 100.061 4.97022   2
  -6   2  -1 94.1524 5.39576   1
   6  -2   1 100.860 5.82804   2
   6  -2   1 99.6442 5.17585   2
  -7   2  -1 33.1883 3.48993   2
  -7   2  -1 25.3252 3.75059   1
   7  -2   1 28.8714 3.97331   2
   7  -2   1 29.2069 3.64607   2
  -8   2  -1 40.0096 5.87619   1
  -8   2  -1 39.9994 4.21643   2
  -9   2  -1 707.600 21.8425   2
   9  -2   1 728.804 22.6207   2
  10  -2   1 -5.9528 4.95776   2
 -10  -1   1 133.688 10.2359   2
   9   1  -1 3.42374 3.58799   2
  -9  -1   1 -3.2228 3.25423   2
   8   1  -1 48.4675 4.72932   2
   8   1  -1 50.3204 6.36285   2
  -8  -1   1 48.3286 5.00751   2
   7   1  -1 426.932 14.4443   2
  -7  -1   1 418.553 13.4981   2
  -7  -1   1 411.790 14.4813   1
   6   1  -1 1591.83 39.9167   2
   6   1  -1 1565.31 39.4813   2
  -6  -1   1 1617.86 42.5867   1
  -6  -1   1 1532.10 39.1981   2
   5   1  -1 237.146 8.46520   1
   5   1  -1 241.579 8.53557   2
   5   1  -1 241.397 8.43193   2
  -5  -1   1 251.166 8.27237   2
   4   1  -1 231.197 7.66405   2
   4   1  -1 227.533 7.59521   2
   4   1  -1 230.920 7.77514   1
  -4  -1   1 230.100 7.40174   2
  -4  -1   1 244.257 8.01675   1
   3   1  -1 3727.21 86.6998   2
   3   1  -1 3828.87 87.2518   2
   3   1  -1 3527.17 94.6444   1
  -3  -1   1 3660.10 86.0149   2
  -3  -1   1 3840.69 86.2254   2
  -3  -1   1 3538.51 94.7137   1
   2   1  -1 56.0982 2.42508   2
   2   1  -1 52.9742 2.37216   2
   2   1  -1 57.0607 2.42479   1
  -2  -1   1 53.4753 2.44294   2
  -2  -1   1 51.7544 2.23402   2
  -2  -1   1 52.2243 2.46195   1
   1   1  -1 1024.99 24.3718   2
   1   1  -1 1041.99 27.4541   1
   1   1  -1 1048.63 24.4616   2
  -1  -1   1 1063.73 24.8649   2
  -1  -1   1 1058.86 27.9668   1
  -1  -1   1 1080.35 24.4698   2
   0   1  -1 193.196 4.95407   1
   0   1  -1 189.761 4.52254   2
   0   1  -1 191.107 4.54187   2
   0  -1   1 190.828 4.52882   2
  -1   1  -1 1216.19 29.5328   2
   1  -1   1 1236.73 29.4972   2
  -2   1  -1 1206.01 27.6654   2
  -2   1  -1 1137.62 29.9501   1
   2  -1   1 1180.07 27.6228   2
   2  -1   1 1180.34 27.7274   2
  -3   1  -1 38.2025 2.18656   2
  -3   1  -1 47.3973 2.42063   1
   3  -1   1 39.2883 2.43390   2
   3  -1   1 38.9666 2.28393   2
  -4   1  -1 359.333 10.9391   1
  -4   1  -1 365.718 10.4349   2
   4  -1   1 364.735 10.6353   2
   4  -1   1 371.748 10.5553   2
  -5   1  -1 300.258 9.76877   1
  -5   1  -1 294.416 9.32857   2
   5  -1   1 283.635 9.47356   2
   5  -1   1 301.420 9.59487   2
  -6   1  -1 8.38285 1.67392   2
  -6   1  -1 9.27588 2.30293   1
   6  -1   1 8.51610 2.35061   2
   6  -1   1 3.69218 1.44113   2
  -7   1  -1 827.261 23.9460   1
  -7   1  -1 806.163 22.5348   2
   7  -1   1 809.872 22.9196   2
   7  -1   1 822.772 23.0811   2
  -8   1  -1 94.1148 5.65508   2
  -8   1  -1 87.5967 6.98085   1
   8  -1   1 85.9379 8.01253   2
   8  -1   1 94.4262 6.41065   2
  -9   1  -1 383.223 14.0487   2
   9  -1   1 388.664 14.5057   2
 -10   1  -1 23.0875 4.87619   2
  10  -1   1 30.1546 5.55720   2
  10   0  -1 132.189 11.6742   2
 -10   0   1 152.328 11.3270   2
   9   0  -1 9.17872 3.85854   2
  -9   0   1 13.5440 3.62055   2
   8   0  -1 464.170 17.0011   2
   8   0  -1 507.943 16.6266   2
  -8   0   1 500.790 16.1273   2
   7   0  -1 498.063 15.7233   2
   7   0  -1 468.570 15.6632   2
  -7   0   1 486.725 16.0485   1
  -7   0   1 498.140 15.2870   2
   6   0  -1 568.388 16.8046   2
   6   0  -1 540.154 16.4867   2
  -6   0   1 577.327 16.4191   2
  -6   0   1 573.307 17.2907   1
   5   0  -1 55.8243 3.56279   2
   5   0  -1 53.7603 4.01026   2
  -5   0   1 58.7942 3.42744   2
   4   0  -1 12.7249 1.74122   2
   4   0  -1 17.4055 2.34508   2
  -4   0   1 15.5182 1.71268   2
  -4   0   1 15.6585 2.05252   1
  -4   0   1 13.9960 2.08238   2
   3   0  -1 4973.59 113.690   2
   3   0  -1 4625.32 112.069   2
  -3   0   1 4696.99 124.387   1
  -3   0   1 4653.44 113.417   2
  -3   0   1 4972.46 113.772   2
   2   0  -1 4.72977 0.76314   2
   2   0  -1 5.26080 0.86095   2
  -2   0   1 5.01177 0.89012   2
  -2   0   1 4.93094 0.84993   1
  -2   0   1 5.06658 0.72692   2
   1   0  -1 84.4528 2.53737   2
   1   0  -1 84.1735 2.57634   2
  -1   0   1 82.5362 2.51626   2
  -1   0   1 83.0742 2.59074   2
  -1   0   1 82.3168 2.63457   1
  -1   0  -1 1112.77 29.7165   1
   1   0   1 1137.40 27.2846   2
  -2   0  -1 940.001 22.2838   2
  -2   0  -1 900.230 24.1473   1
   2   0   1 918.955 24.2039   1
   2   0   1 974.053 22.3532   2
  -3   0  -1 688.411 19.0327   1
  -3   0  -1 726.068 17.7667   2
   3   0   1 723.803 17.8001   2
   3   0   1 717.535 17.8903   2
   3   0   1 701.523 19.1146   1
  -4   0  -1 154.134 5.53122   2
  -4   0  -1 159.298 5.85609   1
   4   0   1 162.239 5.79888   2
   4   0   1 154.747 5.74124   1
   4   0   1 164.995 5.81463   2
  -5   0  -1 37.6455 3.07160   1
  -5   0  -1 31.3998 2.53455   2
   5   0   1 31.7671 2.65606   2
   5   0   1 34.5310 2.53871   1
   5   0   1 35.7483 3.27412   2
  -6   0  -1 33.0261 3.48044   1
  -6   0  -1 32.3112 2.93769   2
   6   0   1 33.3193 3.20529   2
   6   0   1 38.2806 4.12615   2
  -7   0  -1 2295.10 55.8335   2
  -7   0  -1 2278.51 60.3033   1
   7   0   1 2366.51 56.5591   2
   7   0   1 2204.25 55.9123   2
  -8   0  -1 4.51450 3.80718   1
  -8   0  -1 3.41593 2.08963   2
   8   0   1 1.59422 2.28144   2
   8   0   1 5.23596 4.16014   2
  -9   0  -1 99.5948 6.60762   2
   9   0   1 81.2181 6.95538   2
 -10   0  -1 198.109 10.3240   2
  10   0   1 195.541 10.7390   2
  10  -1  -1 3.25721 5.61532   2
   9  -1  -1 57.4490 6.90677   2
  -9   1   1 69.2947 6.70745   2
   8  -1  -1 1011.84 28.4676   2
  -8   1   1 981.462 27.7543   2
   7  -1  -1 159.789 7.59163   2
   7  -1  -1 155.390 8.28077   2
  -7   1   1 154.010 7.87181   1
   6  -1  -1 234.580 9.10796   2
   6  -1  -1 242.699 9.00475   2
  -6   1   1 228.119 8.48414   2
  -6   1   1 239.375 9.04951   1
   5  -1  -1 873.594 23.1714   2
  -5   1   1 861.710 22.7490   2
  -5   1   1 863.044 24.2731   1
  -5   1   1 894.823 23.1673   2
   4  -1  -1 526.323 14.6418   2
   4  -1  -1 546.047 14.5284   2
  -4   1   1 551.819 14.7435   2
  -4   1   1 537.159 14.4480   2
  -4   1   1 503.807 15.1882   1
   3  -1  -1 1095.95 26.4800   2
   3  -1  -1 1092.68 26.6767   2
  -3   1   1 1078.29 26.4388   2
  -3   1   1 1119.49 26.6799   2
  -3   1   1 1064.81 28.5148   1
   2  -1  -1 51.7657 2.20729   2
   2  -1  -1 49.8370 2.23194   2
  -2   1   1 49.9114 2.13780   2
  -2   1   1 47.8471 2.29279   2
   1  -1  -1 73.6942 2.34831   2
  -1   1   1 69.9110 2.31450   2
  -1   1   1 76.2586 2.43328   2
   0  -1  -1 85.5657 2.33921   2
   0   1   1 88.1533 2.37804   2
  -1  -1  -1 52.7878 1.90190   2
  -1  -1  -1 56.7675 2.12437   1
   1   1   1 53.7577 1.92487   2
   1   1   1 54.6399 2.07342   1
  -2  -1  -1 1668.48 38.5628   2
  -2  -1  -1 1684.98 43.6076   1
   2   1   1 1645.06 43.8270   1
   2   1   1 1644.42 38.5743   2
  -3  -1  -1 1444.98 33.3517   2
  -3  -1  -1 1351.12 36.1936   1
   3   1   1 1420.18 33.3791   2
   3   1   1 1418.83 33.4915   2
   3   1   1 1367.03 36.1110   1
  -4  -1  -1 225.481 7.72477   1
  -4  -1  -1 231.934 7.28980   2
   4   1   1 229.766 7.61363   1
   4   1   1 230.499 7.45453   2
   4   1   1 235.768 7.51463   2
  -5  -1  -1 539.742 16.0709   1
  -5  -1  -1 529.026 14.8972   2
   5   1   1 542.799 15.2926   2
   5   1   1 550.512 15.9746   1
   5   1   1 536.787 15.1562   2
  -6  -1  -1 21.7004 3.39656   1
  -6  -1  -1 16.6479 2.42813   2
   6   1   1 21.7261 2.50632   1
   6   1   1 18.2324 2.66837   2
   6   1   1 31.4340 3.68721   2
  -7  -1  -1 913.025 26.7280   1
  -7  -1  -1 865.136 24.5982   2
   7   1   1 950.893 25.5195   2
   7   1   1 947.716 25.5507   2
  -8  -1  -1 29.9944 4.91115   1
  -8  -1  -1 38.6861 4.08262   2
   8   1   1 32.5687 4.19219   2
   8   1   1 31.2960 5.44511   2
  -9  -1  -1 36.9477 5.06967   2
   9   1   1 32.0816 4.51911   2
 -10  -1  -1 263.474 12.2655   2
  10   1   1 248.341 12.4612   2
  10  -2  -1 188.123 12.8318   2
   9  -2  -1 42.1195 5.45163   2
  -9   2   1 53.0516 6.56771   2
   8  -2  -1 977.356 28.0379   2
  -8   2   1 985.610 27.5872   2
   7  -2  -1 14.0118 3.68638   2
   7  -2  -1 10.7253 2.42259   2
  -7   2   1 5.72315 2.23529   2
  -7   2   1 8.68375 3.14174   1
   6  -2  -1 42.8056 3.54115   2
   6  -2  -1 41.1044 4.64662   2
  -6   2   1 36.5730 3.33640   2
  -6   2   1 37.6284 4.20262   1
   5  -2  -1 1139.46 28.9452   2
   5  -2  -1 1144.40 29.2298   2
  -5   2   1 1137.33 28.9674   2
  -5   2   1 1149.29 29.2642   2
  -5   2   1 1137.26 30.9727   1
   4  -2  -1 141.245 5.47741   2
   4  -2  -1 139.035 5.41651   2
  -4   2   1 135.839 5.21231   2
  -4   2   1 139.720 5.65874   2
  -4   2   1 141.449 5.45765   1
   3  -2  -1 382.655 10.2531   2
   3  -2  -1 352.360 10.1918   2
  -3   2   1 359.964 10.3001   2
  -3   2   1 380.571 10.2216   2
   2  -2  -1 861.669 20.8737   2
   2  -2  -1 875.327 21.0071   2
  -2   2   1 868.551 20.9312   2
  -2   2   1 869.020 21.0213   2
   1  -2  -1 672.208 15.8672   2
   1  -2  -1 649.445 15.9417   2
  -1   2   1 669.026 15.9102   2
  -1   2   1 687.434 15.9769   2
   0  -2  -1 864.238 20.1355   2
   0   2   1 816.545 20.0206   2
   0   2   1 850.803 20.2355   2
  -1  -2  -1 2.72785 0.81126   1
  -1  -2  -1 1.41947 0.55129   2
   1   2   1 3.29869 0.68134   1
   1   2   1 1.93016 0.63313   2
  -2  -2  -1 1605.96 37.5235   2
  -2  -2  -1 1648.53 41.2290   1
   2   2   1 1565.24 41.0508   1
   2   2   1 1641.23 37.5746   2
  -3  -2  -1 626.334 16.8819   1
  -3  -2  -1 611.901 15.4242   2
   3   2   1 609.470 16.6077   1
   3   2   1 588.047 15.4442   2
  -4  -2  -1 12.4926 2.03557   1
  -4  -2  -1 8.44570 1.32619   2
   4   2   1 10.1553 1.76531   2
   4   2   1 11.0955 1.44478   2
   4   2   1 11.2819 1.35851   1
  -5  -2  -1 2443.69 57.6647   2
   5   2   1 2348.09 62.5758   1
   5   2   1 2461.03 58.1052   2
   5   2   1 2454.99 57.8392   2
  -6  -2  -1 11.7119 2.10864   2
  -6  -2  -1 14.6183 3.01558   1
   6   2   1 14.2740 2.33935   2
   6   2   1 16.8370 2.21683   1
  -7  -2  -1 736.132 20.7233   2
  -7  -2  -1 746.501 22.6297   1
   7   2   1 737.524 21.4666   2
  -8  -2  -1 21.1196 4.84019   1
   8   2   1 22.3259 5.18372   2
   8   2   1 17.1730 2.90111   1
   8   2   1 17.2555 3.17560   2
  -9  -2  -1 275.536 11.3176   2
   9   2   1 271.124 11.6203   2
 -10  -2  -1 156.000 10.0510   2
  10   2   1 145.986 9.55972   2
  10  -3  -1 491.150 19.8698   2
   9  -3  -1 8.31292 4.51076   2
  -9   3   1 5.43205 3.81802   2
   8  -3  -1 333.536 13.1712   2
  -8   3   1 336.814 12.6897   2
   7  -3  -1 10.7276 2.77170   2
   7  -3  -1 11.1589 3.78539   2
  -7   3   1 16.5689 2.89168   2
  -7   3   1 10.6315 3.65329   1
   6  -3  -1 226.118 9.07372   2
   6  -3  -1 228.152 8.78423   2
  -6   3   1 229.592 9.12047   1
  -6   3   1 231.904 8.69819   2
   5  -3  -1 634.713 17.8410   2
   5  -3  -1 652.296 18.1485   2
  -5   3   1 656.169 18.3144   2
  -5   3   1 661.469 17.9780   2
  -5   3   1 652.750 18.9428   1
   4  -3  -1 19.4266 2.03774   2
   4  -3  -1 18.8192 2.57943   2
  -4   3   1 19.3270 2.82116   2
  -4   3   1 20.2460 2.06051   2
   3  -3  -1 111.235 4.33521   2
   3  -3  -1 118.109 4.35451   2
  -3   3   1 115.271 4.59092   2
  -3   3   1 114.423 4.26024   2
   2  -3  -1 211.832 6.04169   2
   2  -3  -1 206.429 6.04457   2
  -2   3   1 213.750 6.20875   2
  -2   3   1 203.905 6.00129   2
   1  -3  -1 113.243 3.48359   2
  -1   3   1 125.616 3.57345   2
  -1   3   1 121.909 3.63634   2
   0  -3  -1 1698.71 40.0479   2
   0   3   1 1691.87 40.4864   2
   0   3   1 1727.26 40.5863   2
   1   3   1 708.490 18.2975   1
   1   3   1 665.013 16.1728   2
  -2  -3  -1 1845.84 47.3576   1
   2   3   1 1838.97 47.2399   1
   2   3   1 1873.84 42.9435   2
  -3  -3  -1 564.076 15.5142   1
  -3  -3  -1 548.736 14.0080   2
   3   3   1 527.557 14.0440   2
   3   3   1 540.512 15.2077   1
  -4  -3  -1 95.5464 4.60128   1
  -4  -3  -1 98.8316 4.08094   2
   4   3   1 98.4126 4.49598   2
   4   3   1 91.6651 4.11766   2
   4   3   1 90.0595 4.04309   1
  -5  -3  -1 2149.98 55.8648   1
  -5  -3  -1 2114.04 50.8784   2
   5   3   1 2079.54 55.2596   1
   5   3   1 2211.64 51.4949   2
   5   3   1 2080.41 51.0651   2
  -6  -3  -1 293.009 11.0020   1
  -6  -3  -1 270.577 9.42985   2
   6   3   1 281.606 10.0162   1
   6   3   1 286.168 10.3278   2
   6   3   1 289.530 10.0429   2
  -7  -3  -1 35.7456 4.90215   1
  -7  -3  -1 27.1889 3.19060   2
   7   3   1 23.7654 3.13178   1
   7   3   1 18.8898 2.77917   2
   7   3   1 22.5225 4.23521   2
  -8  -3  -1 107.808 6.09666   2
   8   3   1 92.8473 5.67850   1
   8   3   1 99.6584 9.36731   2
   8   3   1 89.4124 6.07444   2
  -9  -3  -1 300.886 11.9244   2
   9   3   1 286.184 12.0817   2
 -10  -3  -1 104.229 9.24625   2
   9  -4  -1 2.47091 4.81923   2
  -8   4   1 11.6649 2.92965   2
   7  -4  -1 103.901 6.58473   2
   7  -4  -1 94.7002 8.44342   2
  -7   4   1 103.364 5.90038   2
  -7   4   1 90.5977 7.20529   1
   6  -4  -1 209.727 8.94556   2
   6  -4  -1 218.622 8.62017   2
  -6   4   1 217.531 8.46488   2
  -6   4   1 210.150 8.92403   1
   5  -4  -1 398.818 12.5214   2
   5  -4  -1 421.488 12.6696   2
  -5   4   1 419.318 12.5228   2
  -5   4   1 404.445 12.9096   2
   4  -4  -1 309.580 9.57291   2
   4  -4  -1 309.236 9.62549   2
  -4   4   1 312.392 9.54435   2
  -4   4   1 312.857 9.97749   2
   3  -4  -1 5.64371 1.06512   2
   3  -4  -1 5.16265 1.36749   2
  -3   4   1 4.06154 0.95819   2
  -3   4   1 5.15084 1.49824   2
   2  -4  -1 1.30751 0.79673   2
  -2   4   1 2.02148 0.90456   2
   1  -4  -1 74.7841 2.55599   2
  -1   4   1 72.0120 2.65135   2
  -1   4   1 79.1254 2.58365   2
   0  -4  -1 3046.07 72.3357   2
   0  -4  -1 3140.70 72.4165   2
   0   4   1 3198.80 73.4307   2
  -1  -4  -1 208.346 5.32348   2
   1   4   1 207.715 5.48348   2
   1   4   1 204.861 6.62782   1
  -2  -4  -1 402.624 9.94146   2
  -2  -4  -1 380.252 11.3706   1
   2   4   1 371.906 9.85675   2
   2   4   1 383.102 11.2151   1
  -3  -4  -1 980.142 23.6989   2
  -3  -4  -1 963.670 26.3089   1
   3   4   1 968.283 26.0487   1
   3   4   1 976.781 23.7721   2
  -4  -4  -1 563.139 14.8799   2
  -4  -4  -1 573.750 16.6737   1
   4   4   1 530.031 15.9672   1
   4   4   1 566.978 15.1838   2
   4   4   1 545.999 15.0062   2
  -5  -4  -1 1293.57 35.3997   1
  -5  -4  -1 1306.03 32.0295   2
   5   4   1 1235.30 32.1767   2
   5   4   1 1311.69 32.5504   2
   5   4   1 1290.84 34.7114   1
  -6  -4  -1 40.0343 4.95254   1
  -6  -4  -1 41.0694 3.45389   2
   6   4   1 43.0325 3.20706   1
   6   4   1 46.0977 4.91878   2
   6   4   1 30.5559 3.19216   2
  -7  -4  -1 158.412 9.67120   1
  -7  -4  -1 167.538 7.26748   2
   7   4   1 162.923 9.21278   2
   7   4   1 157.569 7.35623   2
   7   4   1 165.136 7.35537   1
  -8  -4  -1 58.6829 5.46584   2
   8   4   1 44.5550 5.02678   2
   8   4   1 55.9608 4.78671   1
   8   4   1 50.4079 6.56371   2
  -9  -4  -1 419.131 14.6483   2
   9   4   1 396.633 14.6454   1
   9   4   1 373.603 14.5040   2
   9   4   1 373.773 18.0831   2
 -10  -4  -1 61.7148 8.80832   2
  -8   5   1 69.7452 6.52545   2
   7  -5  -1 12.8325 3.15268   2
   6  -5  -1 30.3730 4.08651   2
   6  -5  -1 48.2517 5.89581   2
  -6   5   1 40.1811 3.88269   2
  -6   5   1 42.2485 5.55604   1
   5  -5  -1 436.870 13.3427   2
   5  -5  -1 442.482 13.2329   2
  -5   5   1 421.420 13.0136   2
   4  -5  -1 616.414 16.4603   2
   4  -5  -1 607.103 16.3855   2
  -4   5   1 598.957 16.3339   2
  -4   5   1 598.356 16.7393   2
   3  -5  -1 73.0192 3.32486   2
   3  -5  -1 75.0775 3.73014   2
  -3   5   1 69.7532 3.25776   2
  -3   5   1 72.9277 3.96294   2
   2  -5  -1 273.039 7.69620   2
  -2   5   1 273.568 7.89022   2
  -2   5   1 279.710 7.66639   2
   1  -5  -1 29.5575 1.60558   2
   1  -5  -1 29.2337 1.57296   2
  -1   5   1 29.0693 1.42008   2
  -1   5   1 30.8811 1.75187   2
   0  -5  -1 3040.67 69.4700   2
   0  -5  -1 2950.07 69.1585   2
   0   5   1 3048.71 70.6067   2
  -1  -5  -1 3.63892 0.59475   2
  -1  -5  -1 3.29681 0.61523   2
   1   5   1 2.84185 0.86682   1
   1   5   1 2.89379 0.66025   2
   2   5   1 5.82510 1.13941   1
   2   5   1 7.85350 1.07424   2
  -3  -5  -1 1421.07 38.4429   1
   3   5   1 1483.88 34.5667   2
   3   5   1 1444.67 38.1764   1
  -4  -5  -1 671.106 17.7019   2
  -4  -5  -1 690.990 20.1279   1
   4   5   1 674.203 19.4898   1
   4   5   1 683.172 18.1733   2
   4   5   1 698.963 18.0581   2
  -5  -5  -1 508.948 16.4190   1
  -5  -5  -1 504.540 14.3003   2
   5   5   1 512.264 14.8412   2
   5   5   1 502.388 15.4979   1
   5   5   1 512.746 14.8656   2
  -6  -5  -1 0.80208 1.55847   2
  -6  -5  -1 2.55981 3.58033   1
   6   5   1 2.62768 3.00880   2
  -7  -5  -1 266.438 9.68593   2
  -7  -5  -1 234.685 12.3433   1
   7   5   1 246.001 9.91722   1
   7   5   1 242.375 9.96622   2
   7   5   1 239.362 11.2693   2
  -8  -5  -1 20.8827 3.58640   2
   8   5   1 25.3652 3.93227   1
   8   5   1 15.5916 3.67058   2
   8   5   1 19.4599 6.31158   2
  -9  -5  -1 11.5495 3.98396   2
   9   5   1 4.64316 3.90555   2
   9   5   1 9.98480 3.70894   1
  -8   6   1 80.2751 7.58683   2
   7  -6  -1 92.9639 7.50115   2
  -7   6   1 102.903 6.80882   2
   6  -6  -1 73.1179 7.30805   2
   6  -6  -1 69.0331 5.38099   2
  -6   6   1 65.5785 4.89854   2
  -6   6   1 68.3669 7.14836   1
   5  -6  -1 113.847 6.61897   2
   5  -6  -1 106.279 5.50541   2
  -5   6   1 112.432 5.53846   2
   4  -6  -1 162.027 6.15130   2
   4  -6  -1 175.490 6.85744   2
  -4   6   1 163.054 6.13525   2
  -3   6   1 30.9882 3.22982   2
  -3   6   1 30.5945 2.19120   2
   2  -6  -1 1619.85 37.0421   2
  -2   6   1 1541.14 37.3365   2
  -2   6   1 1574.09 37.0768   2
   1  -6  -1 5.84844 0.85666   2
   1  -6  -1 6.00376 0.79275   2
  -1   6   1 7.44360 0.83419   2
  -1   6   1 6.76512 1.05562   2
  -1  -6  -1 409.807 9.70125   2
  -1  -6  -1 406.501 9.64304   2
   1   6   1 418.450 12.5328   1
  -2  -6  -1 625.734 14.9393   2
  -2  -6  -1 617.824 15.1072   2
   2   6   1 608.394 15.2865   2
   2   6   1 636.769 17.8735   1
   3   6   1 1239.20 34.3771   1
   3   6   1 1301.00 30.8787   2
   3   6   1 1318.82 31.2315   2
  -4  -6  -1 169.328 7.44956   1
  -4  -6  -1 158.348 5.70323   2
   4   6   1 164.290 6.14232   2
   4   6   1 161.030 6.49599   1
   4   6   1 162.585 6.29363   2
  -5  -6  -1 3.92200 1.49196   2
  -5  -6  -1 1.66399 3.07373   1
   5   6   1 -0.4115 2.14920   2
   5   6   1 -1.6185 1.34824   2
   5   6   1 2.18899 1.31316   1
  -6  -6  -1 14.8897 2.39686   2
  -6  -6  -1 13.7469 4.46530   1
   6   6   1 13.2312 2.62883   2
   6   6   1 21.6858 2.81646   1
   6   6   1 10.9667 3.57909   2
  -7  -6  -1 223.408 8.83708   2
   7   6   1 208.220 9.24746   2
   7   6   1 215.959 9.27347   1
  -8  -6  -1 185.391 8.94148   2
   8   6   1 155.818 12.8627   2
   8   6   1 175.811 8.94180   1
   8   6   1 170.118 8.81699   2
  -7   7   1 116.228 7.36707   2
   6  -7  -1 148.708 7.53855   2
  -6   7   1 140.382 7.01729   2
   5  -7  -1 434.032 13.1336   2
   5  -7  -1 438.264 13.7987   2
  -5   7   1 413.919 12.9743   2
   4  -7  -1 8.47844 2.60223   2
  -4   7   1 8.84174 1.58162   2
   3  -7  -1 9.16692 1.97501   2
  -3   7   1 7.29587 1.23190   2
   2  -7  -1 1838.13 42.0702   2
   2  -7  -1 1806.87 42.1258   2
  -2   7   1 1795.67 42.3566   2
  -2   7   1 1830.64 42.8314   2
   0   7   1 76.4279 4.04904   1
   0   7   1 81.6129 2.45789   2
   1   7   1 127.407 5.47263   1
   1   7   1 123.871 3.53585   2
  -2  -7  -1 1112.67 26.1523   2
  -2  -7  -1 1120.44 26.1134   2
   2   7   1 1148.76 27.0304   2
   2   7   1 1153.21 30.9513   1
  -3  -7  -1 178.084 5.76767   2
   3   7   1 179.732 6.05371   2
   3   7   1 188.415 6.17378   2
   3   7   1 193.469 7.31457   1
  -4  -7  -1 -0.4579 1.55839   2
   4   7   1 1.33064 1.86978   2
   4   7   1 0.07740 1.44817   1
   4   7   1 -1.2658 1.19710   2
  -5  -7  -1 29.0536 3.03050   2
  -5  -7  -1 15.9932 4.33010   1
   5   7   1 27.2363 3.26847   1
   5   7   1 20.2269 3.55097   2
  -6  -7  -1 18.8167 5.55860   1
   6   7   1 29.7598 3.52916   1
   6   7   1 25.9567 3.31801   2
   6   7   1 17.7993 4.14957   2
  -7  -7  -1 46.6448 4.98689   2
   7   7   1 36.7648 4.69613   1
   7   7   1 30.8001 4.19569   2
   7   7   1 19.9581 5.94973   2
   8   7   1 254.084 11.5694   2
   8   7   1 242.070 11.3858   1
  -7   8   1 238.895 10.9992   2
  -6   8   1 114.898 6.75071   2
   5  -8  -1 134.278 8.30481   2
   5  -8  -1 125.210 7.06097   2
  -5   8   1 127.318 6.06065   2
   4  -8  -1 374.536 11.5908   2
  -4   8   1 383.148 11.3787   2
   3  -8  -1 112.167 4.72611   2
   3  -8  -1 113.456 4.54589   2
  -3   8   1 116.934 4.34097   2
  -2   8   1 1118.04 26.3787   2
   0   8   1 204.445 8.03677   1
   1   8   1 277.137 9.83887   1
   2   8   1 282.539 7.27280   2
   2   8   1 277.512 7.44215   2
   2   8   1 280.572 9.87942   1
  -3  -8  -1 112.691 3.72682   2
  -3  -8  -1 112.062 3.63221   2
   3   8   1 113.794 5.62919   1
   3   8   1 110.724 4.31316   2
   3   8   1 112.449 4.62180   2
  -4  -8  -1 133.435 5.50518   2
   4   8   1 130.017 5.51211   2
   4   8   1 136.662 5.94609   2
   4   8   1 138.000 6.38289   1
   5   8   1 13.4994 2.60414   1
   5   8   1 9.27730 2.31867   2
   5   8   1 12.0566 3.30020   2
   6   8   1 35.2329 4.37170   1
   6   8   1 34.8172 4.69863   2
   6   8   1 46.1613 5.79552   2
   7   8   1 8.51652 3.27507   1
  -6   9   1 -1.9867 3.15020   2
   5  -9  -1 7.10722 4.34007   2
  -5   9   1 3.48746 2.35510   2
   4  -9  -1 603.022 15.5609   2
  -4   9   1 587.108 15.7840   2
  -3   9   1 218.705 6.47640   2
  -1   9   1 47.7540 4.45225   1
   2   9   1 34.2913 3.55673   1
   3   9   1 154.702 4.85747   2
   3   9   1 158.945 5.06468   2
   3   9   1 166.949 7.28093   1
  -4  -9  -1 41.0370 3.01863   2
   4   9   1 38.5303 3.89177   1
   4   9   1 29.7265 3.18257   2
   5   9   1 -4.9162 2.11323   2
   5   9   1 3.48870 2.73944   1
   5   9   1 1.14466 3.43582   2
   6   9   1 251.998 10.0060   2
   6   9   1 255.917 10.8058   1
   7   9   1 39.8432 5.00410   2
   7   9   1 56.2941 7.11863   1
  -6  10   1 62.6967 7.08058   2
  -5  10   1 56.6956 4.99543   2
  -4  10   1 402.651 10.9631   2
  -1  10   1 -3.1782 2.43525   1
   0  10   1 170.856 7.91385   1
   1  10   1 30.0372 3.87363   1
   2  10   1 39.5070 4.30974   1
   3  10   1 80.1643 5.67952   1
   4  10   1 6.26466 2.97446   1
   5  10   1 45.4535 5.99188   1
   5  10   1 41.0386 4.42952   2
  -2  11   1 29.5082 4.87020   1
  -1  11   1 8.05652 3.56593   1
   0  11   1 20.4820 3.68297   1
   1  11   1 493.572 16.8968   1
   2  11   1 33.0746 4.95455   1
   3  11   1 57.3030 6.26529   1
   4  11   1 87.1879 7.21853   1
  -1  12   1 14.5010 4.78782   1
   0  12   1 2.11473 4.29594   1
   1  12   1 186.816 10.2374   1
   2  12   1 4.55813 4.60039   1
   2  12  -2 18.6750 5.08770   1
   1  12  -2 52.3272 7.19910   1
   0  12  -2 51.8313 6.98632   1
  -1  12  -2 1.50643 4.25701   1
   5  11  -2 232.857 12.1040   1
   4  11  -2 2.85492 4.06118   1
   3  11  -2 20.8005 4.06982   1
   2  11  -2 48.1857 5.65369   1
   1  11  -2 41.6212 5.15615   1
   0  11  -2 13.2363 3.39192   1
  -1  11  -2 131.093 7.42547   1
  -2  11  -2 51.5387 6.12711   1
   6  10  -2 9.33242 5.06023   1
   6  10  -2 -5.5350 3.55782   2
   5  10  -2 173.293 6.83801   2
   5  10  -2 190.892 9.41651   1
   4  10  -2 22.7449 3.74502   1
   3  10  -2 6.91084 2.71161   1
   2  10  -2 44.7251 4.45097   1
  -2  10  -2 109.272 6.41603   1
   6   9  -2 11.3512 3.97900   1
   6   9  -2 -7.0043 3.12081   2
   5   9  -2 121.099 6.85729   1
   5   9  -2 105.363 5.71609   2
   4   9  -2 258.311 7.93848   2
   4   9  -2 282.439 10.3540   1
   4   9  -2 252.590 7.82922   2
   2   9  -2 26.0437 3.22854   1
   1   9  -2 182.642 7.33673   1
   0   9  -2 397.704 12.8563   1
  -1   9  -2 661.972 19.6095   1
  -4   9  -2 20.0530 1.99300   2
  -5   9  -2 475.536 13.1999   2
  -6   9  -2 -1.8829 2.62843   2
  -7   9  -2 -7.5140 3.76914   2
   7   8  -2 89.2820 7.52721   2
   7   8  -2 87.1923 7.33255   1
   6   8  -2 5.19751 2.80018   2
   6   8  -2 9.91237 2.96361   1
   5   8  -2 19.7417 2.84698   2
   5   8  -2 25.0446 3.78585   1
   5   8  -2 18.3067 3.94289   2
   4   8  -2 462.620 12.6155   2
   4   8  -2 423.314 12.6927   2
  -4  -8   2 444.629 11.8395   2
   3   8  -2 0.48953 1.47872   1
   3   8  -2 -0.2798 0.93088   2
   3   8  -2 -0.8003 0.89951   2
   2   8  -2 17.2292 2.39286   1
   1   8  -2 605.673 17.6181   1
   0   8  -2 519.805 15.4819   1
  -1   8  -2 174.419 6.86990   1
  -3   8  -2 812.341 19.2152   2
  -4   8  -2 17.2562 2.09351   2
   4  -8   2 12.8401 1.78582   2
  -5   8  -2 307.128 9.64033   2
   5  -8   2 305.077 9.76865   2
  -6   8  -2 2.41527 2.34230   2
   6  -8   2 -3.1397 4.02390   2
  -7   8  -2 92.5490 7.04750   2
   8   7  -2 76.3805 7.80690   1
   7   7  -2 46.5050 6.20420   2
   7   7  -2 68.3690 6.06223   1
   6   7  -2 205.385 8.76902   1
   6   7  -2 190.960 10.3692   2
   6   7  -2 185.822 8.47397   2
  -6  -7   2 204.206 8.11350   2
  -6  -7   2 177.943 11.8286   1
   5   7  -2 10.8645 2.34969   1
   5   7  -2 8.19622 3.30146   2
   5   7  -2 5.90997 1.98305   2
  -5  -7   2 8.51333 2.03254   2
  -5  -7   2 11.3284 4.70718   1
   4   7  -2 387.226 11.3705   2
   4   7  -2 370.671 11.5192   2
   4   7  -2 389.441 12.4811   1
  -4  -7   2 385.552 13.5901   1
   3   7  -2 64.3478 3.55723   2
   3   7  -2 64.0994 3.73761   1
   3   7  -2 64.8335 3.04048   2
  -3  -7   2 66.5714 2.94393   2
   2   7  -2 802.485 19.1593   2
   2   7  -2 815.592 19.2200   2
   2   7  -2 827.036 22.6091   1
   1   7  -2 751.570 20.8718   1
   0   7  -2 793.397 21.8948   1
  -1   7  -2 0.97789 1.10541   1
  -2   7  -2 6.19519 0.47306   2
  -3   7  -2 1191.39 28.7522   2
   3  -7   2 1215.98 28.1067   2
   3  -7   2 1243.11 28.1787   2
   4  -7   2 9.44931 1.91632   2
   5  -7   2 21.5944 3.33288   2
  -6   7  -2 1.59712 2.00180   2
  -6   7  -2 3.60183 3.89634   1
   6  -7   2 1.35236 2.28943   2
   6  -7   2 0.82110 3.78875   2
  -7   7  -2 99.7818 6.53017   2
  -8   7  -2 106.905 8.18618   2
   8   6  -2 4.15384 3.97602   2
   8   6  -2 -0.3627 3.45927   1
   7   6  -2 81.2761 5.88971   1
   7   6  -2 73.0600 9.60666   2
   7   6  -2 65.4870 6.05492   2
  -7  -6   2 73.5217 5.79357   2
   6   6  -2 676.724 19.6243   2
   6   6  -2 634.811 19.7432   2
   6   6  -2 666.102 20.3253   1
  -6  -6   2 666.266 18.7358   2
  -6  -6   2 661.565 22.4719   1
   5   6  -2 44.0696 3.61045   1
   5   6  -2 39.1005 5.14930   2
  -5  -6   2 38.6598 5.85861   1
  -5  -6   2 39.7668 3.31302   2
   4   6  -2 19.9792 2.79858   2
   4   6  -2 16.0824 2.25924   1
   4   6  -2 14.7754 1.96053   2
  -4  -6   2 16.9845 2.11563   2
  -4  -6   2 25.2759 3.93811   1
   3   6  -2 214.948 6.99662   2
   3   6  -2 216.163 7.59474   1
   3   6  -2 221.969 6.85549   2
   2   6  -2 1051.08 25.3034   2
   2   6  -2 1076.21 28.5865   1
   2   6  -2 1094.84 25.3607   2
  -2  -6   2 1061.29 24.8044   2
   1   6  -2 460.944 13.2863   1
   0   6  -2 529.394 14.9541   1
  -2   6  -2 99.5553 2.98607   2
  -3   6  -2 729.015 18.5258   2
   3  -6   2 779.116 18.4219   2
   3  -6   2 756.878 18.2714   2
  -4   6  -2 17.4039 2.05385   2
   4  -6   2 18.6857 2.40369   2
   4  -6   2 16.2147 2.13682   2
  -5   6  -2 162.958 6.48755   2
   5  -6   2 181.958 7.21852   2
   5  -6   2 168.474 6.51723   2
  -6   6  -2 4.42702 3.10308   1
  -6   6  -2 -2.4715 1.73261   2
   6  -6   2 2.02323 2.17954   2
   6  -6   2 0.76993 3.17433   2
  -7   6  -2 0.51525 4.50460   1
  -7   6  -2 -1.4557 2.27300   2
   7  -6   2 0.77921 2.69969   2
  -8   6  -2 86.7413 6.73688   2
   8  -6   2 91.9242 8.30285   2
   8   5  -2 48.5146 8.19788   2
   8   5  -2 56.3995 6.64841   2
   8   5  -2 59.4706 5.76726   1
  -8  -5   2 48.2577 6.35631   2
   7   5  -2 146.984 10.2686   2
   7   5  -2 150.581 7.75079   2
   7   5  -2 140.637 7.09490   1
  -7  -5   2 136.129 7.41442   2
  -7  -5   2 137.442 11.7948   1
   6   5  -2 874.729 23.6980   2
   6   5  -2 848.755 23.6086   2
   6   5  -2 795.633 24.5594   1
  -6  -5   2 829.727 26.0631   1
  -6  -5   2 855.535 22.8825   2
   5   5  -2 229.205 8.90595   2
   5   5  -2 231.677 8.49362   2
   5   5  -2 221.167 8.37747   1
  -5  -5   2 230.935 9.93812   1
  -5  -5   2 235.577 8.12939   2
   4   5  -2 209.763 7.32542   2
   4   5  -2 215.739 7.60926   2
   4   5  -2 216.104 7.60880   1
  -4  -5   2 204.007 8.36108   1
  -4  -5   2 199.707 6.82095   2
   3   5  -2 407.606 11.3844   2
   3   5  -2 413.140 12.2747   1
   3   5  -2 413.925 11.3777   2
  -3  -5   2 414.071 12.7337   1
   2   5  -2 2640.86 65.6793   1
   2   5  -2 2535.72 59.5312   2
   2   5  -2 2546.34 59.5326   2
  -2  -5   2 2608.57 65.8679   1
   1   5  -2 37.8596 2.09665   1
   1   5  -2 37.4233 1.35229   2
   0   5  -2 68.1847 2.93616   1
  -2   5  -2 159.291 4.59878   2
   2  -5   2 163.669 4.40750   2
   2  -5   2 169.909 4.50307   2
  -3   5  -2 321.792 8.90819   2
   3  -5   2 327.010 8.82983   2
  -4   5  -2 349.800 10.1598   2
   4  -5   2 353.192 10.1732   2
  -5   5  -2 30.9895 2.74321   2
  -5   5  -2 35.2428 3.49084   1
   5  -5   2 22.4372 2.92452   2
   5  -5   2 28.7996 2.88150   2
  -6   5  -2 50.1504 5.11118   1
  -6   5  -2 50.5301 3.88689   2
   6  -5   2 53.9747 4.07048   2
   6  -5   2 46.5379 5.34450   2
  -7   5  -2 141.640 7.03003   2
  -7   5  -2 132.182 8.45505   1
   7  -5   2 144.109 7.39998   2
   7  -5   2 130.298 8.74723   2
  -8   5  -2 393.708 14.0413   2
   8  -5   2 412.660 14.7215   2
   9  -5   2 85.6308 8.95836   2
  -9  -4   2 3.53300 4.45464   2
   8   4  -2 408.684 17.0959   2
   8   4  -2 397.813 14.5654   2
   7   4  -2 362.889 12.9234   1
   7   4  -2 376.841 13.1598   2
   7   4  -2 378.242 14.2842   2
  -7  -4   2 356.297 12.5835   2
  -7  -4   2 347.784 14.7198   1
   6   4  -2 255.998 9.61724   1
   6   4  -2 274.920 10.0244   2
   6   4  -2 252.182 10.1942   2
  -6  -4   2 268.563 9.50781   2
  -6  -4   2 258.177 11.1038   1
   5   4  -2 92.9550 5.59418   2
   5   4  -2 89.9750 4.68645   2
   5   4  -2 92.1531 4.62094   1
  -5  -4   2 93.3612 6.02133   1
  -5  -4   2 89.2325 4.57536   2
   4   4  -2 1723.76 45.7983   1
   4   4  -2 1776.86 42.6091   2
   4   4  -2 1760.11 42.2972   2
  -4  -4   2 1763.73 46.3709   1
  -4  -4   2 1740.97 42.0140   2
   3   4  -2 120.328 4.61151   2
   3   4  -2 123.143 4.76606   1
   3   4  -2 125.783 4.81273   2
  -3  -4   2 122.685 5.21781   1
  -3  -4   2 128.311 4.43283   2
   2   4  -2 2275.12 57.0984   1
   2   4  -2 2270.02 52.0662   2
   2   4  -2 2231.02 52.0581   2
  -2  -4   2 2212.82 57.2079   1
   1   4  -2 100.529 3.12355   2
   1   4  -2 107.732 3.72508   1
   1   4  -2 103.488 3.03044   2
  -1  -4   2 106.960 2.91235   2
   0   4  -2 324.835 9.17370   1
  -1   4  -2 1229.20 28.1188   2
  -2   4  -2 70.1803 2.50676   2
   2  -4   2 66.2932 2.42533   2
  -3   4  -2 25.1649 1.72420   2
   3  -4   2 25.2460 2.04943   2
  -4   4  -2 193.656 6.47471   2
   4  -4   2 198.714 6.68536   2
   4  -4   2 186.999 6.46655   2
  -5   4  -2 28.4233 3.03773   1
  -5   4  -2 23.7202 2.39857   2
   5  -4   2 20.8410 2.86595   2
   5  -4   2 22.6474 2.54088   2
  -6   4  -2 382.783 12.0127   2
  -6   4  -2 363.761 12.5722   1
   6  -4   2 379.803 12.4819   2
   6  -4   2 390.002 12.2636   2
  -7   4  -2 284.971 10.3370   2
  -7   4  -2 273.217 11.0077   1
   7  -4   2 281.891 11.4536   2
   7  -4   2 289.268 10.6083   2
  -8   4  -2 571.739 17.9427   2
   8  -4   2 596.844 18.7070   2
  -9   4  -2 43.2311 6.33457   2
   9  -4   2 36.7716 5.33735   2
 -10  -3   2 23.2277 6.45711   2
   9   3  -2 157.069 9.37066   2
  -9  -3   2 160.664 9.31534   2
   8   3  -2 583.130 20.5522   2
   8   3  -2 620.935 19.5717   2
  -8  -3   2 582.692 18.6171   2
   7   3  -2 420.384 14.8988   2
   7   3  -2 427.624 14.4765   2
  -7  -3   2 423.594 13.9482   2
  -7  -3   2 423.758 15.8229   1
   6   3  -2 4.01267 1.64866   2
   6   3  -2 4.19655 1.62780   1
  -6  -3   2 7.43903 3.25263   1
  -6  -3   2 3.73639 1.70312   2
   5   3  -2 58.3158 3.57840   1
   5   3  -2 54.6476 3.66510   2
   5   3  -2 53.3678 4.52550   2
  -5  -3   2 53.7757 4.49434   1
  -5  -3   2 55.3461 3.54242   2
   4   3  -2 2468.64 56.5761   2
   4   3  -2 2358.86 61.3438   1
   4   3  -2 2379.59 56.7766   2
  -4  -3   2 2389.70 61.7437   1
  -4  -3   2 2329.10 56.2376   2
   3   3  -2 111.193 4.38267   2
   3   3  -2 108.435 4.24821   2
   3   3  -2 104.072 4.20016   1
  -3  -3   2 115.179 4.72072   1
  -3  -3   2 107.105 4.00149   2
   2   3  -2 2.25830 0.83104   2
   2   3  -2 2.21344 0.56688   2
   2   3  -2 1.58854 0.55780   1
  -2  -3   2 3.84769 1.05144   1
  -2  -3   2 2.27468 0.85176   2
   1   3  -2 316.334 8.15707   2
   1   3  -2 323.119 9.03100   1
   1   3  -2 328.884 8.19001   2
  -1  -3   2 336.152 9.15317   1
  -1  -3   2 326.294 8.19928   2
   0   3  -2 805.253 20.3953   1
   0   3  -2 826.072 18.2093   2
   0   3  -2 779.837 18.1772   2
   0  -3   2 761.050 18.0983   2
  -1   3  -2 366.349 8.78926   2
   1  -3   2 369.914 8.67264   2
   1  -3   2 354.614 8.73545   2
  -2   3  -2 1113.41 26.0820   2
   2  -3   2 1099.56 25.9262   2
  -3   3  -2 95.5794 3.51678   2
   3  -3   2 84.1130 3.47042   2
   3  -3   2 85.2725 3.45031   2
  -4   3  -2 124.243 4.98936   1
  -4   3  -2 131.867 4.89164   2
   4  -3   2 132.118 5.15000   2
   4  -3   2 126.747 4.92719   2
  -5   3  -2 183.387 7.09011   1
  -5   3  -2 183.474 6.70687   2
   5  -3   2 190.829 6.97977   2
   5  -3   2 182.769 7.07316   2
  -6   3  -2 1740.20 42.5101   2
  -6   3  -2 1707.38 45.5928   1
   6  -3   2 1673.06 42.4224   2
   6  -3   2 1758.83 42.8366   2
  -7   3  -2 117.526 6.00715   2
  -7   3  -2 105.771 6.68417   1
   7  -3   2 113.075 7.43660   2
   7  -3   2 112.503 6.23698   2
  -8   3  -2 120.757 8.22245   1
  -8   3  -2 142.800 7.07677   2
   8  -3   2 136.260 7.63390   2
  -9   3  -2 218.368 9.69038   2
   9  -3   2 206.626 10.1930   2
  10  -3   2 102.409 10.3478   2
 -10  -2   2 55.2278 6.96221   2
   9   2  -2 421.040 15.9347   2
  -9  -2   2 421.952 15.5134   2
   8   2  -2 342.905 15.2675   2
   8   2  -2 382.492 13.8075   2
  -8  -2   2 369.676 13.4682   2
   7   2  -2 263.930 10.4028   2
   7   2  -2 268.674 11.3802   2
  -7  -2   2 264.878 11.1778   1
  -7  -2   2 259.343 10.1003   2
   6   2  -2 383.876 12.9170   2
   6   2  -2 393.961 12.8891   2
  -6  -2   2 383.749 12.4119   2
  -6  -2   2 408.460 13.7318   1
   5   2  -2 4.48589 1.45197   1
   5   2  -2 -1.8588 1.77800   2
   5   2  -2 0.97498 1.06699   2
  -5  -2   2 -0.9682 1.03918   2
  -5  -2   2 -0.6145 1.84590   1
   4   2  -2 2051.85 47.6902   2
   4   2  -2 1959.17 47.8836   2
   4   2  -2 1958.52 51.5885   1
  -4  -2   2 2012.81 47.7359   2
  -4  -2   2 2000.30 51.8845   1
  -4  -2   2 1982.04 47.4936   2
   3   2  -2 21.1523 1.66500   1
   3   2  -2 16.0455 1.98235   2
   3   2  -2 15.5227 1.58206   2
  -3  -2   2 16.2488 1.53314   2
  -3  -2   2 16.8446 2.07590   2
  -3  -2   2 16.9078 1.91861   1
   2   2  -2 254.875 7.75297   1
   2   2  -2 255.940 7.36639   2
   2   2  -2 270.011 7.36066   2
  -2  -2   2 270.039 7.28033   2
  -2  -2   2 263.040 7.90466   1
  -2  -2   2 279.608 7.50117   2
   1   2  -2 198.637 5.42870   2
   1   2  -2 216.273 5.53141   2
   1   2  -2 209.840 5.85776   1
  -1  -2   2 202.505 5.50011   2
  -1  -2   2 202.550 5.41082   2
  -1  -2   2 205.127 5.88328   1
   0   2  -2 97.1037 2.62760   2
   0   2  -2 91.7268 2.59696   2
   0  -2   2 96.2334 2.61270   2
  -1   2  -2 1309.74 30.9427   2
   1  -2   2 1273.57 29.6437   2
  -2   2  -2 1740.60 40.7263   2
   2  -2   2 1777.83 41.2997   2
  -3   2  -2 385.960 10.4954   2
  -3   2  -2 381.487 11.0311   1
   3  -2   2 399.004 10.6482   2
   3  -2   2 409.496 10.5826   2
  -4   2  -2 287.234 8.40955   2
  -4   2  -2 266.591 8.61067   1
   4  -2   2 267.401 8.36021   2
   4  -2   2 278.435 8.49728   2
  -5   2  -2 216.057 7.36584   2
  -5   2  -2 209.792 7.49852   1
   5  -2   2 205.511 7.43457   2
  -6   2  -2 2475.68 64.2728   1
  -6   2  -2 2466.02 59.5183   2
   6  -2   2 2448.40 59.8469   2
   6  -2   2 2527.55 59.6424   2
  -7   2  -2 10.7058 2.99510   1
   7  -2   2 6.83976 2.22306   2
   7  -2   2 10.4892 3.21199   2
  -8   2  -2 2.63363 2.14335   2
  -8   2  -2 7.28887 3.74424   1
   8  -2   2 0.30963 3.94594   2
   8  -2   2 1.47221 2.32850   2
  -9   2  -2 426.475 14.8423   2
   9  -2   2 419.758 15.5364   2
  10  -2   2 61.3958 8.73959   2
 -10  -1   2 135.542 11.2459   2
   9   1  -2 658.747 21.7914   2
  -9  -1   2 660.516 20.9316   2
   8   1  -2 25.0801 5.74717   2
   8   1  -2 24.3524 3.75682   2
  -8  -1   2 26.7433 3.82681   2
   7   1  -2 15.6950 2.67966   2
   7   1  -2 16.8496 4.14918   2
  -7  -1   2 11.1235 2.63843   2
  -7  -1   2 15.7315 3.77391   1
   6   1  -2 971.382 27.0037   2
   6   1  -2 1021.56 26.9799   2
  -6  -1   2 1048.63 28.6737   1
  -6  -1   2 1001.79 26.6929   2
   5   1  -2 78.7644 4.92221   2
   5   1  -2 78.2836 4.25871   2
  -5  -1   2 81.7697 4.91150   2
  -5  -1   2 83.2093 4.73511   1
  -5  -1   2 75.2319 4.02196   2
   4   1  -2 227.773 7.95419   2
   4   1  -2 241.150 8.03926   2
  -4  -1   2 258.521 8.29426   2
  -4  -1   2 258.178 7.98643   2
  -4  -1   2 253.468 8.43448   1
   3   1  -2 134.212 4.94743   1
   3   1  -2 142.145 5.00638   2
   3   1  -2 140.213 5.00592   2
  -3  -1   2 137.718 4.81866   2
  -3  -1   2 140.762 5.15498   1
  -3  -1   2 141.088 5.14389   2
   2   1  -2 262.293 7.57634   2
   2   1  -2 267.276 7.95737   1
   2   1  -2 281.863 7.56152   2
  -2  -1   2 279.329 7.66799   2
  -2  -1   2 271.303 8.07111   1
  -2  -1   2 283.019 7.53771   2
   1   1  -2 598.099 16.6465   1
   1   1  -2 681.718 15.4904   2
   1   1  -2 683.862 15.5690   2
  -1  -1   2 666.800 15.5259   2
  -1  -1   2 605.714 16.7009   1
   0   1  -2 998.032 22.8347   2
   0   1  -2 928.798 25.2815   1
   0   1  -2 982.741 22.8649   2
   0  -1   2 991.189 25.2234   1
   0  -1   2 1040.30 24.1825   2
  -1   1  -2 2108.92 49.1432   2
  -1   1  -2 1940.10 52.8827   1
   1  -1   2 2210.08 49.8647   2
  -2   1  -2 1644.33 37.7560   2
  -2   1  -2 1522.26 40.6019   1
   2  -1   2 1605.03 36.9085   2
  -3   1  -2 53.3128 2.54244   1
  -3   1  -2 54.3061 2.51790   2
   3  -1   2 55.1343 2.68837   2
  -4   1  -2 2586.65 67.0223   1
  -4   1  -2 2745.87 61.8336   2
   4  -1   2 2581.34 61.6787   2
   4  -1   2 2636.15 61.9212   2
  -5   1  -2 11.5512 1.81610   2
  -5   1  -2 13.9201 2.17645   1
   5  -1   2 12.5796 2.00508   2
   5  -1   2 12.1974 2.22524   2
  -6   1  -2 846.599 24.4576   1
  -6   1  -2 872.016 23.1278   2
   6  -1   2 895.001 23.4428   2
   6  -1   2 876.136 23.4724   2
  -7   1  -2 162.100 6.93404   2
  -7   1  -2 159.181 7.60082   1
   7  -1   2 157.242 7.38331   2
   7  -1   2 155.288 7.96858   2
  -8   1  -2 243.979 10.8413   1
  -8   1  -2 264.197 10.0121   2
   8  -1   2 252.330 11.4510   2
  -9   1  -2 476.282 15.9763   2
   9  -1   2 479.820 16.6922   2
 -10   1  -2 54.9222 6.88322   2
   9   0  -2 244.924 11.7959   2
  -9   0   2 275.765 11.6326   2
   8   0  -2 25.2917 3.83844   2
  -8   0   2 22.9162 3.57044   2
   7   0  -2 66.6739 6.66616   2
  -7   0   2 70.8306 5.75041   1
   6   0  -2 687.612 19.6940   2
   6   0  -2 682.065 19.7941   2
  -6   0   2 729.683 20.7556   1
  -6   0   2 671.906 19.3668   2
   5   0  -2 16.8679 2.20579   2
  -5   0   2 11.3849 1.93482   2
  -5   0   2 20.4735 2.77705   1
   4   0  -2 0.08145 1.25184   2
   4   0  -2 2.10538 0.89121   2
  -4   0   2 1.82261 0.89297   2
  -4   0   2 3.75351 1.58040   2
  -4   0   2 2.53979 1.32189   1
   3   0  -2 835.921 20.5349   2
   3   0  -2 833.360 20.7632   2
  -3   0   2 825.813 20.6732   2
  -3   0   2 803.192 20.4819   2
  -3   0   2 814.646 22.0859   1
   2   0  -2 187.391 5.43924   2
   2   0  -2 184.228 5.52519   2
  -2   0   2 181.058 5.64010   1
  -2   0   2 188.602 5.56677   2
  -2   0   2 166.100 5.29259   2
   1   0  -2 826.556 18.9503   2
   1   0  -2 775.315 18.7963   2
  -1   0   2 755.094 18.7866   2
  -1   0   2 817.272 18.9162   2
   0   0  -2 1154.95 27.4556   2
   0   0  -2 1188.53 28.4338   2
   0   0   2 1231.70 28.4189   2
  -1   0  -2 1019.52 24.4383   2
  -1   0  -2 990.494 26.4865   1
   1   0   2 1026.61 23.4954   2
  -2   0  -2 9.33530 0.93888   1
  -2   0  -2 8.97917 0.88586   2
   2   0   2 10.4498 1.08553   2
   2   0   2 10.4501 0.86026   1
  -3   0  -2 19.3556 1.46952   2
  -3   0  -2 20.6183 1.64356   1
   3   0   2 19.3538 1.44637   1
   3   0   2 18.4128 1.70972   2
  -4   0  -2 3947.21 91.1303   2
  -4   0  -2 3793.10 99.3107   1
   4   0   2 4076.38 91.2485   2
   4   0   2 3973.70 91.3691   2
   4   0   2 3920.33 101.762   1
  -5   0  -2 26.9110 2.26847   2
  -5   0  -2 26.0446 2.81313   1
   5   0   2 24.2095 3.01369   2
   5   0   2 30.5208 2.35309   1
   5   0   2 27.6967 2.43798   2
  -6   0  -2 71.5541 4.09012   2
  -6   0  -2 68.1718 4.49101   1
   6   0   2 68.0173 4.16265   2
   6   0   2 68.4444 3.97031   1
   6   0   2 72.4495 5.08759   2
  -7   0  -2 42.8738 4.93685   1
  -7   0  -2 42.0340 3.49064   2
   7   0   2 44.1079 5.40980   2
   7   0   2 36.0599 3.62230   2
  -8   0  -2 256.469 10.0092   2
  -8   0  -2 270.393 11.4702   1
   8   0   2 272.409 11.7748   2
   8   0   2 264.921 10.6204   2
  -9   0  -2 144.220 7.86976   2
   9   0   2 155.741 8.68313   2
 -10   0  -2 13.4374 3.89158   2
  10   0   2 5.88034 4.28320   2
   9  -1  -2 28.9283 4.85086   2
  -9   1   2 45.2758 6.49622   2
   8  -1  -2 46.5287 5.32109   2
  -8   1   2 54.2799 5.38763   2
   7  -1  -2 114.108 6.39001   2
   7  -1  -2 97.5665 7.33936   2
  -7   1   2 104.184 6.90842   1
  -7   1   2 106.466 6.09240   2
   6  -1  -2 375.590 12.5297   2
   6  -1  -2 362.040 12.2785   2
  -6   1   2 374.027 12.6552   1
  -6   1   2 382.788 12.2193   2
   5  -1  -2 356.937 11.4371   2
   5  -1  -2 359.842 11.3091   2
  -5   1   2 359.663 11.2071   2
  -5   1   2 361.020 11.6099   2
  -5   1   2 360.329 11.6717   1
   4  -1  -2 41.3800 2.81541   2
   4  -1  -2 44.9328 3.22052   2
  -4   1   2 42.4835 2.88250   1
  -4   1   2 38.6191 3.29325   2
  -4   1   2 40.6949 2.66202   2
   3  -1  -2 46.0104 2.62731   2
   3  -1  -2 42.1605 2.45706   2
  -3   1   2 40.9182 2.42593   1
  -3   1   2 41.8438 2.32872   2
  -3   1   2 45.1774 2.79983   2
   2  -1  -2 200.398 5.96580   2
   2  -1  -2 195.877 5.83895   2
  -2   1   2 187.183 5.90250   2
  -2   1   2 214.976 5.95949   2
   1  -1  -2 5450.20 127.382   2
   1  -1  -2 5388.23 127.052   2
  -1   1   2 5357.71 127.025   2
  -1   1   2 5397.06 127.356   2
   0  -1  -2 1436.71 33.8371   2
   0   1   2 1477.23 35.1895   2
   0   1   2 1502.88 34.8680   2
  -1  -1  -2 1392.70 36.8388   1
  -1  -1  -2 1433.86 34.7080   2
   1   1   2 1430.45 33.8248   2
   1   1   2 1439.23 37.2660   1
  -2  -1  -2 2082.23 48.2103   2
  -2  -1  -2 2005.86 52.3541   1
   2   1   2 2028.98 53.2144   1
   2   1   2 1967.95 46.6446   2
  -3  -1  -2 174.808 5.46790   2
  -3  -1  -2 177.477 5.82918   1
   3   1   2 170.258 5.63193   1
   3   1   2 177.227 5.59127   2
  -4  -1  -2 2739.19 64.6304   2
  -4  -1  -2 2748.63 70.5057   1
   4   1   2 2783.25 64.7495   2
   4   1   2 2801.35 70.4611   1
  -5  -1  -2 50.7081 3.01433   2
  -5  -1  -2 46.3347 3.43174   1
   5   1   2 39.7188 2.83203   2
   5   1   2 51.4180 2.99769   1
   5   1   2 42.9562 3.56840   2
  -6  -1  -2 29.7779 3.53100   1
  -6  -1  -2 26.3373 2.72723   2
   6   1   2 32.7161 2.90857   1
   6   1   2 35.0153 4.14031   2
   6   1   2 30.9036 3.00708   2
  -7  -1  -2 166.430 7.86113   1
  -7  -1  -2 155.260 6.91813   2
   7   1   2 155.466 8.09823   2
   7   1   2 157.821 6.90279   1
   7   1   2 149.635 7.05037   2
  -8  -1  -2 204.867 9.92859   1
  -8  -1  -2 199.376 8.58750   2
   8   1   2 205.308 10.5897   2
   8   1   2 194.488 8.95442   2
  -9  -1  -2 198.231 9.19677   2
   9   1   2 183.814 9.61936   2
 -10  -1  -2 149.515 9.08772   2
  10   1   2 141.628 9.82674   2
   9  -2  -2 32.1941 4.96278   2
  -9   2   2 27.0189 4.34041   2
   8  -2  -2 109.527 7.22691   2
  -8   2   2 114.641 7.00694   2
   7  -2  -2 14.1729 2.90409   2
   7  -2  -2 12.8927 4.03172   2
  -7   2   2 17.1411 3.70710   1
  -7   2   2 14.7970 2.73475   2
   6  -2  -2 348.069 11.9692   2
   6  -2  -2 365.201 12.0902   2
  -6   2   2 349.376 12.3640   2
  -6   2   2 339.964 12.1454   1
  -6   2   2 348.150 11.6120   2
   5  -2  -2 641.860 18.2260   2
   5  -2  -2 639.035 17.9421   2
  -5   2   2 647.360 18.0207   2
  -5   2   2 658.714 19.0449   1
  -5   2   2 674.440 18.4345   2
   4  -2  -2 2.17338 1.44212   2
   4  -2  -2 0.99331 0.95306   2
  -4   2   2 2.17166 1.34723   1
  -4   2   2 1.36824 1.62592   2
  -4   2   2 0.23731 0.86068   2
   3  -2  -2 637.793 17.1108   2
   3  -2  -2 673.016 17.0126   2
  -3   2   2 671.600 17.2291   2
  -3   2   2 674.551 17.1082   2
   2  -2  -2 437.991 11.2969   2
   2  -2  -2 416.145 11.0802   2
  -2   2   2 429.532 11.1809   2
  -2   2   2 430.723 11.2858   2
   1  -2  -2 4750.44 111.187   2
   1  -2  -2 4623.95 110.563   2
  -1   2   2 4610.07 110.663   2
  -1   2   2 4755.15 110.886   2
   0  -2  -2 55.9407 2.14159   2
   0  -2  -2 57.0180 2.06089   2
   0   2   2 59.3262 2.15330   2
   0   2   2 70.6570 2.12280   2
   1   2   2 107.319 3.19653   2
   1   2   2 99.6226 3.49679   1
  -2  -2  -2 4185.82 109.719   1
  -2  -2  -2 4256.51 99.9294   2
   2   2   2 4257.15 110.075   1
   2   2   2 4188.39 100.247   2
  -3  -2  -2 588.583 14.9533   2
  -3  -2  -2 594.122 16.3572   1
   3   2   2 585.671 16.1396   1
   3   2   2 586.988 15.0355   2
  -4  -2  -2 922.723 24.7226   1
  -4  -2  -2 919.366 22.6640   2
   4   2   2 894.672 22.7278   2
   4   2   2 877.999 24.2836   1
  -5  -2  -2 4.07098 1.20338   2
   5   2   2 6.19881 1.93626   2
   5   2   2 6.81475 1.42577   2
   5   2   2 5.98469 1.25941   1
  -6  -2  -2 613.702 17.3175   2
  -6  -2  -2 630.081 18.9436   1
   6   2   2 631.664 18.4822   1
   6   2   2 600.619 17.6161   2
  -7  -2  -2 253.912 10.6379   1
  -7  -2  -2 250.429 9.37192   2
   7   2   2 267.944 9.97039   2
   7   2   2 259.945 10.4810   2
  -8  -2  -2 38.8775 5.47587   1
   8   2   2 33.1870 4.16139   2
   8   2   2 43.2651 5.79071   2
   8   2   2 42.0704 3.82623   1
  -9  -2  -2 115.739 7.20004   2
   9   2   2 95.7741 6.93784   2
 -10  -2  -2 75.2334 7.76230   2
  10   2   2 59.2691 7.77829   2
   9  -3  -2 79.2989 9.11919   2
  -9   3   2 92.9391 8.31499   2
   8  -3  -2 44.9523 6.18902   2
  -8   3   2 48.1229 5.64294   2
   7  -3  -2 139.114 7.46731   2
   7  -3  -2 129.219 8.47814   2
  -7   3   2 121.721 7.77322   1
  -7   3   2 137.563 7.06612   2
   6  -3  -2 199.938 8.20788   2
   6  -3  -2 187.504 8.35585   2
  -6   3   2 189.159 8.95279   2
  -6   3   2 186.133 8.36124   1
   5  -3  -2 484.573 14.3504   2
   5  -3  -2 480.182 14.1926   2
  -5   3   2 469.671 14.7362   1
  -5   3   2 487.148 14.5623   2
  -5   3   2 469.029 14.0041   2
   4  -3  -2 119.377 5.02633   2
   4  -3  -2 116.308 5.50018   2
  -4   3   2 131.104 5.12512   2
  -4   3   2 116.996 5.53208   2
   3  -3  -2 1380.85 32.6770   2
   3  -3  -2 1367.31 32.8911   2
  -3   3   2 1384.77 32.9422   2
  -3   3   2 1291.28 32.6758   2
   2  -3  -2 297.707 8.20763   2
   2  -3  -2 280.522 8.01476   2
  -2   3   2 282.792 8.20321   2
  -2   3   2 293.622 8.13395   2
   1  -3  -2 1999.13 46.5493   2
  -1   3   2 2008.89 46.7009   2
  -1   3   2 2047.96 47.4611   2
   0  -3  -2 195.265 5.26271   2
   0  -3  -2 200.571 5.24889   2
   0   3   2 189.907 5.30854   2
   0   3   2 189.930 5.17032   2
  -1  -3  -2 235.649 6.11418   2
  -1  -3  -2 223.235 6.10535   2
   1   3   2 242.984 7.17720   1
   1   3   2 233.932 6.23942   2
  -2  -3  -2 2258.88 52.4136   2
  -2  -3  -2 2258.86 56.9927   1
   2   3   2 2175.83 51.6633   2
   2   3   2 2260.43 56.8973   1
  -3  -3  -2 351.098 10.5660   1
  -3  -3  -2 356.039 9.52227   2
   3   3   2 345.328 10.3146   1
   3   3   2 332.066 9.52084   2
  -4  -3  -2 123.497 5.37969   1
  -4  -3  -2 125.820 4.74651   2
   4   3   2 126.207 5.12318   2
   4   3   2 127.975 4.99879   1
  -5  -3  -2 11.4721 2.44735   1
  -5  -3  -2 11.0195 1.73747   2
   5   3   2 11.2143 1.76364   1
   5   3   2 12.1880 2.34814   2
   5   3   2 13.3579 1.96680   2
  -6  -3  -2 235.790 8.64869   2
  -6  -3  -2 250.273 9.96608   1
   6   3   2 258.933 9.22625   1
   6   3   2 249.910 9.10731   2
   6   3   2 271.399 9.69241   2
  -7  -3  -2 169.561 7.23403   2
  -7  -3  -2 160.462 8.86136   1
   7   3   2 169.096 8.55625   2
   7   3   2 159.048 7.56311   2
   7   3   2 165.290 7.30299   1
  -8  -3  -2 150.106 7.37338   2
   8   3   2 142.815 10.0152   2
   8   3   2 145.575 7.69562   2
   8   3   2 140.809 7.33443   1
  -9  -3  -2 171.032 8.54189   2
   9   3   2 153.287 8.44486   2
   9   3   2 149.909 7.93326   1
 -10  -3  -2 9.50548 4.46785   2
   9  -4  -2 -3.7049 5.18071   2
   8  -4  -2 195.017 10.4367   2
  -8   4   2 214.973 9.68463   2
   7  -4  -2 335.533 12.7244   2
  -7   4   2 338.411 12.2628   2
   6  -4  -2 158.397 7.34499   2
   6  -4  -2 146.021 7.87401   2
  -6   4   2 157.012 6.98657   2
  -6   4   2 148.890 7.83107   1
   5  -4  -2 25.2033 3.08996   2
   5  -4  -2 26.2579 3.38561   2
  -5   4   2 30.4449 3.84487   2
   4  -4  -2 88.1285 4.27049   2
   4  -4  -2 87.0486 4.65574   2
  -4   4   2 92.1763 4.30189   2
  -4   4   2 90.0505 5.11303   2
   3  -4  -2 2884.37 67.1808   2
   3  -4  -2 2956.08 67.4385   2
  -3   4   2 2910.62 67.3680   2
  -3   4   2 2788.20 67.3536   2
   2  -4  -2 52.4410 2.64767   2
   2  -4  -2 55.1604 2.58067   2
  -2   4   2 54.0772 2.87074   2
  -2   4   2 56.3590 2.57133   2
   1  -4  -2 1047.52 24.4788   2
   1  -4  -2 1031.30 24.3205   2
  -1   4   2 1005.33 24.3907   2
  -1   4   2 1026.43 24.4987   2
   0  -4  -2 865.040 19.9317   2
   0   4   2 845.368 20.0783   2
   0   4   2 819.705 19.8785   2
  -1  -4  -2 1100.64 25.3403   2
   1   4   2 1068.91 25.4861   2
   1   4   2 1080.48 28.5924   1
   2   4   2 1731.31 41.5445   2
   2   4   2 1839.15 46.0976   1
  -3  -4  -2 52.3921 2.57126   2
  -3  -4  -2 59.6158 3.38991   1
   3   4   2 52.5258 2.89338   2
   3   4   2 53.3258 2.90261   1
  -4  -4  -2 61.3480 3.12999   2
   4   4   2 60.4726 3.25137   1
   4   4   2 61.8778 3.66876   2
  -5  -4  -2 12.4515 2.66364   1
  -5  -4  -2 10.5411 1.72440   2
   5   4   2 12.7921 1.99125   1
   5   4   2 11.7785 1.87972   2
   5   4   2 12.5533 2.51216   2
  -6  -4  -2 31.9723 4.60848   1
  -6  -4  -2 35.4526 3.28138   2
   6   4   2 35.2342 4.86360   2
   6   4   2 36.3159 3.29137   2
   6   4   2 35.3767 3.10575   1
  -7  -4  -2 606.414 20.3777   1
  -7  -4  -2 597.675 17.6878   2
   7   4   2 616.755 18.9529   2
   7   4   2 610.470 18.3652   2
   7   4   2 617.441 18.9590   1
  -8  -4  -2 139.932 7.11613   2
   8   4   2 138.445 7.16342   1
   8   4   2 140.186 7.47363   2
   8   4   2 137.414 10.1319   2
  -9  -4  -2 158.044 8.38326   2
   9   4   2 124.530 7.98169   2
   9   4   2 139.733 14.1514   2
   9   4   2 137.581 8.08620   1
 -10  -4  -2 155.237 10.1012   2
   8  -5  -2 235.177 12.0058   2
  -8   5   2 247.341 11.2676   2
   7  -5  -2 301.344 12.0300   2
  -7   5   2 306.924 11.5342   2
   6  -5  -2 272.460 10.1582   2
   6  -5  -2 249.295 10.6829   2
  -6   5   2 266.820 9.92056   2
  -6   5   2 260.061 10.8133   1
   5  -5  -2 518.314 15.5686   2
   5  -5  -2 525.511 15.5490   2
  -5   5   2 527.054 16.0239   2
   4  -5  -2 17.3518 2.39369   2
   4  -5  -2 17.9267 2.58163   2
  -4   5   2 22.9866 3.13897   2
  -4   5   2 18.2386 2.29927   2
   3  -5  -2 2396.69 55.6522   2
  -3   5   2 2391.76 55.6935   2
  -3   5   2 2304.83 55.7731   2
   2  -5  -2 43.0676 2.60786   2
  -2   5   2 45.7606 2.35023   2
  -2   5   2 43.9374 2.81352   2
   1  -5  -2 215.838 6.16574   2
  -1   5   2 225.393 6.22903   2
  -1   5   2 222.922 6.41970   2
   0  -5  -2 424.068 10.6843   2
   0   5   2 443.696 10.9614   2
  -1  -5  -2 705.011 16.4950   2
   1   5   2 674.847 19.1220   1
   1   5   2 684.304 16.6902   2
   2   5   2 267.388 7.42885   2
   2   5   2 260.772 8.59290   1
  -3  -5  -2 209.168 7.78223   1
  -3  -5  -2 211.111 6.42818   2
   3   5   2 205.166 7.24805   1
   3   5   2 204.419 6.57004   2
  -4  -5  -2 58.9217 4.28971   1
  -4  -5  -2 57.1870 3.17032   2
   4   5   2 61.2790 3.47463   1
   4   5   2 57.8919 3.80670   2
  -5  -5  -2 57.2483 4.84429   1
  -5  -5  -2 56.1810 3.52301   2
   5   5   2 53.9386 4.48160   2
   5   5   2 58.3995 3.67490   1
   5   5   2 59.4203 3.79012   2
  -6  -5  -2 13.1955 3.76840   1
  -6  -5  -2 13.6860 2.33391   2
   6   5   2 10.4386 3.22863   2
  -7  -5  -2 693.676 23.2202   1
  -7  -5  -2 714.424 20.0273   2
   7   5   2 715.415 21.3112   2
   7   5   2 700.751 21.3754   1
   7   5   2 683.284 20.4146   2
  -8  -5  -2 2.81348 2.57711   2
   8   5   2 -1.4458 2.52938   2
   8   5   2 2.68173 2.62456   1
   8   5   2 0.11101 5.48508   2
  -9  -5  -2 12.3357 3.81102   2
   9   5   2 5.54105 3.49476   1
   9   5   2 -0.0941 8.33681   2
   9   5   2 -5.9908 3.51150   2
   7  -6  -2 41.5401 5.18992   2
  -7   6   2 51.7032 5.49012   2
   6  -6  -2 14.4112 2.97933   2
  -6   6   2 12.5742 2.83172   2
   5  -6  -2 740.709 20.7250   2
  -5   6   2 751.820 21.3035   2
  -5   6   2 735.397 20.4389   2
   4  -6  -2 47.2063 4.53555   2
   4  -6  -2 48.0656 3.47837   2
  -4   6   2 51.3981 4.86122   2
  -4   6   2 55.3119 3.46075   2
   3  -6  -2 572.935 15.1025   2
   3  -6  -2 556.923 15.1904   2
  -3   6   2 574.573 15.1725   2
  -3   6   2 570.498 15.5934   2
   2  -6  -2 43.3223 2.76610   2
   2  -6  -2 50.1466 3.00677   2
  -2   6   2 52.4186 3.23840   2
  -2   6   2 47.9817 2.49047   2
   1  -6  -2 537.698 13.4022   2
  -1   6   2 540.783 13.7131   2
  -1   6   2 544.548 13.4674   2
   0  -6  -2 491.663 11.9019   2
   0  -6  -2 483.033 11.8836   2
   0   6   2 492.850 12.2550   2
  -1  -6  -2 36.4930 1.86268   2
  -1  -6  -2 40.7044 1.85786   2
   1   6   2 31.7797 2.50606   1
   1   6   2 36.1439 2.04016   2
  -2  -6  -2 28.2750 1.90045   2
   2   6   2 30.1086 2.42930   1
   2   6   2 30.3205 2.17200   2
  -3  -6  -2 314.421 9.08837   2
   3   6   2 325.855 10.4498   1
   3   6   2 308.278 9.06987   2
  -4  -6  -2 4.85483 1.17425   2
  -4  -6  -2 3.86026 2.36210   1
   4   6   2 3.15111 1.78049   2
   4   6   2 1.40790 1.26611   1
  -5  -6  -2 456.870 15.5410   1
  -5  -6  -2 431.044 12.9019   2
   5   6   2 450.927 13.5031   2
   5   6   2 451.715 13.6353   2
   5   6   2 459.620 14.4288   1
  -6  -6  -2 22.4816 2.89474   2
  -6  -6  -2 34.1850 5.32091   1
   6   6   2 25.6317 3.50553   2
   6   6   2 28.1673 4.31631   2
   6   6   2 26.4554 3.29048   1
  -7  -6  -2 680.566 19.5362   2
   7   6   2 690.293 20.2967   2
   7   6   2 689.668 21.1974   1
   7   6   2 668.272 21.5674   2
   8   6   2 23.5544 3.69325   2
   8   6   2 30.9879 7.45726   2
   8   6   2 36.8721 4.72342   1
  -7   7   2 16.8518 4.12474   2
   6  -7  -2 19.2246 3.47322   2
  -6   7   2 18.4821 3.06846   2
   5  -7  -2 1201.71 29.5630   2
   5  -7  -2 1147.90 29.6818   2
  -5   7   2 1048.09 29.1056   2
   4  -7  -2 86.4765 5.86810   2
   4  -7  -2 90.4063 4.62972   2
  -4   7   2 89.0391 6.38561   2
   3  -7  -2 23.8491 3.52773   2
  -3   7   2 26.6266 2.28619   2
  -3   7   2 28.2792 3.99132   2
  -2   7   2 8.13308 1.22138   2
  -2   7   2 8.25533 1.89247   2
   1  -7  -2 598.240 14.5481   2
   1  -7  -2 598.286 14.4219   2
  -1   7   2 589.234 15.0030   2
   0  -7  -2 203.461 5.14194   2
   0  -7  -2 195.391 5.13055   2
   0   7   2 197.196 7.56680   1
  -1  -7  -2 205.855 5.33210   2
  -1  -7  -2 216.774 5.47146   2
   1   7   2 201.705 7.74467   1
  -2  -7  -2 461.231 11.3839   2
  -2  -7  -2 457.680 11.5380   2
   2   7   2 451.149 14.1465   1
   2   7   2 459.814 11.8643   2
   3   7   2 6.51763 1.61549   2
   3   7   2 6.95657 1.56214   1
   4   7   2 5.04135 1.43412   2
   4   7   2 6.71323 2.07059   2
   4   7   2 5.20447 1.65057   1
  -5  -7  -2 1180.89 35.4078   1
  -5  -7  -2 1245.28 30.9901   2
   5   7   2 1272.79 31.6356   2
   5   7   2 1274.70 34.5872   1
  -6  -7  -2 24.6092 3.62891   2
  -6  -7  -2 20.0847 5.39121   1
   6   7   2 19.3526 3.01897   2
   6   7   2 24.1122 3.37700   1
   6   7   2 21.9228 4.40666   2
  -7  -7  -2 84.6481 5.76964   2
   7   7   2 81.0204 9.43773   2
   7   7   2 66.8455 5.50574   2
   7   7   2 71.1047 5.22825   1
   8   7   2 110.055 7.68243   2
   8   7   2 118.694 7.37011   1
   5  -8  -2 402.036 13.9860   2
   5  -8  -2 380.338 12.3825   2
  -5   8   2 387.908 12.4870   2
   4  -8  -2 1.48702 3.05342   2
  -4   8   2 2.91689 1.55554   2
   3  -8  -2 23.7318 2.83458   2
  -3   8   2 22.4307 2.32360   2
  -3   8   2 17.3707 2.99570   2
   2  -8  -2 5.50412 1.40429   2
  -2   8   2 6.59254 2.10791   2
  -2   8   2 4.70866 0.98674   2
   0   8   2 363.428 9.35261   2
   0   8   2 373.876 12.4288   1
   1   8   2 155.997 4.51769   2
   1   8   2 157.111 6.70362   1
   2   8   2 36.7790 3.34285   1
  -3  -8  -2 243.462 7.05787   2
   3   8   2 236.746 7.57852   2
   3   8   2 253.956 7.68297   2
   4   8   2 40.9123 3.84185   1
   4   8   2 46.2561 4.29715   2
   4   8   2 50.8274 3.55195   2
   5   8   2 1023.53 26.8321   2
   5   8   2 1037.17 26.7405   2
   5   8   2 1017.92 29.4196   1
  -6  -8  -2 51.9195 4.47731   2
   6   8   2 37.0676 4.70084   2
   6   8   2 35.3541 5.32143   2
   6   8   2 37.3013 4.31206   1
   7   8   2 14.3818 3.95445   2
   7   8   2 22.2225 3.88577   1
  -5   9   2 59.1692 4.99126   2
   4  -9  -2 22.9272 3.78608   2
  -4   9   2 32.5845 3.29918   2
   3  -9  -2 99.6407 4.41677   2
   3  -9  -2 96.1983 4.55212   2
   0   9   2 879.270 25.7476   1
   1   9   2 49.4755 4.26936   1
   2   9   2 22.4623 1.72809   2
   2   9   2 24.7687 3.50768   1
   2   9   2 23.6231 1.59017   2
   3   9   2 621.943 16.3217   2
   3   9   2 658.693 19.8250   1
  -4  -9  -2 116.976 4.85483   2
  -4  -9  -2 123.814 5.03982   2
   4   9   2 117.901 5.95862   2
   4   9   2 129.160 6.73886   1
  -5  -9  -2 350.165 10.9068   2
   5   9   2 324.084 11.8323   2
   5   9   2 359.465 12.8509   1
   5   9   2 355.908 11.3653   2
   6   9   2 50.7898 5.57122   2
   6   9   2 61.3498 6.06132   1
   7   9   2 214.102 10.3002   1
   7   9   2 202.344 10.0678   2
  -5  10   2 38.8819 5.12337   2
  -4  10   2 62.8757 4.11040   2
  -1  10   2 27.6915 4.08358   1
   0  10   2 364.176 13.2250   1
   1  10   2 27.4342 4.31046   1
   2  10   2 48.5001 4.93335   1
   3  10   2 662.227 20.1905   1
   3  10   2 604.397 15.0566   2
   3  10   2 638.573 15.0568   2
   4  10   2 77.0695 5.85981   1
   5  10   2 13.2428 3.63796   1
   5  10   2 7.93776 2.63292   2
   6  10   2 11.8283 4.58826   1
   6  10   2 11.4834 3.56277   2
  -2  11   2 526.590 18.4624   1
  -1  11   2 4.45496 3.73935   1
   0  11   2 68.6365 5.97665   1
   1  11   2 135.268 7.99858   1
   2  11   2 218.940 10.1982   1
   3  11   2 329.367 12.9745   1
   4  11   2 108.438 8.01953   1
   0  12   2 -1.8124 4.48476   1
   1  12   2 197.105 10.7781   1
   2  12   2 166.970 10.5654   1
   4  11  -3 13.6989 4.80486   1
   3  11  -3 1.79115 3.65919   1
   2  11  -3 350.357 12.8808   1
   1  11  -3 237.439 9.85923   1
   0  11  -3 203.289 8.96457   1
  -1  11  -3 40.2864 5.32498   1
  -3  11  -3 9.88357 3.98094   1
  -4  11  -3 157.937 9.61351   1
   6  10  -3 13.1258 5.81887   1
   5  10  -3 294.115 11.9650   1
   5  10  -3 253.178 8.71598   2
   4  10  -3 16.8552 3.53448   1
   3  10  -3 87.2614 5.87553   1
   2  10  -3 537.674 16.8492   1
   1  10  -3 102.566 5.80991   1
   0  10  -3 0.60631 2.14463   1
  -1  10  -3 39.5617 4.16815   1
  -3  10  -3 60.6432 5.47637   1
   6   9  -3 -1.1483 3.41027   2
   6   9  -3 5.13981 4.25950   1
   5   9  -3 25.5113 3.30189   2
   5   9  -3 32.2907 4.20196   1
   4   9  -3 186.741 8.05358   1
   4   9  -3 181.359 6.30809   2
   2   9  -3 496.380 15.2627   1
   1   9  -3 222.479 8.28944   1
   0   9  -3 104.518 5.16588   1
  -1   9  -3 0.95854 1.60411   1
  -2   9  -3 508.399 15.6762   1
  -4   9  -3 23.4378 1.78238   2
  -5   9  -3 4.32124 1.75423   2
  -6   9  -3 -0.3359 2.56576   2
  -7   9  -3 56.6066 6.99524   2
   7   8  -3 444.222 16.2605   1
   6   8  -3 18.7016 3.41550   2
   5   8  -3 22.7187 4.38850   2
   5   8  -3 16.5237 2.70709   2
   5   8  -3 28.3756 4.01071   1
  -5  -8   3 16.4058 6.18547   1
   4   8  -3 219.105 8.25321   2
   4   8  -3 220.833 7.58192   2
  -4  -8   3 232.356 7.25899   2
   3   8  -3 617.175 15.9260   2
   3   8  -3 674.140 18.9577   1
   3   8  -3 635.222 15.9688   2
   2   8  -3 66.1701 3.83905   1
   1   8  -3 17.8339 2.30234   1
   0   8  -3 568.377 16.4787   1
  -1   8  -3 11.0556 1.86161   1
  -3   8  -3 110.953 3.09404   2
  -4   8  -3 103.943 3.99471   2
   4  -8   3 102.072 3.04468   2
  -5   8  -3 46.4079 3.54686   2
   5  -8   3 47.7596 4.74159   2
   5  -8   3 45.6906 4.45997   2
  -6   8  -3 129.756 9.66381   1
  -6   8  -3 139.305 6.57754   2
   8   7  -3 23.3099 5.30861   1
   7   7  -3 325.999 12.8674   1
   7   7  -3 312.384 12.6184   2
   6   7  -3 105.728 9.30399   2
   6   7  -3 87.0667 6.06233   2
   6   7  -3 99.2349 6.20917   1
  -6  -7   3 98.6382 11.0953   1
  -6  -7   3 103.570 6.02719   2
   5   7  -3 465.990 14.9085   1
   5   7  -3 445.242 13.7300   2
   5   7  -3 435.656 14.3332   2
  -5  -7   3 416.645 16.2573   1
  -5  -7   3 455.973 13.0545   2
   4   7  -3 308.771 10.4511   2
   4   7  -3 326.625 10.9682   1
   4   7  -3 333.438 10.1211   2
  -4  -7   3 329.850 12.3652   1
   3   7  -3 374.794 11.7394   1
   3   7  -3 382.229 10.3196   2
   3   7  -3 361.478 10.4534   2
  -3  -7   3 367.242 9.76059   2
   2   7  -3 15.5703 1.25453   2
   2   7  -3 17.8432 2.03681   1
   2   7  -3 10.4120 1.18724   2
   1   7  -3 190.441 6.65082   1
   0   7  -3 737.491 20.3033   1
  -1   7  -3 39.0848 2.67029   1
  -3   7  -3 254.739 6.95099   2
  -4   7  -3 7.27936 1.37178   2
   4  -7   3 7.56022 1.64038   2
   4  -7   3 5.71496 1.75734   2
   5  -7   3 77.6625 5.26366   2
  -6   7  -3 481.062 14.3077   2
  -6   7  -3 485.979 16.1330   1
   6  -7   3 443.246 14.6201   2
  -7   7  -3 271.755 10.4810   2
  -8   7  -3 7.64577 3.71479   2
   8   6  -3 157.060 9.58820   2
   8   6  -3 110.378 7.76089   1
   7   6  -3 17.7089 6.19917   2
   7   6  -3 14.3738 3.48664   2
   7   6  -3 16.6597 3.53864   1
  -7  -6   3 17.8392 3.72571   2
   6   6  -3 89.0710 5.46249   1
   6   6  -3 88.1306 7.96501   2
   6   6  -3 83.4995 5.88232   2
  -6  -6   3 94.3767 5.51859   2
  -6  -6   3 72.3836 9.06992   1
   5   6  -3 974.677 26.1516   2
   5   6  -3 987.563 27.4878   1
   5   6  -3 956.912 25.7988   2
  -5  -6   3 996.385 25.2045   2
  -5  -6   3 939.431 28.5193   1
   4   6  -3 165.783 6.50914   1
   4   6  -3 153.874 6.13904   2
   4   6  -3 155.375 6.77008   2
  -4  -6   3 155.929 5.74769   2
  -4  -6   3 164.663 7.63957   1
   3   6  -3 356.034 10.4811   2
   3   6  -3 373.853 11.3729   1
   3   6  -3 372.837 10.3446   2
  -3  -6   3 359.633 11.8496   1
   2   6  -3 165.535 5.27931   2
   2   6  -3 172.882 6.02453   1
   2   6  -3 166.632 5.01780   2
  -2  -6   3 165.225 4.69170   2
   1   6  -3 58.9112 2.87615   1
   1   6  -3 59.6847 1.79209   2
   1   6  -3 59.1672 1.78428   2
   0   6  -3 234.380 7.38388   1
  -1   6  -3 650.935 17.8422   1
  -2   6  -3 1.51865 0.45667   2
  -3   6  -3 92.7527 3.41261   2
   3  -6   3 93.8074 3.34214   2
   3  -6   3 90.8600 3.44716   2
  -4   6  -3 176.430 5.93921   2
   4  -6   3 168.770 5.93555   2
  -5   6  -3 597.454 17.8965   1
  -5   6  -3 607.195 16.5651   2
   5  -6   3 605.727 16.5532   2
   5  -6   3 611.627 16.5918   2
  -6   6  -3 297.948 11.3249   1
  -6   6  -3 299.488 10.2145   2
   6  -6   3 282.566 10.9170   2
   6  -6   3 316.609 10.5247   2
  -7   6  -3 279.953 12.5648   1
  -7   6  -3 301.672 10.8457   2
   7  -6   3 302.480 11.2253   2
  -8   6  -3 212.956 9.79313   2
   8  -6   3 205.662 11.0402   2
   8   5  -3 110.978 8.27469   2
  -8  -5   3 120.942 8.60939   2
   7   5  -3 132.793 7.21028   1
   7   5  -3 151.589 10.4183   2
   7   5  -3 137.989 7.55955   2
  -7  -5   3 141.103 7.42417   2
   6   5  -3 24.6495 4.45054   2
   6   5  -3 22.3277 3.14010   2
   6   5  -3 21.6902 3.48322   1
  -6  -5   3 19.2225 4.98664   1
  -6  -5   3 25.4574 3.64207   2
   5   5  -3 894.504 24.1053   2
   5   5  -3 875.958 24.1823   2
   5   5  -3 928.802 25.6386   1
  -5  -5   3 890.833 26.5405   1
  -5  -5   3 920.142 23.6884   2
   4   5  -3 93.0029 4.54239   2
   4   5  -3 91.9890 5.13539   2
   4   5  -3 96.3262 4.54732   1
  -4  -5   3 97.5594 4.28383   2
  -4  -5   3 98.6501 5.70107   1
   3   5  -3 248.993 7.99407   2
   3   5  -3 260.167 8.37490   1
   3   5  -3 248.289 7.78638   2
  -3  -5   3 263.943 8.89533   1
   2   5  -3 163.761 5.06501   2
   2   5  -3 167.397 5.66285   1
   2   5  -3 157.093 5.23176   2
  -2  -5   3 164.647 5.98317   1
   1   5  -3 10.3075 1.17483   2
   1   5  -3 9.51949 1.20437   1
   1   5  -3 12.3932 0.88365   2
   0   5  -3 324.669 9.31895   1
  -1   5  -3 1592.02 35.4761   2
  -1   5  -3 1508.22 35.3244   2
  -2   5  -3 54.7449 2.12517   2
   2  -5   3 56.7933 2.05955   2
   2  -5   3 54.8749 1.97746   2
  -3   5  -3 99.7409 3.75382   2
   3  -5   3 108.786 3.78100   2
  -4   5  -3 326.604 9.60644   2
   4  -5   3 329.957 9.61087   2
  -5   5  -3 1951.97 51.9517   1
  -5   5  -3 2034.03 48.1309   2
   5  -5   3 2055.79 48.2481   2
   5  -5   3 1946.72 47.8619   2
  -6   5  -3 103.709 5.57171   2
  -6   5  -3 98.0710 6.10246   1
   6  -5   3 102.671 6.44193   2
   6  -5   3 111.912 5.67944   2
  -7   5  -3 6.77027 3.99457   1
  -7   5  -3 4.15955 2.13580   2
   7  -5   3 9.73553 2.67093   2
   7  -5   3 -1.4912 3.76054   2
  -8   5  -3 554.534 17.3874   2
   8  -5   3 547.340 17.7820   2
  -9   5  -3 40.6616 5.47727   2
  -9  -4   3 185.838 11.1670   2
   8   4  -3 19.7685 7.18338   2
   8   4  -3 13.6103 3.79923   2
  -8  -4   3 12.6938 3.79212   2
   7   4  -3 424.580 14.5719   2
   7   4  -3 408.489 15.2263   2
  -7  -4   3 401.167 16.5340   1
  -7  -4   3 411.826 13.8472   2
   6   4  -3 27.6378 3.69165   2
  -6  -4   3 25.9391 3.59016   2
  -6  -4   3 24.4172 4.47787   1
   5   4  -3 279.225 9.77703   2
   5   4  -3 283.367 10.0606   2
   5   4  -3 274.417 9.66788   1
  -5  -4   3 276.882 10.8665   1
  -5  -4   3 281.625 9.35236   2
   4   4  -3 119.000 5.05662   1
   4   4  -3 111.905 5.04932   2
   4   4  -3 112.293 5.43175   2
  -4  -4   3 110.928 4.69738   2
  -4  -4   3 112.957 5.82964   1
   3   4  -3 308.957 9.53847   1
   3   4  -3 319.788 9.16919   2
   3   4  -3 306.982 9.12446   2
  -3  -4   3 303.561 9.87663   1
  -3  -4   3 298.710 8.72036   2
   2   4  -3 21.5848 1.94132   2
   2   4  -3 21.9980 1.55202   1
   2   4  -3 22.2839 1.54435   2
  -2  -4   3 24.7397 2.05937   1
  -2  -4   3 22.3395 1.68968   2
   1   4  -3 827.242 19.8232   2
   1   4  -3 839.227 21.8561   1
   1   4  -3 833.912 19.8233   2
  -1  -4   3 838.812 19.7944   2
  -1  -4   3 845.042 21.9770   1
   0   4  -3 312.018 7.54016   2
   0   4  -3 300.000 8.61470   1
   0   4  -3 321.523 7.53708   2
  -1   4  -3 1013.26 23.1795   2
   1  -4   3 989.393 22.9716   2
   1  -4   3 1004.88 22.9221   2
  -2   4  -3 311.947 8.13609   2
   2  -4   3 309.684 7.91865   2
  -3   4  -3 1164.21 27.7135   2
   3  -4   3 1138.57 27.4113   2
  -4   4  -3 508.878 13.9232   2
  -4   4  -3 507.030 14.6709   1
   4  -4   3 517.942 13.9963   2
   4  -4   3 531.191 13.9219   2
  -5   4  -3 1367.10 34.0082   2
   5  -4   3 1401.06 34.2374   2
   5  -4   3 1358.91 33.9170   2
  -6   4  -3 65.3527 3.96268   2
  -6   4  -3 60.8860 4.82128   1
   6  -4   3 56.8195 5.15226   2
   6  -4   3 59.5207 4.19481   2
  -7   4  -3 32.5035 3.48917   2
  -7   4  -3 34.4436 4.43093   1
   7  -4   3 29.8259 4.02831   2
   7  -4   3 29.6872 4.48551   2
  -8   4  -3 471.729 15.2648   2
  -8   4  -3 445.139 16.7226   1
   8  -4   3 479.833 15.9333   2
  -9   4  -3 5.14145 3.27156   2
   9  -4   3 -2.2696 3.62795   2
 -10  -3   3 230.373 15.1556   2
   9   3  -3 4.20318 4.44970   2
  -9  -3   3 11.0771 4.59755   2
   8   3  -3 14.4771 3.37615   2
   8   3  -3 17.8301 6.63856   2
  -8  -3   3 16.5656 3.63471   2
   7   3  -3 507.126 16.6557   2
   7   3  -3 540.006 17.6433   2
  -7  -3   3 512.520 16.2070   2
  -7  -3   3 499.106 17.9735   1
   6   3  -3 35.3807 4.45562   2
  -6  -3   3 37.7651 5.57944   1
  -6  -3   3 33.6524 3.56621   2
   5   3  -3 2.47441 2.35019   2
   5   3  -3 3.97239 1.36412   1
   5   3  -3 3.76288 1.48251   2
  -5  -3   3 3.77710 2.37297   1
  -5  -3   3 1.99257 1.26941   2
   4   3  -3 169.767 6.58862   2
   4   3  -3 169.161 6.32069   1
   4   3  -3 159.451 6.24349   2
  -4  -3   3 161.808 6.00590   2
  -4  -3   3 178.253 7.09451   1
  -4  -3   3 166.088 6.61363   2
   3   3  -3 2.18449 0.81269   1
   3   3  -3 4.43692 0.91761   2
  -3  -3   3 2.76954 0.83987   2
  -3  -3   3 3.29973 1.29303   2
   2   3  -3 707.918 17.1215   2
   2   3  -3 673.237 18.3072   1
   2   3  -3 697.610 17.0139   2
  -2  -3   3 685.180 17.0576   2
  -2  -3   3 672.415 18.4225   1
  -2  -3   3 672.298 16.8357   2
   1   3  -3 2756.02 63.6413   2
   1   3  -3 2733.21 63.0368   2
   1   3  -3 2543.37 67.8858   1
  -1  -3   3 2671.90 62.1498   2
  -1  -3   3 2655.98 68.9483   1
   0   3  -3 1420.17 32.7381   2
   0   3  -3 1384.35 31.9701   2
   0   3  -3 1391.19 35.9581   1
   0  -3   3 1370.01 31.9209   2
  -1   3  -3 323.115 8.05506   2
   1  -3   3 329.623 8.03115   2
  -2   3  -3 154.276 4.59788   2
   2  -3   3 161.232 4.56759   2
  -3   3  -3 3612.43 82.4322   2
  -3   3  -3 3422.84 89.7267   1
   3  -3   3 3560.27 83.5350   2
   3  -3   3 3729.48 83.8835   2
  -4   3  -3 94.0882 4.12026   1
  -4   3  -3 98.6382 4.06866   2
   4  -3   3 95.8235 4.14643   2
   4  -3   3 102.151 4.35052   2
  -5   3  -3 178.001 6.57586   2
  -5   3  -3 177.560 6.79249   1
   5  -3   3 176.499 6.66673   2
   5  -3   3 180.058 6.77700   2
  -6   3  -3 209.893 7.71347   2
  -6   3  -3 202.751 8.01343   1
   6  -3   3 209.127 8.31804   2
   6  -3   3 217.331 8.14286   2
  -7   3  -3 294.438 11.0394   1
  -7   3  -3 300.984 10.4389   2
   7  -3   3 290.112 11.0927   2
   7  -3   3 300.229 10.9348   2
  -8   3  -3 393.172 14.5817   1
  -8   3  -3 397.174 13.4222   2
   8  -3   3 405.177 14.0597   2
   9  -3   3 22.4492 4.42691   2
  10  -3   3 -2.7575 4.72265   2
   9   2  -3 28.8454 4.83070   2
   8   2  -3 27.9074 6.61756   2
   8   2  -3 41.2559 5.08000   2
  -8  -2   3 32.9328 4.37569   2
   7   2  -3 334.890 12.5234   2
   7   2  -3 347.488 13.4770   2
  -7  -2   3 357.906 12.3040   2
  -7  -2   3 369.664 13.9224   1
   6   2  -3 181.777 7.93747   2
   6   2  -3 172.185 8.34730   2
  -6  -2   3 204.481 8.93266   1
  -6  -2   3 185.772 7.66154   2
   5   2  -3 26.3896 2.72137   2
   5   2  -3 28.7908 3.43287   2
  -5  -2   3 25.0583 3.79741   1
  -5  -2   3 26.6771 2.58696   2
  -5  -2   3 22.4518 3.17350   2
   4   2  -3 252.974 8.39154   2
   4   2  -3 232.055 8.16950   2
   4   2  -3 254.530 8.40831   1
  -4  -2   3 246.647 8.71651   1
  -4  -2   3 254.051 8.53506   2
  -4  -2   3 253.303 8.08815   2
   3   2  -3 3.75444 1.24308   2
   3   2  -3 3.74795 0.93935   1
   3   2  -3 3.35507 0.86111   2
  -3  -2   3 3.61612 1.27634   1
  -3  -2   3 5.94175 1.45252   2
  -3  -2   3 4.82365 0.94637   2
   2   2  -3 1333.51 36.7552   1
   2   2  -3 1495.09 33.9877   2
   2   2  -3 1463.22 34.1142   2
  -2  -2   3 1440.91 36.9796   1
  -2  -2   3 1435.15 33.8866   2
  -2  -2   3 1456.58 34.0594   2
   1   2  -3 1350.98 31.6010   2
   1   2  -3 1408.66 31.5646   2
   1   2  -3 1285.64 34.1880   1
  -1  -2   3 1383.10 35.2434   1
  -1  -2   3 1334.25 31.5485   2
   0   2  -3 592.012 15.5692   1
   0   2  -3 636.359 14.5623   2
   0   2  -3 586.267 14.4581   2
   0  -2   3 621.704 14.5194   2
  -1   2  -3 1129.57 26.3387   2
   1  -2   3 1138.63 26.3357   2
  -2   2  -3 30.1396 1.54790   2
  -2   2  -3 24.3224 1.37974   1
   2  -2   3 28.1984 1.58075   2
  -3   2  -3 4189.68 96.7085   2
  -3   2  -3 3940.82 105.529   1
   3  -2   3 4152.53 96.9862   2
  -4   2  -3 32.2446 2.30407   1
  -4   2  -3 31.9502 2.13936   2
   4  -2   3 33.8131 2.70354   2
   4  -2   3 35.5423 2.37896   2
  -5   2  -3 52.2803 3.23703   2
  -5   2  -3 57.4461 3.47640   1
   5  -2   3 51.9559 3.36651   2
  -6   2  -3 101.487 5.33162   1
  -6   2  -3 100.810 4.89883   2
   6  -2   3 98.3651 5.16783   2
   6  -2   3 102.815 5.74312   2
  -7   2  -3 63.7572 5.26964   1
   7  -2   3 55.5066 4.55757   2
   7  -2   3 60.5525 5.82704   2
  -8   2  -3 140.600 8.10531   1
  -8   2  -3 140.633 7.10524   2
   8  -2   3 140.316 8.95845   2
   8  -2   3 142.945 7.65284   2
  -9   2  -3 117.362 7.09834   2
   9  -2   3 127.648 8.07046   2
  10  -2   3 12.0041 4.93613   2
   9   1  -3 102.587 8.70864   2
  -9  -1   3 103.284 8.00535   2
   8   1  -3 8.44866 6.13656   2
   8   1  -3 -3.4872 2.80580   2
  -8  -1   3 3.51259 2.91500   2
   7   1  -3 27.1752 4.84431   2
   7   1  -3 30.4009 3.75241   2
  -7  -1   3 22.4738 3.17859   2
  -7  -1   3 30.7225 4.83106   1
   6   1  -3 799.468 22.8294   2
   6   1  -3 837.565 23.2754   2
  -6  -1   3 831.501 24.1458   1
  -6  -1   3 836.533 22.7495   2
   5   1  -3 1.56461 1.98488   2
   5   1  -3 0.60139 1.10752   2
  -5  -1   3 1.90771 1.99398   1
  -5  -1   3 2.14149 1.96393   2
  -5  -1   3 1.43269 1.26367   2
   4   1  -3 125.852 5.31515   2
   4   1  -3 129.282 5.45433   2
  -4  -1   3 126.053 5.09296   2
  -4  -1   3 124.750 5.52092   2
  -4  -1   3 139.815 5.59886   1
   3   1  -3 1506.31 36.2929   2
   3   1  -3 1519.39 36.0486   2
  -3  -1   3 1510.23 36.1817   2
  -3  -1   3 1523.03 39.1551   1
  -3  -1   3 1461.64 35.9757   2
   2   1  -3 3168.99 75.1910   2
   2   1  -3 3330.31 76.6044   2
  -2  -1   3 3231.60 75.7273   2
  -2  -1   3 3040.72 80.6429   1
  -2  -1   3 3287.78 75.0206   2
   1   1  -3 384.434 9.82147   2
   1   1  -3 392.629 9.91623   2
  -1  -1   3 375.244 9.77675   2
  -1  -1   3 382.792 10.4114   1
  -1  -1   3 397.957 9.92525   2
   0   1  -3 13.3436 1.01093   2
   0   1  -3 13.4441 0.93198   2
   0  -1   3 12.5007 1.00221   2
   0  -1   3 11.6956 0.64146   1
  -1   1  -3 4402.60 111.081   1
  -1   1  -3 4801.84 105.082   2
   1  -1   3 4522.09 103.152   2
   1  -1   3 4024.77 111.011   1
  -2   1  -3 52.1238 2.13336   2
  -2   1  -3 50.9712 2.03615   1
   2  -1   3 50.1795 2.04283   1
   2  -1   3 52.4672 2.19769   2
  -3   1  -3 800.664 21.0421   1
  -3   1  -3 806.919 19.6788   2
   3  -1   3 798.488 21.1635   1
   3  -1   3 789.559 19.6424   2
  -4   1  -3 5.02082 1.21903   1
  -4   1  -3 3.15911 0.91885   2
   4  -1   3 4.40885 1.01762   1
   4  -1   3 2.60043 1.20264   2
  -5   1  -3 374.059 11.1331   2
  -5   1  -3 379.033 11.5931   1
   5  -1   3 373.210 11.2842   2
   5  -1   3 369.324 11.2892   2
  -6   1  -3 422.200 13.2351   1
  -6   1  -3 423.118 12.7924   2
   6  -1   3 416.895 12.9695   2
   6  -1   3 411.743 12.9318   2
  -7   1  -3 3.13266 2.65709   1
  -7   1  -3 0.89820 1.47475   2
   7  -1   3 2.08304 2.77842   2
   7  -1   3 -1.6667 1.62421   2
  -8   1  -3 133.380 6.73347   2
  -8   1  -3 128.576 8.12068   1
   8  -1   3 137.582 8.64240   2
  -9   1  -3 218.837 9.68737   2
   9  -1   3 224.349 10.5122   2
 -10   1  -3 10.1332 3.77726   2
  10  -1   3 0.47468 4.22339   2
   9   0  -3 56.6400 7.17220   2
  -9   0   3 75.2260 7.23299   2
   8   0  -3 152.303 8.28506   2
  -8   0   3 135.729 7.71007   2
   7   0  -3 272.288 10.5995   2
   7   0  -3 244.546 11.3005   2
  -7   0   3 271.690 11.1113   1
  -7   0   3 264.081 10.2038   2
   6   0  -3 429.682 14.0870   2
   6   0  -3 439.220 14.2085   2
  -6   0   3 431.617 14.3696   1
  -6   0   3 445.543 14.5341   2
  -6   0   3 441.421 13.7554   2
   5   0  -3 53.7717 3.73991   2
   5   0  -3 58.8011 4.44726   2
  -5   0   3 57.7193 3.70443   2
  -5   0   3 58.6156 4.67553   2
  -5   0   3 58.6643 4.17666   1
   4   0  -3 1423.04 34.3245   2
   4   0  -3 1383.95 34.5810   2
  -4   0   3 1375.22 36.9109   1
  -4   0   3 1409.84 34.3500   2
  -4   0   3 1393.87 34.4699   2
   3   0  -3 669.408 16.8655   2
   3   0  -3 656.992 17.0835   2
  -3   0   3 675.403 17.0802   2
  -3   0   3 626.139 16.7600   2
  -3   0   3 629.793 17.8864   1
   2   0  -3 2670.26 62.3480   2
   2   0  -3 2709.76 63.9019   2
  -2   0   3 2696.70 62.4304   2
  -2   0   3 2606.53 69.9416   1
  -2   0   3 2804.22 62.5930   2
   1   0  -3 5.24048 0.82487   2
   1   0  -3 5.36635 0.77080   2
  -1   0   3 3.19307 0.76131   2
   0   0  -3 290.055 7.55850   2
   0   0  -3 301.042 7.65053   2
   0   0   3 297.985 7.56431   2
   0   0   3 297.789 7.65002   2
  -1   0  -3 4730.54 108.612   2
  -1   0  -3 4414.22 116.258   1
   1   0   3 4636.64 108.261   2
  -2   0  -3 292.973 7.99828   1
  -2   0  -3 286.834 7.63210   2
   2   0   3 282.876 7.93557   1
   2   0   3 289.251 7.67037   2
  -3   0  -3 308.771 9.09941   1
  -3   0  -3 316.496 8.69623   2
   3   0   3 315.669 9.10406   1
   3   0   3 314.851 8.73442   2
  -4   0  -3 8.45600 1.32683   2
  -4   0  -3 7.74693 1.49911   1
   4   0   3 7.73329 1.50242   2
   4   0   3 11.1167 1.42663   1
  -5   0  -3 598.972 17.3958   1
  -5   0  -3 603.396 16.4099   2
   5   0   3 607.223 17.4283   1
   5   0   3 603.593 16.6201   2
   5   0   3 616.300 16.6230   2
  -6   0  -3 292.372 9.70451   2
  -6   0  -3 280.053 10.0740   1
   6   0   3 299.710 10.1699   2
   6   0   3 301.367 10.0847   1
   6   0   3 279.437 9.75856   2
  -7   0  -3 102.205 5.42445   2
  -7   0  -3 109.601 6.21582   1
   7   0   3 95.3081 5.63149   2
   7   0   3 107.330 6.83388   2
  -8   0  -3 134.426 7.94556   1
  -8   0  -3 131.673 6.61103   2
   8   0   3 121.764 8.46626   2
   8   0   3 124.589 6.85763   2
  -9   0  -3 11.2772 3.04131   2
   9   0   3 17.7157 3.77458   2
 -10   0  -3 26.6660 4.34598   2
  10   0   3 18.9472 4.52346   2
   9  -1  -3 79.7938 8.28780   2
  -9   1   3 89.7200 8.14615   2
   8  -1  -3 363.083 14.0507   2
  -8   1   3 383.019 13.9390   2
   7  -1  -3 43.5130 5.53718   2
   7  -1  -3 42.2458 4.46363   2
  -7   1   3 46.7984 5.60951   1
  -7   1   3 47.4858 4.33717   2
   6  -1  -3 87.9194 5.33720   2
   6  -1  -3 82.8300 6.00584   2
  -6   1   3 87.4848 5.64766   1
  -6   1   3 87.3990 5.01650   2
  -6   1   3 85.7542 6.76830   2
   5  -1  -3 275.056 9.61701   2
   5  -1  -3 269.990 9.47588   2
  -5   1   3 269.754 9.57803   1
  -5   1   3 275.448 9.28424   2
  -5   1   3 273.536 9.83513   2
   4  -1  -3 2456.39 58.6634   2
   4  -1  -3 2441.38 58.2373   2
  -4   1   3 2524.42 58.5935   2
  -4   1   3 2383.57 63.1299   1
  -4   1   3 2501.59 58.4463   2
   3  -1  -3 458.991 12.6095   2
   3  -1  -3 483.413 12.9482   2
  -3   1   3 471.484 12.8749   2
  -3   1   3 453.277 12.6436   2
   2  -1  -3 887.807 21.4945   2
   2  -1  -3 884.154 21.2920   2
  -2   1   3 852.073 21.3702   2
  -2   1   3 859.159 21.3226   2
   1  -1  -3 1826.89 42.4544   2
   1  -1  -3 1839.37 42.3480   2
  -1   1   3 1741.40 42.3154   2
  -1   1   3 1888.68 42.4970   2
   0  -1  -3 1473.22 34.4595   2
   0  -1  -3 1413.55 33.7208   2
   0   1   3 1478.34 33.7916   2
   0   1   3 1439.79 33.6619   2
  -1  -1  -3 3254.25 77.6490   2
   1   1   3 3267.34 77.4627   2
   1   1   3 3202.55 84.0228   1
  -2  -1  -3 121.017 3.82173   2
  -2  -1  -3 124.429 4.06414   1
   2   1   3 117.325 3.87734   2
   2   1   3 117.013 3.90724   1
  -3  -1  -3 19.2945 1.51435   2
   3   1   3 20.8447 1.46638   1
   3   1   3 19.9639 1.77336   2
  -4  -1  -3 2.77517 0.78950   2
  -4  -1  -3 4.92646 1.27570   1
   4   1   3 1.66832 1.19622   2
   4   1   3 3.45136 0.86698   1
  -5  -1  -3 0.33678 1.44945   1
  -5  -1  -3 0.70409 0.86795   2
   5   1   3 1.52649 0.96794   1
   5   1   3 1.68291 1.50409   2
  -6  -1  -3 988.998 27.1003   1
  -6  -1  -3 962.548 25.0672   2
   6   1   3 948.652 25.3012   2
   6   1   3 965.793 26.7667   1
   6   1   3 933.753 25.2911   2
  -7  -1  -3 614.398 18.8339   1
  -7  -1  -3 549.210 17.1740   2
   7   1   3 599.752 18.0089   2
   7   1   3 617.919 18.0383   2
   7   1   3 620.656 18.4541   1
  -8  -1  -3 109.055 6.16207   2
  -8  -1  -3 110.396 7.82598   1
   8   1   3 100.840 6.19456   2
   8   1   3 101.843 5.70825   1
   8   1   3 113.962 8.29451   2
  -9  -1  -3 136.801 7.52503   2
   9   1   3 127.147 7.81831   2
 -10  -1  -3 18.6710 3.91941   2
  10   1   3 4.02531 4.28621   2
   9  -2  -3 173.145 10.9212   2
  -9   2   3 194.890 10.6751   2
   8  -2  -3 558.598 19.0791   2
  -8   2   3 608.836 19.1079   2
   7  -2  -3 83.4466 7.92561   2
  -7   2   3 86.1828 5.69540   2
  -7   2   3 73.4076 6.65473   1
   6  -2  -3 132.197 6.47537   2
   6  -2  -3 120.669 7.02523   2
  -6   2   3 128.069 6.80453   1
  -6   2   3 128.271 7.59956   2
  -6   2   3 134.907 6.58259   2
   5  -2  -3 70.8274 4.24237   2
   5  -2  -3 72.8777 4.81160   2
  -5   2   3 71.6479 4.19779   2
  -5   2   3 71.9533 4.53578   1
   4  -2  -3 2277.66 52.9370   2
  -4   2   3 2126.85 52.5920   2
  -4   2   3 2194.59 52.6084   2
   3  -2  -3 35.3719 2.57906   2
   3  -2  -3 37.2703 2.46220   2
  -3   2   3 36.3915 2.80990   2
  -3   2   3 38.1366 2.36231   2
   2  -2  -3 4.87621 1.12154   2
   2  -2  -3 4.58732 0.95718   2
  -2   2   3 3.48430 0.83138   2
  -2   2   3 5.74846 1.26047   2
   1  -2  -3 895.245 21.5922   2
   1  -2  -3 906.828 21.7336   2
  -1   2   3 903.803 21.6573   2
  -1   2   3 889.895 21.7144   2
   0  -2  -3 239.672 6.55184   2
   0  -2  -3 245.762 6.60888   2
   0   2   3 241.246 6.65244   2
   0   2   3 249.407 6.54947   2
  -1  -2  -3 1640.01 37.6936   2
  -1  -2  -3 1630.17 37.6280   2
   1   2   3 1599.60 37.7470   2
   1   2   3 1622.02 41.3614   1
  -2  -2  -3 430.121 12.1967   1
  -2  -2  -3 448.017 11.1522   2
   2   2   3 446.698 12.1516   1
   2   2   3 423.470 11.1634   2
  -3  -2  -3 237.012 7.54822   1
  -3  -2  -3 235.648 6.90757   2
   3   2   3 236.781 7.33164   1
   3   2   3 230.397 7.00716   2
  -4  -2  -3 76.8863 3.93803   1
  -4  -2  -3 80.2415 3.54613   2
   4   2   3 76.0336 3.50277   1
   4   2   3 80.7692 3.88701   2
  -5  -2  -3 44.6775 3.50869   1
  -5  -2  -3 45.5850 2.99978   2
   5   2   3 43.3406 2.74367   1
   5   2   3 39.7530 3.61389   2
  -6  -2  -3 758.620 22.7732   1
  -6  -2  -3 766.407 20.9714   2
   6   2   3 811.510 22.5260   1
   6   2   3 794.303 21.4694   2
  -7  -2  -3 133.975 7.42520   1
  -7  -2  -3 138.453 6.49512   2
   7   2   3 139.222 6.66012   2
   7   2   3 141.445 6.58206   1
   7   2   3 139.882 7.65696   2
  -8  -2  -3 140.263 8.82042   1
   8   2   3 145.515 7.19722   1
   8   2   3 146.864 9.55026   2
   8   2   3 146.517 7.49932   2
  -9  -2  -3 602.473 18.9041   2
   9   2   3 599.506 19.3421   2
   9   2   3 606.895 19.5636   1
  10   2   3 31.3783 5.15652   2
   9  -3  -3 180.558 11.5953   2
   8  -3  -3 124.043 8.89147   2
  -8   3   3 139.036 8.28205   2
   7  -3  -3 156.684 8.25813   2
  -7   3   3 166.072 7.85326   2
   6  -3  -3 921.470 25.4222   2
   6  -3  -3 896.080 25.0243   2
  -6   3   3 871.804 26.3475   1
  -6   3   3 945.578 25.2004   2
  -6   3   3 939.782 25.6124   2
   5  -3  -3 19.0825 2.70568   2
   5  -3  -3 14.5351 2.94034   2
  -5   3   3 23.1206 3.18582   1
  -5   3   3 23.0043 3.54334   2
  -5   3   3 19.7462 2.58192   2
   4  -3  -3 1347.29 33.2130   2
   4  -3  -3 1373.24 33.6068   2
  -4   3   3 1380.12 33.4716   2
  -4   3   3 1274.95 33.3489   2
   3  -3  -3 29.6374 2.30585   2
   3  -3  -3 35.9569 2.75684   2
  -3   3   3 31.9171 2.80759   2
  -3   3   3 33.3413 2.28498   2
   2  -3  -3 536.836 14.0246   2
   2  -3  -3 548.315 14.2314   2
  -2   3   3 551.312 14.1837   2
  -2   3   3 542.488 14.2398   2
   1  -3  -3 791.060 18.6097   2
   1  -3  -3 717.545 18.3396   2
  -1   3   3 732.464 18.4403   2
  -1   3   3 778.712 18.6223   2
   0  -3  -3 20.4176 1.36218   2
   0  -3  -3 19.3483 1.50375   2
   0   3   3 19.6095 1.59937   2
   0   3   3 18.5522 1.26369   2
  -1  -3  -3 2.05700 0.65728   2
   1   3   3 0.90402 0.60138   1
   1   3   3 1.53898 0.72379   2
  -2  -3  -3 1166.06 31.0208   1
  -2  -3  -3 1185.11 28.0486   2
   2   3   3 1176.85 30.9412   1
   2   3   3 1207.94 28.1792   2
  -3  -3  -3 1.50919 0.70368   2
  -3  -3  -3 2.01050 1.05339   1
   3   3   3 1.00532 0.94959   2
   3   3   3 1.55162 0.67796   1
  -4  -3  -3 571.638 16.7486   1
  -4  -3  -3 560.293 15.1767   2
   4   3   3 584.493 16.4635   1
   4   3   3 587.569 15.4551   2
  -5  -3  -3 437.831 13.7231   1
  -5  -3  -3 425.287 12.3527   2
   5   3   3 420.329 13.0218   1
   5   3   3 424.931 12.7358   2
  -6  -3  -3 1295.74 34.9379   1
  -6  -3  -3 1220.60 31.6149   2
   6   3   3 1201.17 31.9432   2
   6   3   3 1299.70 32.2559   2
   6   3   3 1231.34 34.0452   1
  -7  -3  -3 25.2994 3.15263   2
  -7  -3  -3 28.9241 4.57826   1
   7   3   3 26.3420 3.17679   1
   7   3   3 29.9242 4.46537   2
   7   3   3 27.6363 3.32569   2
  -8  -3  -3 46.1690 4.70467   2
  -8  -3  -3 43.4114 6.30334   1
   8   3   3 49.7281 4.37368   1
   8   3   3 47.1039 4.77686   2
   8   3   3 43.4825 6.25904   2
  -9  -3  -3 741.558 21.9595   2
   9   3   3 722.164 24.4994   2
   9   3   3 709.345 22.3052   2
   9   3   3 746.191 22.9687   1
  10   3   3 28.3847 5.24619   2
   9  -4  -3 224.060 13.8056   2
   8  -4  -3 -2.5217 3.92922   2
  -8   4   3 4.35834 3.38234   2
   7  -4  -3 1.12399 3.00991   2
  -7   4   3 8.68243 2.64037   2
   6  -4  -3 1174.80 33.1735   2
   6  -4  -3 1367.17 34.2083   2
  -6   4   3 1276.54 35.8282   1
  -6   4   3 1318.56 34.2372   2
  -6   4   3 1286.25 33.6392   2
   5  -4  -3 9.43042 2.11381   2
   5  -4  -3 9.61272 2.69381   2
  -5   4   3 12.0259 3.40816   2
  -5   4   3 12.6865 2.07748   2
   4  -4  -3 75.4108 4.18611   2
   4  -4  -3 74.6655 4.50806   2
  -4   4   3 69.7171 3.93574   2
  -4   4   3 70.0095 4.82806   2
   3  -4  -3 16.3309 1.90499   2
  -3   4   3 15.3443 2.22716   2
  -3   4   3 14.7209 1.79770   2
   2  -4  -3 726.921 18.3098   2
   2  -4  -3 707.864 18.0958   2
  -2   4   3 750.362 18.3426   2
  -2   4   3 707.031 18.3291   2
   1  -4  -3 843.441 20.9972   2
   1  -4  -3 879.179 21.1817   2
  -1   4   3 894.818 21.3032   2
  -1   4   3 852.082 21.1060   2
   0  -4  -3 418.960 10.5976   2
   0   4   3 426.924 10.7854   2
   0   4   3 394.579 10.4775   2
  -1  -4  -3 94.2862 3.29546   2
   1   4   3 96.0962 3.47177   2
   1   4   3 90.4969 3.87624   1
  -2  -4  -3 93.3371 3.32919   2
   2   4   3 95.6668 3.98462   1
   2   4   3 90.3841 3.54751   2
  -3  -4  -3 27.1611 1.83181   2
  -3  -4  -3 29.3071 2.63007   1
   3   4   3 29.3580 2.34258   2
   3   4   3 30.3604 2.12296   1
  -4  -4  -3 2128.58 50.5392   2
   4   4   3 2102.40 55.2669   1
   4   4   3 2178.80 50.7542   2
  -5  -4  -3 110.681 5.93813   1
  -5  -4  -3 107.223 4.78344   2
   5   4   3 99.7497 5.42071   2
   5   4   3 102.319 4.88868   1
  -6  -4  -3 553.610 17.6050   1
  -6  -4  -3 546.404 15.6351   2
   6   4   3 539.685 16.1996   2
   6   4   3 523.820 15.8365   2
   6   4   3 537.445 16.5563   1
  -7  -4  -3 224.630 10.6997   1
  -7  -4  -3 239.080 9.04065   2
   7   4   3 237.175 9.15827   1
   7   4   3 229.695 10.3335   2
   7   4   3 225.133 9.10054   2
  -8  -4  -3 188.156 8.47671   2
   8   4   3 200.675 9.02709   2
   8   4   3 208.647 9.02119   1
   8   4   3 188.461 11.1482   2
  -9  -4  -3 495.358 16.5114   2
   9   4   3 493.214 20.2774   2
   9   4   3 516.774 17.5217   1
   9   4   3 485.357 16.8367   2
 -10  -4  -3 28.2698 5.33334   2
   8  -5  -3 134.608 10.0679   2
  -8   5   3 175.808 9.64610   2
   7  -5  -3 25.6002 4.47491   2
  -7   5   3 30.7703 4.41690   2
   6  -5  -3 624.903 19.9871   2
   6  -5  -3 718.428 20.4484   2
  -6   5   3 703.650 20.1214   2
  -6   5   3 671.479 21.5618   1
  -6   5   3 704.096 21.1050   2
   5  -5  -3 -1.1193 1.70604   2
   5  -5  -3 -0.2959 2.80214   2
  -5   5   3 -1.3682 2.94841   2
  -5   5   3 1.97656 1.53374   2
   4  -5  -3 103.497 4.93995   2
   4  -5  -3 92.9848 5.38434   2
  -4   5   3 105.150 5.84485   2
  -4   5   3 94.2891 4.65381   2
   3  -5  -3 56.0475 3.25993   2
   3  -5  -3 63.2809 3.81036   2
  -3   5   3 66.7591 4.15577   2
  -3   5   3 57.2125 3.24896   2
   2  -5  -3 114.258 4.49459   2
   2  -5  -3 120.509 4.42127   2
  -2   5   3 117.834 4.41949   2
  -2   5   3 117.585 4.80463   2
   1  -5  -3 263.785 7.46288   2
  -1   5   3 261.473 7.44734   2
  -1   5   3 265.741 7.70446   2
   0  -5  -3 830.256 19.9477   2
   0  -5  -3 813.981 19.8736   2
   0   5   3 830.816 20.1324   2
  -1  -5  -3 411.428 10.3069   2
  -1  -5  -3 395.390 10.2257   2
   1   5   3 392.308 10.4536   2
   1   5   3 392.482 12.0407   1
  -2  -5  -3 293.941 8.04250   2
   2   5   3 287.255 9.43037   1
   2   5   3 299.900 8.32301   2
  -3  -5  -3 19.8050 1.77753   2
   3   5   3 20.0226 2.30851   2
   3   5   3 22.7415 2.03424   1
  -4  -5  -3 2421.90 63.6583   1
  -4  -5  -3 2430.58 57.5356   2
   4   5   3 2450.62 63.2336   1
   4   5   3 2471.74 57.7430   2
  -5  -5  -3 52.1531 4.73964   1
  -5  -5  -3 55.3340 3.44335   2
   5   5   3 50.2310 3.36189   1
   5   5   3 41.9780 4.21959   2
  -6  -5  -3 16.4067 3.77767   1
  -6  -5  -3 19.3806 2.66507   2
   6   5   3 16.7080 3.51379   2
  -7  -5  -3 538.033 16.2648   2
  -7  -5  -3 513.915 18.8919   1
   7   5   3 555.363 16.9488   2
   7   5   3 565.098 17.5316   1
   7   5   3 534.155 17.6069   2
  -8  -5  -3 378.114 13.2160   2
   8   5   3 374.042 16.0130   2
   8   5   3 381.689 13.6705   1
   8   5   3 363.172 13.2681   2
   9   5   3 79.0678 10.1901   2
   9   5   3 106.892 6.96228   1
   9   5   3 96.7604 7.60686   2
 -10  -5  -3 11.4674 5.80607   2
   7  -6  -3 85.7063 7.60336   2
  -7   6   3 63.9474 6.33499   2
   6  -6  -3 203.566 9.27336   2
  -6   6   3 195.503 8.76677   2
   5  -6  -3 108.348 6.07255   2
   5  -6  -3 109.090 7.24985   2
  -5   6   3 110.647 7.96389   2
  -5   6   3 103.701 5.51683   2
   4  -6  -3 30.8730 3.17807   2
   4  -6  -3 34.5111 4.49936   2
  -4   6   3 35.4253 5.02831   2
  -4   6   3 38.3956 3.09589   2
   3  -6  -3 31.2352 2.65547   2
   3  -6  -3 33.7280 3.60749   2
  -3   6   3 32.1819 2.56358   2
  -3   6   3 30.7657 3.70578   2
   2  -6  -3 133.389 4.73120   2
  -2   6   3 127.235 5.22995   2
  -2   6   3 120.239 4.59430   2
   1  -6  -3 910.126 21.8124   2
  -1   6   3 879.024 22.1008   2
  -1   6   3 906.991 21.8816   2
   0  -6  -3 349.895 9.25659   2
   0   6   3 355.759 9.60865   2
  -1  -6  -3 37.8043 2.21144   2
   1   6   3 37.0341 2.74651   1
   1   6   3 38.5787 2.46073   2
  -2  -6  -3 1241.29 30.0373   2
   2   6   3 1287.05 30.4312   2
   2   6   3 1281.85 34.2137   1
  -3  -6  -3 63.4103 3.33410   2
   3   6   3 66.6043 3.77066   1
   3   6   3 57.1272 3.46373   2
  -4  -6  -3 1236.41 30.1383   2
   4   6   3 1191.74 30.2939   2
   4   6   3 1246.64 33.4837   1
  -5  -6  -3 50.1698 5.28867   1
  -5  -6  -3 51.8112 3.57323   2
   5   6   3 50.3242 3.63235   1
   5   6   3 56.1594 4.89495   2
   5   6   3 52.0003 3.69578   2
  -6  -6  -3 232.808 8.49962   2
  -6  -6  -3 226.890 11.0090   1
   6   6   3 230.523 9.01727   1
   6   6   3 222.834 9.73566   2
   6   6   3 233.568 8.96402   2
  -7  -6  -3 382.132 12.4708   2
   7   6   3 345.664 13.8746   2
   7   6   3 367.346 13.1433   1
   7   6   3 366.564 12.7600   2
  -8  -6  -3 85.9837 6.59404   2
   8   6   3 87.8310 6.71158   2
   8   6   3 80.7583 8.87925   2
   8   6   3 84.7456 6.33118   1
  -9  -6  -3 28.0207 4.73120   2
  -7   7   3 -4.6914 3.61942   2
   6  -7  -3 17.2341 3.80862   2
  -6   7   3 16.2619 3.19252   2
   5  -7  -3 53.1360 7.32602   2
   5  -7  -3 63.2675 4.95777   2
  -5   7   3 54.4458 4.40826   2
  -5   7   3 58.4739 7.78136   2
   4  -7  -3 68.6490 4.38849   2
   4  -7  -3 57.0293 5.74128   2
  -4   7   3 60.9282 3.96811   2
  -4   7   3 62.9494 6.25339   2
   3  -7  -3 260.336 8.15011   2
   3  -7  -3 249.498 8.55940   2
  -3   7   3 242.110 8.00506   2
  -3   7   3 250.805 9.02525   2
   2  -7  -3 317.590 9.34682   2
  -2   7   3 320.678 9.76648   2
  -2   7   3 314.448 9.10063   2
   1  -7  -3 1203.93 28.4565   2
  -1   7   3 1182.93 28.8355   2
   0  -7  -3 5.93980 1.25153   2
   0  -7  -3 3.84578 1.11634   2
   0   7   3 2.34677 1.28962   2
  -1  -7  -3 3.23816 1.08164   2
  -1  -7  -3 3.63627 1.13324   2
   1   7   3 2.82057 1.44049   1
   1   7   3 4.15927 1.34288   2
  -2  -7  -3 2333.89 54.6055   2
   2   7   3 2375.76 55.0714   2
   2   7   3 2382.24 61.7081   1
  -3  -7  -3 46.7891 3.03077   2
   3   7   3 50.1180 3.55304   1
   3   7   3 49.4740 3.44785   2
  -4  -7  -3 138.247 5.32797   2
   4   7   3 130.944 6.13336   1
   4   7   3 142.866 6.17374   2
  -5  -7  -3 158.890 6.37326   2
   5   7   3 158.523 7.01690   1
   5   7   3 151.849 7.41813   2
  -6  -7  -3 447.015 13.4999   2
  -6  -7  -3 425.329 17.1017   1
   6   7   3 445.337 14.1103   2
   6   7   3 448.754 14.8777   2
   6   7   3 439.043 14.8518   1
  -7  -7  -3 149.985 7.33126   2
   7   7   3 149.378 7.74931   1
   7   7   3 145.304 7.68485   2
   8   7   3 4.91774 3.41871   2
   8   7   3 1.03596 3.19508   1
  -6   8   3 -0.9121 3.07294   2
  -5   8   3 47.3686 4.58827   2
   4  -8  -3 9.10017 3.75155   2
   4  -8  -3 13.9074 2.45469   2
  -4   8   3 20.1717 4.34685   2
  -4   8   3 19.8051 2.68152   2
   3  -8  -3 685.205 18.7884   2
  -3   8   3 735.435 19.6700   2
   2  -8  -3 87.7058 4.71942   2
   2  -8  -3 97.6313 4.43177   2
  -2   8   3 101.998 3.94695   2
  -2   8   3 91.7055 5.17128   2
   1  -8  -3 251.427 7.02964   2
  -1   8   3 252.801 7.86359   2
   0  -8  -3 430.890 10.9753   2
   0  -8  -3 455.030 10.9865   2
   0   8   3 457.595 14.6533   1
  -1  -8  -3 223.400 5.94376   2
  -1  -8  -3 216.898 5.81373   2
   1   8   3 217.693 8.53496   1
  -2  -8  -3 869.234 20.4531   2
  -2  -8  -3 855.445 20.5563   2
   2   8   3 827.653 21.0651   2
   2   8   3 870.342 24.9364   1
  -3  -8  -3 41.0552 3.12065   2
  -3  -8  -3 43.2800 3.40388   2
   3   8   3 41.3520 3.64901   2
   3   8   3 44.7994 3.83873   1
  -4  -8  -3 22.3226 2.64838   2
   4   8   3 22.5804 2.87520   1
   4   8   3 20.9909 2.80072   2
   4   8   3 18.1369 2.82403   2
  -5  -8  -3 46.5219 3.78059   2
   5   8   3 39.5747 5.77503   2
   5   8   3 43.1394 3.86301   2
   5   8   3 43.9357 4.00224   1
  -6  -8  -3 181.476 7.64971   2
   6   8   3 192.548 8.25956   2
   6   8   3 181.935 8.61586   1
   6   8   3 183.725 10.0025   2
   7   8   3 94.0044 6.57114   1
   7   8   3 107.305 6.96482   2
  -5   9   3 11.3376 2.88799   2
   4  -9  -3 28.0867 4.69822   2
  -4   9   3 29.2834 3.61148   2
   3  -9  -3 802.111 20.5731   2
   3  -9  -3 841.753 20.3817   2
  -3   9   3 763.280 21.5785   2
  -3   9   3 790.907 20.3866   2
   2  -9  -3 17.0098 1.96735   2
   2  -9  -3 15.4252 2.03034   2
  -2   9   3 18.9230 3.11870   2
   0   9   3 333.044 9.06037   2
   0   9   3 348.360 12.3978   1
   1   9   3 179.025 5.36498   2
   1   9   3 182.899 8.01905   1
   2   9   3 351.426 9.63186   2
   2   9   3 368.365 12.7529   1
  -3  -9  -3 25.5181 2.79786   2
   3   9   3 35.1718 3.76910   1
   3   9   3 25.7440 2.63631   2
  -4  -9  -3 221.919 7.73052   2
  -4  -9  -3 238.044 7.76904   2
   4   9   3 245.065 9.70899   1
   4   9   3 237.358 8.71005   2
   4   9   3 243.929 8.25074   2
  -5  -9  -3 7.86765 3.20277   2
   5   9   3 9.16252 2.90229   1
   5   9   3 6.68518 2.28222   2
   5   9   3 9.26039 3.80909   2
   6   9   3 19.5233 3.86944   1
   6   9   3 4.31643 2.89771   2
   7   9   3 108.611 9.27908   1
  -5  10   3 262.237 10.0707   2
  -4  10   3 2.01543 2.23535   2
  -1  10   3 62.0453 5.43538   1
   0  10   3 583.869 19.1311   1
   1  10   3 115.873 6.91693   1
   2  10   3 23.7069 1.79180   2
   2  10   3 30.0534 4.04453   1
   2  10   3 26.3211 1.65295   2
   3  10   3 22.9638 2.59797   2
   3  10   3 20.7872 2.51629   2
   3  10   3 32.8914 4.23409   1
   4  10   3 106.879 6.74626   1
   4  10   3 79.2703 4.67569   2
   5  10   3 69.0530 5.36518   2
   5  10   3 82.8218 6.29384   1
   6  10   3 -6.4774 3.25876   2
  -2  11   3 96.0757 8.26770   1
  -1  11   3 229.386 10.9755   1
   0  11   3 196.437 9.65863   1
   1  11   3 35.2278 4.80624   1
   2  11   3 15.8180 3.95964   1
   3  11   3 15.3248 3.68659   1
   4  11   3 63.2571 7.04508   1
   3  11  -4 114.521 8.25759   1
   2  11  -4 12.3424 3.68282   1
   1  11  -4 159.413 7.96614   1
   0  11  -4 14.0282 3.45499   1
  -1  11  -4 50.5401 5.35502   1
  -2  11  -4 121.184 7.22716   1
   5  10  -4 225.435 11.0664   1
   4  10  -4 162.678 8.50019   1
   3  10  -4 -2.1907 2.84303   1
   1  10  -4 253.841 9.37616   1
   0  10  -4 28.7334 3.75790   1
  -1  10  -4 3.03413 2.24153   1
  -2  10  -4 98.9597 5.60554   1
   6   9  -4 273.434 11.9617   1
   5   9  -4 131.163 7.53500   1
   5   9  -4 103.343 6.14952   2
   4   9  -4 12.7721 2.16218   2
   4   9  -4 11.5135 2.88248   1
   3   9  -4 5.79220 0.64286   2
   3   9  -4 8.15125 1.06890   2
   3   9  -4 6.47661 2.33762   1
   2   9  -4 61.8568 4.23677   1
   1   9  -4 199.965 7.54280   1
   0   9  -4 205.264 7.57145   1
  -1   9  -4 20.0380 2.83043   1
  -2   9  -4 79.2318 4.61781   1
  -5   9  -4 480.407 16.3387   1
  -5   9  -4 445.614 12.3754   2
  -6   9  -4 145.892 6.73087   2
  -7   9  -4 30.6440 4.40327   2
   7   8  -4 44.9164 7.22149   1
   6   8  -4 341.206 12.5455   1
   6   8  -4 299.628 11.8959   2
   5   8  -4 140.214 7.10452   1
   5   8  -4 114.272 6.21636   2
  -5  -8   4 124.523 11.2070   1
   4   8  -4 2.66532 1.98064   1
   4   8  -4 3.85954 2.92230   2
  -4  -8   4 1.24665 2.01124   2
   3   8  -4 118.849 5.60626   1
   3   8  -4 119.609 4.36099   2
   2   8  -4 0.93518 1.49981   1
   1   8  -4 14.9983 2.29063   1
   0   8  -4 810.913 22.2732   1
  -1   8  -4 3.28265 1.24409   1
  -2   8  -4 -0.9763 1.29740   1
  -4   8  -4 486.830 12.5968   2
  -5   8  -4 124.014 5.38608   2
  -5   8  -4 132.676 7.84276   1
   5  -8   4 132.791 5.72042   2
   5  -8   4 133.282 5.93440   2
  -6   8  -4 48.1929 6.21006   1
  -6   8  -4 49.5124 4.47732   2
   6  -8   4 54.1009 6.66869   2
   7   7  -4 68.0241 6.60507   1
   7   7  -4 57.9236 7.01701   2
   6   7  -4 92.2269 6.08339   1
   6   7  -4 99.5587 6.61665   2
  -6  -7   4 97.9726 6.24069   2
   5   7  -4 36.7255 4.83317   2
   5   7  -4 37.4929 4.14075   2
   5   7  -4 42.9134 3.98806   1
  -5  -7   4 36.4571 3.71818   2
  -5  -7   4 39.3738 6.22746   1
   4   7  -4 207.222 7.90163   1
   4   7  -4 202.226 7.34704   2
   4   7  -4 194.357 8.12603   2
  -4  -7   4 201.519 9.47520   1
   3   7  -4 40.6073 3.00328   1
   3   7  -4 35.9473 2.61177   2
   3   7  -4 36.8857 3.61798   2
  -3  -7   4 36.9466 2.77287   2
   2   7  -4 368.163 11.4557   1
   2   7  -4 386.451 9.72358   2
   1   7  -4 49.1979 2.86124   1
   0   7  -4 817.161 22.0477   1
  -1   7  -4 168.562 5.94643   1
  -3   7  -4 523.607 12.9951   2
  -4   7  -4 766.635 20.1335   2
   4  -7   4 811.328 19.7312   2
   4  -7   4 839.352 19.8916   2
  -5   7  -4 6.26049 2.92869   1
  -5   7  -4 3.87329 1.76465   2
   5  -7   4 7.83885 2.50062   2
  -6   7  -4 1.67461 3.58696   1
  -6   7  -4 -2.1221 1.91873   2
   6  -7   4 5.46999 3.44539   2
   6  -7   4 3.97247 2.45173   2
  -7   7  -4 499.881 15.4780   2
  -7   7  -4 468.343 17.5939   1
  -8   7  -4 -2.7753 3.54010   2
   7   6  -4 82.1100 7.19045   2
   7   6  -4 87.6191 6.46175   1
  -7  -6   4 86.1641 6.75400   2
   6   6  -4 8.73528 4.50237   2
   6   6  -4 1.85063 2.27677   1
   6   6  -4 4.20015 2.48452   2
  -6  -6   4 2.80566 5.75212   1
  -6  -6   4 6.85617 2.42522   2
   5   6  -4 98.6131 5.45054   2
   5   6  -4 91.6909 6.75657   2
   5   6  -4 97.4701 5.36502   1
  -5  -6   4 87.9338 4.97064   2
  -5  -6   4 91.0734 7.87125   1
   4   6  -4 29.0646 2.87138   2
   4   6  -4 29.5421 2.96161   1
   4   6  -4 26.6838 3.31026   2
  -4  -6   4 33.0292 4.21279   1
  -4  -6   4 24.8950 2.60579   2
   3   6  -4 25.4766 3.21892   2
   3   6  -4 19.9188 2.13196   2
   3   6  -4 23.9320 2.25321   1
  -3  -6   4 22.5567 3.49331   1
   2   6  -4 936.131 22.7247   2
   2   6  -4 914.866 22.8625   2
   2   6  -4 984.870 25.3019   1
  -2  -6   4 928.043 22.2695   2
   1   6  -4 183.170 6.05555   1
   1   6  -4 176.320 5.13577   2
   1   6  -4 189.588 4.95243   2
   0   6  -4 230.604 7.12041   1
  -1   6  -4 273.434 8.23780   1
  -2   6  -4 1466.27 33.8561   2
  -3   6  -4 450.895 12.1763   2
   3  -6   4 478.099 11.8223   2
   3  -6   4 494.992 11.9954   2
  -4   6  -4 596.788 16.1542   2
   4  -6   4 643.977 15.9525   2
  -5   6  -4 241.264 8.04300   2
  -5   6  -4 232.895 8.75617   1
   5  -6   4 244.806 8.08982   2
   5  -6   4 228.805 8.20242   2
  -6   6  -4 53.8381 5.63096   1
  -6   6  -4 68.7620 4.46440   2
   6  -6   4 51.6571 5.83702   2
   6  -6   4 66.9174 4.62423   2
  -7   6  -4 279.609 12.1024   1
  -7   6  -4 305.904 10.7896   2
   7  -6   4 302.197 11.1004   2
  -8   6  -4 59.2158 5.83748   2
   8   5  -4 138.627 8.90177   2
   7   5  -4 110.627 7.44327   2
   7   5  -4 121.566 11.1101   2
  -7  -5   4 134.045 7.76359   2
   6   5  -4 120.466 8.52258   2
   6   5  -4 114.118 6.16489   1
   6   5  -4 119.817 6.43368   2
  -6  -5   4 89.4383 9.36179   1
  -6  -5   4 109.445 6.15377   2
   5   5  -4 48.0260 5.57875   2
   5   5  -4 51.9482 3.66488   1
  -5  -5   4 38.2557 3.56389   2
  -5  -5   4 47.3717 6.10159   1
   4   5  -4 118.569 5.94926   2
   4   5  -4 125.102 5.38736   1
   4   5  -4 118.681 5.27262   2
  -4  -5   4 120.047 6.38835   1
  -4  -5   4 119.461 4.97636   2
   3   5  -4 318.942 10.1406   1
   3   5  -4 319.309 9.59776   2
   3   5  -4 335.500 9.83903   2
  -3  -5   4 321.214 9.25127   2
  -3  -5   4 336.715 10.6862   1
   2   5  -4 2453.95 63.6371   1
   2   5  -4 2560.33 58.2205   2
   2   5  -4 2511.74 58.2427   2
  -2  -5   4 2502.55 63.8454   1
   1   5  -4 439.526 12.4276   1
   1   5  -4 444.084 11.2686   2
   1   5  -4 456.665 11.2413   2
  -1  -5   4 460.970 10.9265   2
   0   5  -4 161.058 4.26178   2
   0   5  -4 162.873 5.07828   1
  -1   5  -4 208.279 5.27289   2
  -1   5  -4 201.768 6.15697   1
  -2   5  -4 2414.28 55.4503   2
   2  -5   4 2436.92 55.8855   2
   2  -5   4 2383.22 55.1757   2
  -3   5  -4 35.9613 2.12301   2
   3  -5   4 38.6286 2.29855   2
  -4   5  -4 137.879 5.47613   1
  -4   5  -4 135.878 5.20324   2
   4  -5   4 153.175 5.46224   2
  -5   5  -4 303.693 9.63852   2
   5  -5   4 313.190 9.80906   2
   5  -5   4 300.443 9.79768   2
  -6   5  -4 58.5023 5.15542   1
  -6   5  -4 57.9927 4.05225   2
   6  -5   4 59.7637 4.32339   2
   6  -5   4 48.9350 5.47169   2
  -7   5  -4 163.446 8.55453   1
  -7   5  -4 171.075 7.46243   2
   7  -5   4 155.853 9.02186   2
   7  -5   4 172.132 8.07086   2
  -8   5  -4 197.593 8.68785   2
   8  -5   4 191.774 9.27429   2
  -9   5  -4 8.39450 3.80408   2
  -9  -4   4 6.22140 5.55909   2
   8   4  -4 31.4066 8.43188   2
   8   4  -4 28.8343 4.75804   2
  -8  -4   4 28.9441 4.65680   2
   7   4  -4 418.337 14.7869   2
   7   4  -4 414.124 16.2054   2
  -7  -4   4 418.724 14.3427   2
   6   4  -4 8.17174 2.18532   2
   6   4  -4 6.53740 3.91065   2
  -6  -4   4 5.19641 2.19634   2
  -6  -4   4 9.95113 4.38896   1
   5   4  -4 11.2758 2.13138   1
   5   4  -4 11.5543 2.30314   2
   5   4  -4 9.94242 3.00834   2
  -5  -4   4 9.03586 3.31062   1
  -5  -4   4 10.4994 2.00780   2
   4   4  -4 564.135 16.1592   2
   4   4  -4 586.023 16.2089   2
   4   4  -4 574.985 16.8706   1
  -4  -4   4 595.116 15.8892   2
   3   4  -4 1039.97 25.7160   2
   3   4  -4 1065.58 25.8875   2
   3   4  -4 994.895 27.5626   1
  -3  -4   4 1050.72 25.4632   2
  -3  -4   4 1026.44 25.7235   2
  -3  -4   4 1023.82 27.9277   1
   2   4  -4 450.562 11.7985   2
   2   4  -4 435.739 11.7273   2
   2   4  -4 445.774 12.5268   1
  -2  -4   4 447.165 11.8226   2
  -2  -4   4 442.862 12.6561   1
   1   4  -4 110.736 3.61089   2
   1   4  -4 108.760 3.73921   1
   1   4  -4 111.251 3.66626   2
  -1  -4   4 115.423 3.73446   2
  -1  -4   4 111.664 3.92524   1
   0   4  -4 1287.84 32.3392   1
   0   4  -4 1293.67 29.6394   2
   0   4  -4 1271.50 29.5875   2
   0  -4   4 1253.04 29.4649   2
  -1   4  -4 136.329 3.86504   2
  -1   4  -4 136.527 3.87532   2
  -1   4  -4 140.891 4.17667   1
   1  -4   4 136.107 3.80071   2
  -2   4  -4 1326.17 31.2372   2
   2  -4   4 1339.87 31.0587   2
  -3   4  -4 2.11089 0.71335   2
   3  -4   4 0.52841 0.86178   2
  -4   4  -4 100.634 4.21881   2
  -4   4  -4 97.3711 4.27579   1
   4  -4   4 104.718 4.34250   2
   4  -4   4 100.533 4.38761   2
  -5   4  -4 96.8680 4.51830   2
  -5   4  -4 90.1612 4.68881   1
   5  -4   4 101.972 4.73729   2
   5  -4   4 92.1621 4.96231   2
  -6   4  -4 27.1951 3.02642   2
  -6   4  -4 24.9294 3.86387   1
   6  -4   4 28.0282 3.56975   2
   6  -4   4 26.5047 3.22183   2
  -7   4  -4 23.6919 3.79770   1
  -7   4  -4 21.5341 3.09167   2
   7  -4   4 30.5175 3.76587   2
   7  -4   4 25.0206 4.44556   2
  -8   4  -4 225.988 9.33409   2
  -8   4  -4 220.114 10.5359   1
   8  -4   4 223.677 10.0522   2
  -9   4  -4 0.39349 3.08106   2
   9  -4   4 -0.1538 3.94514   2
  -9  -3   4 82.6757 9.14015   2
   8   3  -4 11.4275 6.97811   2
   8   3  -4 3.04758 3.29432   2
  -8  -3   4 0.90351 3.44263   2
   7   3  -4 417.704 14.7212   2
   7   3  -4 406.245 15.5010   2
  -7  -3   4 418.711 16.3755   1
  -7  -3   4 424.103 14.2452   2
   6   3  -4 23.8103 3.37432   2
   6   3  -4 30.8723 4.55201   2
  -6  -3   4 25.9675 4.45907   1
  -6  -3   4 29.2312 3.65246   2
   5   3  -4 400.685 12.7984   2
   5   3  -4 400.920 12.8509   2
  -5  -3   4 405.904 12.4177   2
  -5  -3   4 400.500 12.9414   2
  -5  -3   4 406.212 13.7027   1
   4   3  -4 1402.75 34.1109   2
   4   3  -4 1390.17 36.5180   1
   4   3  -4 1373.54 34.3071   2
  -4  -3   4 1355.02 33.8113   2
  -4  -3   4 1373.47 36.9693   1
  -4  -3   4 1349.60 34.0196   2
   3   3  -4 1278.56 31.6462   2
   3   3  -4 1271.42 31.8526   2
   3   3  -4 1333.75 34.2215   1
  -3  -3   4 1322.22 31.8224   2
  -3  -3   4 1304.26 31.5726   2
  -3  -3   4 1301.54 34.4657   1
   2   3  -4 4.50655 1.15987   2
   2   3  -4 5.73294 1.00606   2
   2   3  -4 4.69362 0.88631   1
  -2  -3   4 4.03684 1.25212   2
  -2  -3   4 6.01527 1.21591   1
  -2  -3   4 4.04170 0.88298   2
   1   3  -4 12.6385 1.12739   2
   1   3  -4 15.7226 1.43920   2
   1   3  -4 15.6460 1.07911   1
  -1  -3   4 13.7018 1.46520   2
  -1  -3   4 14.2181 1.22482   1
   0   3  -4 4604.79 106.659   2
   0   3  -4 4561.56 106.581   2
   0  -3   4 4438.45 104.801   2
  -1   3  -4 1.10410 0.51273   2
  -1   3  -4 1.70756 0.43614   2
   1  -3   4 1.79332 0.56129   2
  -2   3  -4 62.7189 2.42341   2
   2  -3   4 62.4046 2.50883   2
  -3   3  -4 2.44368 0.76582   2
  -3   3  -4 1.55915 0.83871   1
   3  -3   4 0.05265 0.89444   2
  -4   3  -4 388.702 10.8133   2
  -4   3  -4 375.160 11.1266   1
   4  -3   4 384.359 10.8907   2
   4  -3   4 370.045 10.6789   2
  -5   3  -4 488.903 13.6177   2
  -5   3  -4 461.503 14.0038   1
   5  -3   4 482.783 13.6924   2
   5  -3   4 477.381 13.7240   2
  -6   3  -4 475.168 14.1691   2
  -6   3  -4 466.960 14.6278   1
   6  -3   4 488.930 14.4465   2
   6  -3   4 486.132 14.4944   2
  -7   3  -4 142.282 7.18898   1
  -7   3  -4 145.480 6.60530   2
   7  -3   4 142.175 6.90633   2
   7  -3   4 138.278 7.85367   2
  -8   3  -4 106.799 6.12016   2
  -8   3  -4 124.001 8.07964   1
   8  -3   4 115.258 7.00135   2
  -9   3  -4 18.2184 3.22883   2
   9  -3   4 2.24941 3.44640   2
  10  -3   4 612.917 21.4091   2
  -9  -2   4 410.633 16.1616   2
   8   2  -4 60.7928 6.14159   2
  -8  -2   4 45.5977 5.76824   2
   7   2  -4 118.675 8.98416   2
   7   2  -4 113.010 6.89962   2
  -7  -2   4 123.027 6.87706   2
  -7  -2   4 111.311 8.18202   1
   6   2  -4 133.664 7.83282   2
   6   2  -4 129.452 6.54703   2
  -6  -2   4 136.750 7.51888   1
  -6  -2   4 132.104 6.31758   2
   5   2  -4 1488.56 38.5351   2
   5   2  -4 1598.52 38.4264   2
  -5  -2   4 1566.19 41.3019   1
  -5  -2   4 1527.58 38.3497   2
  -5  -2   4 1470.10 37.9952   2
   4   2  -4 603.379 16.4967   2
   4   2  -4 609.405 16.6937   2
  -4  -2   4 587.436 16.5222   2
  -4  -2   4 596.721 16.2788   2
  -4  -2   4 590.148 17.4838   1
   3   2  -4 516.844 14.1814   2
   3   2  -4 518.718 14.0125   2
  -3  -2   4 518.594 14.1450   2
  -3  -2   4 511.616 14.9735   1
  -3  -2   4 532.671 13.9910   2
   2   2  -4 303.470 8.75485   2
   2   2  -4 329.319 8.79417   2
  -2  -2   4 315.411 8.82764   2
  -2  -2   4 301.785 8.57052   2
  -2  -2   4 295.280 9.12095   1
   1   2  -4 18.7205 1.30873   2
   1   2  -4 17.3587 1.48085   2
  -1  -2   4 16.6846 1.30165   1
  -1  -2   4 17.1369 1.23559   2
  -1  -2   4 18.6928 1.54016   2
   0   2  -4 2002.68 47.2824   2
   0   2  -4 2057.86 48.2815   2
   0  -2   4 1971.58 51.3383   1
   0  -2   4 2083.57 48.0435   2
  -1   2  -4 31.1698 1.48127   2
  -1   2  -4 29.7181 1.49681   2
   1  -2   4 30.7458 1.59653   2
  -2   2  -4 54.7708 2.25021   2
  -2   2  -4 51.5829 2.00272   1
   2  -2   4 54.7626 2.36143   2
  -3   2  -4 5.28794 0.99295   1
  -3   2  -4 5.64446 0.99077   2
   3  -2   4 4.09429 1.04870   2
  -4   2  -4 85.1475 3.64837   2
  -4   2  -4 87.0607 3.77526   1
   4  -2   4 84.6762 3.91836   2
  -5   2  -4 545.455 15.1006   2
  -5   2  -4 550.950 15.7782   1
   5  -2   4 548.043 15.3124   2
   5  -2   4 541.528 15.1834   2
  -6   2  -4 350.663 11.2709   1
  -6   2  -4 336.555 10.8592   2
   6  -2   4 334.460 11.2169   2
   6  -2   4 336.882 11.1248   2
  -7   2  -4 41.7839 4.69802   1
   7  -2   4 43.0912 5.16596   2
   7  -2   4 40.4258 3.84033   2
  -8   2  -4 75.6522 5.28508   2
  -8   2  -4 68.9538 6.93453   1
   8  -2   4 70.0976 7.68056   2
   8  -2   4 65.7303 5.54767   2
  -9   2  -4 62.7199 5.31346   2
   9  -2   4 45.3128 5.44346   2
  10  -2   4 588.254 20.2616   2
   9   1  -4 427.411 17.1254   2
  -9  -1   4 428.723 16.5577   2
   8   1  -4 33.9165 4.76814   2
  -8  -1   4 43.2998 5.49325   2
   7   1  -4 25.9600 3.68325   2
   7   1  -4 17.7079 4.90949   2
  -7  -1   4 18.0530 4.45798   1
  -7  -1   4 24.8315 3.56801   2
   6   1  -4 537.463 16.6563   2
  -6  -1   4 525.932 16.0937   2
  -6  -1   4 503.531 16.5606   2
  -6  -1   4 558.805 17.2358   1
   5   1  -4 1289.09 33.4135   2
   5   1  -4 1327.45 33.3862   2
  -5  -1   4 1249.85 32.8549   2
  -5  -1   4 1289.19 33.1731   2
  -5  -1   4 1348.28 35.4754   1
   4   1  -4 211.600 7.61722   2
   4   1  -4 212.584 7.57712   2
  -4  -1   4 218.270 7.44276   2
  -4  -1   4 210.363 7.74014   1
   3   1  -4 69.7435 3.59727   2
   3   1  -4 72.9750 3.49843   2
  -3  -1   4 70.4982 3.34478   2
  -3  -1   4 71.8874 3.56606   1
  -3  -1   4 68.8120 3.69825   2
   2   1  -4 1650.09 38.6122   2
   2   1  -4 1688.20 38.4432   2
  -2  -1   4 1584.58 38.4424   2
  -2  -1   4 1555.63 41.5367   1
  -2  -1   4 1632.81 38.3821   2
   1   1  -4 124.440 4.05709   2
   1   1  -4 117.925 4.00175   2
  -1  -1   4 121.820 4.10537   2
  -1  -1   4 116.320 3.89120   1
  -1  -1   4 128.035 4.02518   2
   0   1  -4 869.045 20.4058   2
   0   1  -4 865.912 20.4774   2
   0  -1   4 842.150 20.4380   2
   0  -1   4 842.614 20.3163   2
  -1   1  -4 764.857 17.9755   2
  -1   1  -4 774.696 18.1040   2
   1  -1   4 707.949 19.3768   1
   1  -1   4 758.384 18.0833   2
  -2   1  -4 142.883 4.25337   1
  -2   1  -4 147.724 4.45433   2
   2  -1   4 141.580 4.46600   2
   2  -1   4 141.441 4.32579   1
  -3   1  -4 70.2807 2.96987   2
  -3   1  -4 69.7779 2.90986   1
   3  -1   4 77.4394 2.98792   1
   3  -1   4 67.8914 3.09520   2
  -4   1  -4 802.693 21.8306   1
  -4   1  -4 822.013 20.5788   2
   4  -1   4 818.152 20.6098   2
   4  -1   4 806.207 21.9930   1
  -5   1  -4 999.028 27.1727   1
  -5   1  -4 1018.92 25.5672   2
   5  -1   4 1022.93 27.4179   1
   5  -1   4 983.330 25.5727   2
  -6   1  -4 847.818 23.6287   1
  -6   1  -4 815.752 22.2249   2
   6  -1   4 851.026 22.6226   2
   6  -1   4 834.986 22.4797   2
  -7   1  -4 108.310 6.28903   1
  -7   1  -4 105.208 5.41994   2
   7  -1   4 97.1505 6.53219   2
   7  -1   4 109.617 5.95287   2
  -8   1  -4 606.109 19.6564   1
  -8   1  -4 627.779 18.5816   2
   8  -1   4 616.346 18.9396   2
   8  -1   4 621.240 19.4278   2
  -9   1  -4 3.31234 2.64129   2
   9  -1   4 -2.4694 2.79265   2
 -10   1  -4 473.121 16.5756   2
  10  -1   4 450.027 17.1306   2
   9   0  -4 303.982 14.0074   2
  -9   0   4 324.849 13.6626   2
   8   0  -4 51.3450 6.04775   2
  -8   0   4 59.2961 5.96682   2
   7   0  -4 514.501 17.4919   2
   7   0  -4 521.393 17.0422   2
  -7   0   4 523.187 16.5851   2
  -7   0   4 503.475 17.3292   1
   6   0  -4 89.1435 6.57487   2
   6   0  -4 73.3670 4.96440   2
  -6   0   4 82.7626 5.67117   1
  -6   0   4 84.5237 6.78917   2
  -6   0   4 80.0038 5.02832   2
   5   0  -4 1061.23 29.0236   2
   5   0  -4 1189.80 29.1111   2
  -5   0   4 1077.64 28.9690   2
  -5   0   4 1098.05 30.6497   1
  -5   0   4 1147.52 28.9038   2
   4   0  -4 8.58061 1.55218   2
   4   0  -4 8.78256 1.91855   2
  -4   0   4 8.67080 1.57724   2
  -4   0   4 6.88116 1.88485   1
  -4   0   4 9.32652 2.16588   2
   3   0  -4 171.481 6.11781   2
   3   0  -4 170.397 6.07785   2
  -3   0   4 175.014 6.17253   1
  -3   0   4 173.624 6.01481   2
  -3   0   4 176.815 6.31687   2
   2   0  -4 928.598 22.3457   2
   2   0  -4 926.367 22.5417   2
  -2   0   4 905.249 22.3235   2
  -2   0   4 867.995 22.3426   2
   1   0  -4 42.3261 2.16946   2
   1   0  -4 37.0607 1.98333   2
  -1   0   4 41.0722 2.21411   2
  -1   0   4 40.4352 2.02996   2
   0   0  -4 1351.50 30.8748   2
   0   0  -4 1330.02 30.9324   2
   0   0   4 1267.68 30.7581   2
   0   0   4 1307.73 30.9078   2
  -1   0  -4 1488.92 34.0744   2
  -1   0  -4 1458.60 33.9281   2
   1   0   4 1432.78 38.2491   1
   1   0   4 1447.51 34.0437   2
  -2   0  -4 32.1215 1.67394   2
  -2   0  -4 32.9658 1.60158   1
   2   0   4 32.7994 1.47527   1
   2   0   4 31.6382 1.84361   2
  -3   0  -4 1022.00 24.1984   2
  -3   0  -4 1002.59 25.9141   1
   3   0   4 952.295 24.0976   2
   3   0   4 996.848 25.8680   1
  -4   0  -4 503.119 13.5174   2
  -4   0  -4 507.718 14.3101   1
   4   0   4 516.748 14.3101   1
   4   0   4 483.133 13.5234   2
  -5   0  -4 1339.74 33.1337   2
  -5   0  -4 1342.99 35.6559   1
   5   0   4 1356.55 35.6880   1
   5   0   4 1334.79 33.2239   2
  -6   0  -4 21.4001 2.41304   2
  -6   0  -4 20.2623 3.08952   1
   6   0   4 16.1892 2.27405   1
   6   0   4 20.0888 3.00602   2
   6   0   4 16.7410 2.41962   2
  -7   0  -4 81.3701 4.81792   2
  -7   0  -4 97.1460 6.13016   1
   7   0   4 83.9721 5.18340   2
   7   0   4 85.1825 6.17388   2
   7   0   4 88.5090 4.98051   1
  -8   0  -4 1358.85 37.9021   1
  -8   0  -4 1366.39 35.4052   2
   8   0   4 1333.76 35.9042   2
  -9   0  -4 18.5058 3.44338   2
   9   0   4 13.8876 3.54087   2
 -10   0  -4 154.564 8.83329   2
  10   0   4 127.980 9.26565   2
   9  -1  -4 -7.8310 4.91460   2
  -9   1   4 19.1822 5.03976   2
   8  -1  -4 39.3678 5.22221   2
  -8   1   4 52.2885 5.99047   2
   7  -1  -4 796.555 24.3786   2
   7  -1  -4 872.698 24.6678   2
  -7   1   4 839.590 25.0597   2
  -7   1   4 808.257 25.3022   1
  -7   1   4 855.867 24.0607   2
   6  -1  -4 80.5590 5.14443   2
   6  -1  -4 75.5272 6.29479   2
  -6   1   4 74.1808 5.56439   1
  -6   1   4 81.0136 6.82127   2
  -6   1   4 85.8209 5.16663   2
   5  -1  -4 147.339 6.90562   2
   5  -1  -4 142.870 6.42421   2
  -5   1   4 145.787 6.74104   1
  -5   1   4 150.324 7.22881   2
  -5   1   4 147.703 6.32152   2
   4  -1  -4 61.2489 3.71643   2
  -4   1   4 62.0263 3.61418   2
  -4   1   4 66.8516 4.36530   2
   3  -1  -4 424.762 12.1566   2
   3  -1  -4 429.186 11.9732   2
  -3   1   4 427.865 12.0019   2
  -3   1   4 422.523 12.1668   2
   2  -1  -4 746.031 18.9479   2
   2  -1  -4 749.758 18.7749   2
  -2   1   4 747.810 18.9344   2
  -2   1   4 747.764 18.8315   2
   1  -1  -4 568.100 14.1294   2
   1  -1  -4 570.206 14.2466   2
  -1   1   4 558.764 14.2264   2
  -1   1   4 527.868 14.0351   2
   0  -1  -4 759.351 18.2652   2
   0  -1  -4 734.416 18.1452   2
   0   1   4 734.414 18.1099   2
   0   1   4 765.339 18.3066   2
  -1  -1  -4 451.721 11.5443   2
  -1  -1  -4 481.807 11.7091   2
   1   1   4 443.311 12.3235   1
   1   1   4 465.247 11.7157   2
  -2  -1  -4 256.187 7.05072   2
  -2  -1  -4 251.776 7.40629   1
   2   1   4 251.767 7.31030   1
   2   1   4 249.078 7.10276   2
  -3  -1  -4 1638.08 42.1984   1
  -3  -1  -4 1627.24 38.8376   2
   3   1   4 1665.17 38.9451   2
   3   1   4 1649.20 42.0715   1
  -4  -1  -4 1230.99 31.5737   1
  -4  -1  -4 1201.28 29.1574   2
   4   1   4 1204.90 31.3221   1
   4   1   4 1127.05 29.0965   2
  -5  -1  -4 804.128 20.7462   2
  -5  -1  -4 813.519 22.2971   1
   5   1   4 778.488 21.9582   1
   5   1   4 778.105 20.8216   2
  -6  -1  -4 611.618 18.3196   1
  -6  -1  -4 619.169 17.1264   2
   6   1   4 586.233 17.2971   2
   6   1   4 608.647 17.3767   2
   6   1   4 618.995 18.0193   1
  -7  -1  -4 168.437 8.03728   1
  -7  -1  -4 160.376 7.00710   2
   7   1   4 148.358 7.07535   2
   7   1   4 160.607 8.15490   2
   7   1   4 166.312 7.12289   1
  -8  -1  -4 1087.02 29.0866   2
  -8  -1  -4 1061.34 31.3694   1
   8   1   4 1060.91 29.7277   2
   8   1   4 1113.09 30.8622   1
   8   1   4 1060.59 29.4368   2
  -9  -1  -4 1.65831 2.59397   2
   9   1   4 -1.6244 2.71425   2
 -10  -1  -4 18.3643 4.14659   2
  10   1   4 7.20807 4.05602   2
   9  -2  -4 26.8023 6.17169   2
   8  -2  -4 -3.7698 3.50939   2
  -8   2   4 7.56703 3.45524   2
   7  -2  -4 954.992 27.0638   2
  -7   2   4 923.813 26.3649   2
  -7   2   4 929.578 27.6106   2
   6  -2  -4 9.42845 3.31200   2
   6  -2  -4 7.35949 2.18245   2
  -6   2   4 14.7571 3.33950   1
  -6   2   4 6.60231 3.73226   2
  -6   2   4 13.7653 2.53011   2
   5  -2  -4 71.8483 5.19256   2
   5  -2  -4 67.8675 4.52638   2
  -5   2   4 70.7983 4.32925   2
  -5   2   4 71.2274 4.82593   1
  -5   2   4 72.9984 5.56167   2
   4  -2  -4 6.32019 1.89902   2
   4  -2  -4 7.03677 1.62278   2
  -4   2   4 4.64166 2.08526   2
  -4   2   4 4.72371 1.38027   2
   3  -2  -4 88.2355 4.08128   2
   3  -2  -4 89.7821 4.12175   2
  -3   2   4 84.2705 3.91063   2
  -3   2   4 85.3644 4.33744   2
   2  -2  -4 450.255 12.2302   2
   2  -2  -4 446.622 12.0545   2
  -2   2   4 446.617 12.2438   2
  -2   2   4 447.127 12.1255   2
   1  -2  -4 2288.00 52.1864   2
   1  -2  -4 2115.15 51.9011   2
  -1   2   4 2273.39 52.1769   2
  -1   2   4 2265.16 52.0888   2
   0  -2  -4 435.928 10.8603   2
   0  -2  -4 432.680 10.9016   2
   0   2   4 408.448 10.8860   2
   0   2   4 394.090 10.6718   2
  -1  -2  -4 22.3074 1.54642   2
  -1  -2  -4 23.9477 1.48681   2
   1   2   4 22.3993 1.71566   2
  -2  -2  -4 275.149 8.13046   1
  -2  -2  -4 273.918 7.45773   2
   2   2   4 261.711 7.54044   2
   2   2   4 256.803 7.93229   1
  -3  -2  -4 3706.73 87.4842   2
  -3  -2  -4 3886.64 99.7869   1
   3   2   4 3816.54 99.2390   1
   3   2   4 3806.42 87.6390   2
  -4  -2  -4 90.1532 3.86519   2
  -4  -2  -4 94.1809 4.41671   1
   4   2   4 89.0611 3.90183   1
   4   2   4 95.8311 4.28905   2
  -5  -2  -4 187.653 6.58040   2
  -5  -2  -4 174.478 7.16729   1
   5   2   4 179.420 6.58785   1
   5   2   4 173.317 6.83528   2
  -6  -2  -4 456.844 13.5014   2
  -6  -2  -4 453.979 14.6729   1
   6   2   4 450.436 14.0759   1
  -7  -2  -4 182.689 7.63464   2
  -7  -2  -4 171.782 8.71449   1
   7   2   4 182.778 7.79972   2
   7   2   4 190.919 7.79236   1
   7   2   4 187.593 8.92444   2
  -8  -2  -4 345.176 14.1645   1
   8   2   4 367.655 12.9416   1
   8   2   4 381.840 13.1597   2
   8   2   4 363.049 14.1487   2
  -9  -2  -4 9.11400 2.86653   2
   9   2   4 3.28357 2.97567   2
   9   2   4 4.73128 2.54224   1
 -10  -2  -4 93.0617 7.45832   2
  10   2   4 66.6569 7.77878   2
   9  -3  -4 292.778 14.8292   2
   8  -3  -4 10.1734 4.28181   2
  -8   3   4 17.9307 3.72909   2
   7  -3  -4 217.328 10.2028   2
  -7   3   4 218.320 9.50266   2
  -7   3   4 217.585 12.7391   2
   6  -3  -4 59.8950 6.26680   2
   6  -3  -4 65.4715 5.07746   2
  -6   3   4 65.7861 4.68141   2
  -6   3   4 66.5553 7.32709   2
  -6   3   4 55.7503 5.90031   1
   5  -3  -4 115.391 5.82374   2
   5  -3  -4 120.490 6.41820   2
  -5   3   4 122.817 6.22262   1
  -5   3   4 119.466 7.04655   2
  -5   3   4 116.474 5.63910   2
   4  -3  -4 208.233 7.65858   2
   4  -3  -4 210.021 7.64424   2
  -4   3   4 198.492 7.33240   2
  -4   3   4 196.351 7.84556   2
   3  -3  -4 103.111 4.94948   2
   3  -3  -4 113.262 4.79622   2
  -3   3   4 106.020 4.54800   2
  -3   3   4 110.847 5.08231   2
   2  -3  -4 561.866 15.0228   2
   2  -3  -4 574.172 15.2288   2
  -2   3   4 590.058 15.3405   2
  -2   3   4 588.085 15.2086   2
   1  -3  -4 710.077 18.0552   2
   1  -3  -4 727.862 17.9745   2
  -1   3   4 703.269 17.9763   2
  -1   3   4 742.720 18.1949   2
   0  -3  -4 449.124 11.7181   2
   0  -3  -4 468.763 11.8296   2
   0   3   4 444.076 11.8420   2
   0   3   4 453.116 11.6668   2
  -1  -3  -4 2051.83 49.6226   2
  -1  -3  -4 2186.39 49.6614   2
   1   3   4 2183.19 49.8397   2
  -2  -3  -4 347.637 9.16106   2
   2   3   4 334.140 10.0527   1
   2   3   4 323.836 9.23549   2
  -3  -3  -4 3080.98 78.6603   1
  -3  -3  -4 3122.04 71.6685   2
   3   3   4 3075.90 78.4693   1
   3   3   4 3102.36 71.7828   2
  -4  -3  -4 138.538 5.07101   2
  -4  -3  -4 137.525 5.77426   1
   4   3   4 138.670 5.33914   1
   4   3   4 128.607 5.30593   2
  -5  -3  -4 305.099 10.5209   1
  -5  -3  -4 305.592 9.53721   2
   5   3   4 306.666 9.96958   1
   5   3   4 293.626 9.88624   2
  -6  -3  -4 1538.18 42.0349   1
  -6  -3  -4 1535.74 38.3564   2
   6   3   4 1534.13 39.0091   2
   6   3   4 1567.59 41.3980   1
  -7  -3  -4 146.022 6.73260   2
  -7  -3  -4 148.317 8.14186   1
   7   3   4 145.494 6.78670   1
   7   3   4 157.852 8.44656   2
  -8  -3  -4 11.6827 4.79485   1
  -8  -3  -4 19.0350 3.10413   2
   8   3   4 25.8789 3.51364   2
   8   3   4 22.7233 3.36238   1
   8   3   4 21.3903 5.10155   2
  -9  -3  -4 47.4961 5.63242   2
   9   3   4 36.8615 7.74745   2
   9   3   4 46.3175 5.32185   2
   9   3   4 44.4348 4.93641   1
 -10  -3  -4 87.4446 7.66222   2
  10   3   4 71.4377 7.99134   2
   9  -4  -4 376.557 17.7489   2
   8  -4  -4 1.41075 4.47150   2
  -8   4   4 4.35958 3.82251   2
  -7   4   4 16.3168 6.36157   2
  -7   4   4 17.3788 3.29251   2
   6  -4  -4 137.071 7.49430   2
   6  -4  -4 122.122 8.23580   2
  -6   4   4 130.160 7.72195   1
  -6   4   4 137.117 6.92438   2
  -6   4   4 135.632 8.91804   2
   5  -4  -4 45.7425 5.13237   2
   5  -4  -4 45.5743 4.06115   2
   4  -4  -4 215.271 7.86456   2
   4  -4  -4 213.314 7.86239   2
  -4   4   4 216.010 8.44730   2
  -4   4   4 195.068 7.45411   2
   3  -4  -4 869.557 22.7234   2
   3  -4  -4 900.918 22.5788   2
  -3   4   4 894.525 22.9120   2
  -3   4   4 871.373 22.6901   2
   2  -4  -4 781.318 20.5573   2
   2  -4  -4 823.172 20.4819   2
  -2   4   4 806.450 20.7067   2
  -2   4   4 841.871 20.6910   2
   1  -4  -4 154.416 5.27343   2
   1  -4  -4 156.062 5.25395   2
  -1   4   4 161.481 5.26193   2
  -1   4   4 167.544 5.58881   2
   0  -4  -4 14.8451 1.70686   2
   0  -4  -4 15.1660 1.40332   2
   0   4   4 15.7387 1.87075   2
   0   4   4 13.8694 1.22511   2
  -1  -4  -4 4479.02 103.088   2
  -1  -4  -4 4409.31 103.043   2
   1   4   4 4121.99 110.252   1
   1   4   4 4515.85 102.112   2
  -2  -4  -4 133.629 4.47014   2
  -2  -4  -4 135.262 4.56792   2
   2   4   4 135.119 4.77553   2
   2   4   4 129.025 5.07422   1
  -3  -4  -4 429.117 13.3453   1
  -3  -4  -4 451.432 11.9269   2
   3   4   4 437.406 12.0729   2
   3   4   4 448.451 13.1819   1
  -4  -4  -4 219.901 7.25174   2
   4   4   4 225.553 7.68293   2
   4   4   4 234.721 7.99613   1
  -5  -4  -4 705.232 18.8723   2
  -5  -4  -4 700.557 20.9482   1
   5   4   4 708.720 20.3386   1
   5   4   4 713.057 19.2740   2
  -6  -4  -4 366.550 11.7134   2
  -6  -4  -4 385.236 13.5106   1
   6   4   4 373.187 12.4777   2
   6   4   4 383.248 12.4942   1
  -7  -4  -4 6.86211 2.02707   2
  -7  -4  -4 10.3015 3.84438   1
   7   4   4 5.92837 1.92145   1
   7   4   4 2.88404 3.44322   2
   7   4   4 5.06089 1.95263   2
  -8  -4  -4 4.34961 2.43371   2
   8   4   4 -0.9975 4.81295   2
   8   4   4 8.17478 2.41061   1
   8   4   4 11.7285 3.07171   2
  -9  -4  -4 -0.1374 3.09276   2
   9   4   4 10.8436 3.07728   1
   9   4   4 -4.3660 6.81832   2
   9   4   4 2.20864 3.11377   2
 -10  -4  -4 8.32132 4.66918   2
   8  -5  -4 89.3284 10.1763   2
  -7   5   4 -0.8436 2.81750   2
   6  -5  -4 58.6315 5.64891   2
  -6   5   4 67.3588 4.90369   2
  -6   5   4 54.7962 6.80701   2
   5  -5  -4 41.8889 5.72316   2
   5  -5  -4 41.4380 4.27760   2
  -5   5   4 50.5351 3.99207   2
   4  -5  -4 574.019 16.1726   2
   4  -5  -4 563.813 16.1283   2
  -4   5   4 560.960 16.4997   2
  -4   5   4 545.275 15.9461   2
   3  -5  -4 670.545 18.0697   2
   3  -5  -4 657.522 17.8896   2
  -3   5   4 685.492 18.3655   2
  -3   5   4 686.399 18.1193   2
   2  -5  -4 1184.09 28.5073   2
   2  -5  -4 1087.20 28.3239   2
  -2   5   4 1176.51 28.6270   2
  -2   5   4 1175.69 28.4920   2
   1  -5  -4 480.673 12.4602   2
   1  -5  -4 460.706 12.2981   2
  -1   5   4 451.199 12.5472   2
  -1   5   4 465.909 12.3518   2
   0  -5  -4 1.03288 0.64013   2
   0  -5  -4 0.83474 1.01147   2
   0   5   4 2.56397 1.11718   2
  -1  -5  -4 2504.33 57.4135   2
  -1  -5  -4 2459.56 57.3630   2
   1   5   4 2418.68 63.6980   1
   1   5   4 2521.16 57.6770   2
  -2  -5  -4 2.33823 0.77479   2
  -2  -5  -4 0.68719 0.98871   2
   2   5   4 0.87109 0.86379   1
   2   5   4 1.03968 1.14006   2
  -3  -5  -4 2.23550 0.89926   2
   3   5   4 2.19089 1.37313   2
   3   5   4 3.70778 1.11037   1
  -4  -5  -4 284.076 8.58346   2
  -4  -5  -4 284.426 10.0730   1
   4   5   4 268.061 9.33439   1
   4   5   4 257.440 8.78376   2
  -5  -5  -4 248.254 8.38261   2
  -5  -5  -4 249.515 9.91580   1
   5   5   4 245.989 9.01135   1
   5   5   4 249.332 9.00272   2
  -6  -5  -4 205.495 7.82097   2
  -6  -5  -4 213.412 9.76923   1
   6   5   4 212.586 9.03072   2
  -7  -5  -4 110.457 8.49083   1
  -7  -5  -4 126.494 6.36242   2
   7   5   4 116.050 6.14465   2
   7   5   4 127.120 6.43855   1
   7   5   4 104.893 8.00253   2
  -8  -5  -4 3.81630 2.68771   2
   8   5   4 5.68378 2.65545   2
   8   5   4 1.76275 2.36509   1
   8   5   4 -2.5569 5.52903   2
  -9  -5  -4 -0.6193 3.35131   2
   9   5   4 6.23079 3.44207   2
   9   5   4 -6.1924 7.60787   2
   9   5   4 3.02781 3.24051   1
 -10  -5  -4 12.1330 5.14758   2
   7  -6  -4 7.12137 4.41827   2
  -7   6   4 2.46877 3.42051   2
   6  -6  -4 10.8125 3.52252   2
  -6   6   4 10.9466 2.85551   2
  -6   6   4 11.9932 6.06078   2
   5  -6  -4 103.000 7.41072   2
   5  -6  -4 113.209 6.36853   2
  -5   6   4 105.365 5.77536   2
  -5   6   4 103.026 8.42311   2
   4  -6  -4 1298.73 33.9289   2
   4  -6  -4 1390.23 34.2043   2
  -4   6   4 1364.11 34.1863   2
  -4   6   4 1348.92 34.5090   2
   3  -6  -4 154.152 6.45404   2
   3  -6  -4 154.525 6.03917   2
  -3   6   4 149.944 6.82801   2
  -3   6   4 153.182 5.98657   2
   2  -6  -4 42.3870 2.77259   2
   2  -6  -4 45.3979 3.37775   2
  -2   6   4 43.4227 2.70232   2
  -2   6   4 41.8658 3.68295   2
   1  -6  -4 1524.61 35.2114   2
  -1   6   4 1482.79 35.1128   2
  -1   6   4 1403.25 35.2909   2
   0  -6  -4 186.631 5.98349   2
   0   6   4 193.658 6.32221   2
  -1  -6  -4 1271.52 30.0329   2
   1   6   4 1258.27 30.3564   2
   1   6   4 1247.59 34.0593   1
  -2  -6  -4 2.47287 1.22819   2
   2   6   4 1.27946 1.30570   2
   2   6   4 -0.4648 0.96228   1
  -3  -6  -4 263.855 7.85389   2
  -3  -6  -4 256.243 7.81882   2
   3   6   4 265.829 9.18657   1
   3   6   4 247.455 8.14584   2
  -4  -6  -4 124.138 4.93652   2
   4   6   4 112.908 5.55645   2
   4   6   4 115.928 5.40680   1
  -5  -6  -4 22.3840 2.71562   2
  -5  -6  -4 26.3814 4.07884   1
   5   6   4 17.5176 3.18455   2
  -6  -6  -4 281.144 9.92263   2
  -6  -6  -4 280.088 12.2730   1
   6   6   4 292.810 10.4040   2
   6   6   4 307.826 10.9831   1
   6   6   4 304.225 11.4014   2
  -7  -6  -4 150.552 7.15369   2
   7   6   4 147.634 9.51689   2
   7   6   4 151.813 7.32904   1
   7   6   4 158.370 7.57701   2
  -8  -6  -4 2.68301 3.16313   2
   8   6   4 11.0232 2.97881   1
   8   6   4 6.55047 3.07823   2
   8   6   4 2.44806 6.38490   2
  -9  -6  -4 233.078 10.8914   2
   6  -7  -4 222.357 10.2408   2
  -6   7   4 206.648 9.86088   2
   5  -7  -4 143.344 7.27765   2
  -5   7   4 121.637 9.64550   2
  -5   7   4 125.679 6.74763   2
   4  -7  -4 676.150 19.2747   2
  -4   7   4 678.460 19.7852   2
  -4   7   4 678.385 18.9188   2
   3  -7  -4 14.8743 3.00791   2
   3  -7  -4 15.3318 2.17261   2
  -3   7   4 16.0747 3.22860   2
   2  -7  -4 66.1779 4.20096   2
   2  -7  -4 61.1914 3.44434   2
  -2   7   4 62.9539 3.26911   2
  -2   7   4 61.3803 4.50819   2
  -1   7   4 703.197 17.9994   2
  -1   7   4 677.120 17.4464   2
   0   7   4 75.6271 3.89867   2
   1   7   4 25.7584 2.76550   1
   1   7   4 31.4846 2.89537   2
  -2  -7  -4 14.3555 1.89999   2
   2   7   4 13.1065 2.16250   1
   2   7   4 10.0181 1.84552   2
  -3  -7  -4 315.260 9.01377   2
   3   7   4 294.201 9.39765   2
   3   7   4 302.180 10.5948   1
  -4  -7  -4 144.625 5.59531   2
   4   7   4 141.307 6.42221   2
  -5  -7  -4 81.0427 4.59444   2
   5   7   4 83.4697 4.89474   1
   5   7   4 89.1021 6.16901   2
  -6  -7  -4 217.240 8.37257   2
   6   7   4 212.810 8.59873   2
   6   7   4 208.249 10.0388   2
   6   7   4 221.945 9.05529   1
  -7  -7  -4 16.9629 3.28873   2
   7   7   4 19.2717 5.87660   2
   7   7   4 12.1027 2.94064   2
   7   7   4 17.6715 3.23038   1
  -8  -7  -4 0.15150 3.38434   2
   8   7   4 -3.0019 3.37518   2
   8   7   4 1.56912 3.27343   1
  -6   8   4 552.276 17.8569   2
  -5   8   4 19.5245 3.25630   2
   4  -8  -4 186.961 7.74108   2
   4  -8  -4 173.167 9.54072   2
  -4   8   4 187.928 7.51151   2
  -4   8   4 205.379 10.3557   2
   3  -8  -4 187.212 8.31009   2
   3  -8  -4 204.962 7.43246   2
  -3   8   4 199.286 8.85446   2
  -3   8   4 188.522 6.99907   2
   2  -8  -4 190.551 7.24957   2
  -2   8   4 187.735 6.37766   2
  -2   8   4 182.355 7.55678   2
   1  -8  -4 667.792 16.7445   2
  -1   8   4 638.602 17.2291   2
   0  -8  -4 -1.3020 1.31421   2
   0  -8  -4 0.03283 1.46126   2
   0   8   4 1.57857 1.64753   2
  -1  -8  -4 0.93773 1.32451   2
  -1  -8  -4 2.10016 1.38277   2
   1   8   4 1.07485 1.57715   2
  -2  -8  -4 85.4322 4.00378   2
  -2  -8  -4 90.9789 4.04969   2
   2   8   4 88.7081 4.50034   2
  -3  -8  -4 48.6820 3.70864   2
   3   8   4 47.6960 4.14479   2
   3   8   4 53.9051 4.18034   1
  -4  -8  -4 351.347 10.6659   2
   4   8   4 357.063 12.5231   1
   4   8   4 358.106 11.3812   2
  -5  -8  -4 119.202 5.71497   2
   5   8   4 124.446 6.64063   1
   5   8   4 122.433 5.98661   2
   5   8   4 118.631 7.43683   2
  -6  -8  -4 106.356 6.01286   2
   6   8   4 109.174 6.53940   1
   6   8   4 103.855 6.10602   2
   6   8   4 112.033 9.08459   2
   7   8   4 46.1612 5.68147   2
   7   8   4 55.8740 5.60454   1
  -5   9   4 5.64548 3.09803   2
  -4   9   4 -0.7781 2.08296   2
   3  -9  -4 136.258 8.02106   2
  -3   9   4 147.569 5.91778   2
  -3   9   4 147.842 8.70726   2
   2  -9  -4 182.250 6.76542   2
   2  -9  -4 179.818 7.32707   2
  -2   9   4 195.113 8.27182   2
   1  -9  -4 234.829 7.43482   2
   1  -9  -4 245.286 7.18953   2
  -1   9   4 254.961 8.48484   2
   0  -9  -4 12.2667 1.64008   2
   0   9   4 11.6082 2.56902   1
  -1  -9  -4 38.6964 2.49522   2
   1   9   4 42.0593 4.24601   1
  -2  -9  -4 16.1010 1.94694   2
   2   9   4 18.7756 3.09468   1
   2   9   4 16.7012 2.57407   2
  -3  -9  -4 4.06123 2.12952   2
  -3  -9  -4 4.40721 2.01216   2
   3   9   4 5.35984 2.32499   2
   3   9   4 3.13051 2.02635   1
  -4  -9  -4 548.397 14.5965   2
   4   9   4 536.432 17.3784   1
   4   9   4 509.653 15.3272   2
  -5  -9  -4 36.4151 4.36813   2
   5   9   4 35.5465 5.37892   2
   5   9   4 40.1787 4.26490   2
   5   9   4 34.5817 4.74744   1
   6   9   4 7.71461 2.92072   2
   6   9   4 8.12795 3.39199   1
   7   9   4 254.606 11.2099   2
  -4  10   4 61.6019 5.13202   2
  -1  10   4 48.4447 5.60328   1
  -1  10   4 35.8308 3.44592   2
   0  10   4 122.079 7.43640   1
   0  10   4 117.353 4.52325   2
   1  10   4 16.9508 2.29901   2
   1  10   4 15.2043 2.93820   1
   2  10   4 188.234 9.00070   1
   2  10   4 183.979 5.94330   2
   3  10   4 17.1096 3.27644   1
   4  10   4 507.527 16.9327   1
   4  10   4 448.972 13.5759   2
   5  10   4 20.6634 4.00273   1
   5  10   4 19.2747 3.02200   2
   6  10   4 -3.9171 3.35730   2
  -2  11   4 18.2641 5.49057   1
  -1  11   4 53.7970 6.94627   1
   0  11   4 50.3227 5.84407   1
   1  11   4 35.5397 5.17228   1
   2  11   4 480.688 17.2793   1
   3  11   4 7.75534 3.49223   1
   4  10  -5 59.3282 6.44972   1
   3  10  -5 143.032 7.41738   1
   2  10  -5 0.72190 2.43088   1
   1  10  -5 386.850 12.5006   1
   0  10  -5 23.4098 3.60672   1
  -1  10  -5 67.5205 4.63718   1
  -2  10  -5 358.771 11.8725   1
   6   9  -5 18.7685 5.00778   1
   6   9  -5 18.9476 4.67726   2
   5   9  -5 53.5973 5.21246   2
   5   9  -5 59.4511 6.08934   1
   4   9  -5 8.80806 1.89930   2
   4   9  -5 5.95475 2.92488   1
   3   9  -5 454.044 13.6916   1
   3   9  -5 398.880 10.1949   2
   3   9  -5 395.818 10.1940   2
   2   9  -5 -0.5164 1.79799   1
   1   9  -5 215.980 7.80642   1
   0   9  -5 199.919 7.26756   1
  -2   9  -5 412.600 12.8486   1
  -3   9  -5 201.483 7.72525   1
  -5   9  -5 23.9484 3.24518   2
  -6   9  -5 252.839 8.92987   2
   6   8  -5 26.4237 4.52397   2
   6   8  -5 31.3344 4.66034   1
   5   8  -5 44.2728 4.82263   2
   5   8  -5 51.9603 5.01931   1
  -5  -8   5 44.6813 8.00499   1
   4   8  -5 9.75227 3.53595   2
   4   8  -5 5.47970 2.04375   2
   4   8  -5 5.70756 2.46949   1
  -4  -8   5 5.07741 2.40766   2
   3   8  -5 964.866 24.0158   2
   3   8  -5 1002.12 27.2651   1
   2   8  -5 70.4341 2.44948   2
   2   8  -5 68.6202 2.39334   2
   2   8  -5 68.5489 3.84604   1
   1   8  -5 4.78381 1.46199   1
   0   8  -5 293.222 9.16635   1
  -1   8  -5 876.255 23.6602   1
  -2   8  -5 254.345 8.39723   1
  -4   8  -5 218.827 6.49288   2
  -5   8  -5 -2.2691 3.30245   1
  -5   8  -5 -4.1639 1.65600   2
   5  -8   5 1.57556 2.09388   2
   5  -8   5 -0.4202 2.50494   2
  -6   8  -5 31.8206 4.38721   2
  -6   8  -5 32.7486 5.54932   1
   6  -8   5 51.2889 6.65136   2
  -7   8  -5 147.577 7.89267   2
   7   7  -5 22.0347 4.96869   2
   6   7  -5 13.0486 3.29332   1
   6   7  -5 -3.5948 3.11445   2
   5   7  -5 332.727 12.7566   2
   5   7  -5 338.668 11.5052   2
   5   7  -5 340.597 11.9220   1
  -5  -7   5 315.153 14.3316   1
  -5  -7   5 339.710 10.9150   2
   4   7  -5 171.274 6.75788   2
   4   7  -5 172.213 7.87515   2
   4   7  -5 175.475 7.24711   1
  -4  -7   5 170.027 8.93278   1
   3   7  -5 840.948 22.8837   1
   3   7  -5 801.488 20.9802   2
   3   7  -5 810.810 20.7033   2
  -3  -7   5 814.391 20.1423   2
   2   7  -5 274.052 7.56308   2
   2   7  -5 268.127 8.73401   1
   1   7  -5 459.457 13.0189   1
   1   7  -5 450.201 10.9387   2
   1   7  -5 451.992 10.8426   2
   0   7  -5 213.009 6.81321   1
  -1   7  -5 748.394 20.1096   1
  -2   7  -5 -0.4628 0.90341   1
  -3   7  -5 182.239 5.36071   2
  -4   7  -5 218.525 7.03585   2
   4  -7   5 225.899 6.80021   2
   4  -7   5 234.060 7.02064   2
  -5   7  -5 4.99988 2.80851   1
   5  -7   5 11.0552 2.58537   2
  -6   7  -5 18.5317 4.23024   1
  -6   7  -5 32.1147 3.74285   2
   6  -7   5 28.8395 3.53538   2
   6  -7   5 20.2225 3.84850   2
  -7   7  -5 228.150 11.7211   1
  -7   7  -5 235.542 9.48735   2
  -8   7  -5 0.49146 3.85759   2
   7   6  -5 -3.0535 3.60259   2
   6   6  -5 18.5341 3.36045   2
   6   6  -5 26.4952 5.68769   2
   6   6  -5 23.5357 3.46774   1
  -6  -6   5 22.5173 6.56776   1
  -6  -6   5 19.2110 3.48505   2
   5   6  -5 759.506 21.9938   1
   5   6  -5 774.305 21.3238   2
   5   6  -5 746.264 21.3682   2
  -5  -6   5 696.520 23.3662   1
  -5  -6   5 767.588 20.5260   2
   4   6  -5 365.725 11.3013   2
   4   6  -5 366.967 11.5953   1
   4   6  -5 339.073 11.4942   2
  -4  -6   5 347.186 12.5628   1
  -4  -6   5 337.704 10.5102   2
   3   6  -5 27.1465 2.51007   2
   3   6  -5 27.8321 2.53802   1
   3   6  -5 25.3321 3.57900   2
  -3  -6   5 33.6265 3.82770   1
  -3  -6   5 27.2345 3.25352   2
   2   6  -5 1.13651 0.78407   2
   2   6  -5 3.84763 1.53477   2
   2   6  -5 1.18391 0.94932   1
  -2  -6   5 2.06570 1.10799   2
   1   6  -5 1200.70 31.7273   1
   1   6  -5 1257.83 28.7778   2
   1   6  -5 1212.52 29.0372   2
   0   6  -5 155.724 5.11983   1
   0   6  -5 158.465 4.22071   2
   0   6  -5 163.065 4.29850   2
  -1   6  -5 61.7058 1.93427   2
  -1   6  -5 61.8496 2.63198   1
  -1   6  -5 61.2888 1.99272   2
  -2   6  -5 2.45215 0.66417   2
  -3   6  -5 143.967 4.92533   2
   3  -6   5 151.514 4.87651   2
   3  -6   5 155.464 4.73216   2
  -4   6  -5 76.7690 3.72239   2
  -4   6  -5 80.9708 4.23774   1
   4  -6   5 87.1208 4.07395   2
  -5   6  -5 393.938 11.9057   2
   5  -6   5 416.199 12.0176   2
   5  -6   5 404.764 11.9624   2
  -6   6  -5 1.25737 1.68914   2
  -6   6  -5 -0.8568 2.85899   1
   6  -6   5 3.85667 3.05430   2
   6  -6   5 -0.6531 2.04615   2
  -7   6  -5 113.411 8.31367   1
  -7   6  -5 135.340 6.70575   2
   7  -6   5 120.974 7.00297   2
  -8   6  -5 14.2356 3.42835   2
   7   5  -5 115.427 7.98043   2
   7   5  -5 131.379 11.7248   2
  -7  -5   5 119.640 7.79626   2
   6   5  -5 324.148 12.1868   2
   6   5  -5 334.471 13.1752   2
  -6  -5   5 294.821 14.1652   1
  -6  -5   5 341.227 11.6046   2
   5   5  -5 894.566 24.4429   2
   5   5  -5 873.885 24.3179   2
   5   5  -5 913.017 25.4205   1
  -5  -5   5 928.184 23.8992   2
  -5  -5   5 847.639 26.4928   1
   4   5  -5 242.215 8.80988   2
   4   5  -5 223.708 8.22323   2
   4   5  -5 240.515 8.37785   1
  -4  -5   5 228.798 9.32016   1
  -4  -5   5 230.843 7.90884   2
   3   5  -5 76.8957 3.80305   2
   3   5  -5 79.0025 3.83259   1
   3   5  -5 80.0023 4.45091   2
  -3  -5   5 77.6454 4.61507   1
  -3  -5   5 80.1836 3.63873   2
   2   5  -5 64.2127 3.34126   2
   2   5  -5 59.3364 2.87754   2
   2   5  -5 59.4862 2.92943   1
  -2  -5   5 61.5665 3.46073   1
  -2  -5   5 63.1810 3.48739   2
  -2  -5   5 59.8686 2.99031   2
   1   5  -5 1412.35 33.1380   2
   1   5  -5 1378.80 36.0614   1
   1   5  -5 1396.58 33.1566   2
  -1  -5   5 1450.05 33.1037   2
   0   5  -5 59.2610 2.33624   2
   0   5  -5 58.2819 2.20754   2
   0   5  -5 58.6669 2.28735   1
   0  -5   5 58.2651 2.20839   2
  -1   5  -5 86.6057 2.91066   2
  -1   5  -5 85.7812 2.79506   2
  -1   5  -5 89.5498 2.99225   1
   1  -5   5 85.8150 2.67452   2
  -2   5  -5 1.21126 0.62298   2
   2  -5   5 2.72839 0.80361   2
  -3   5  -5 2.71478 0.87149   2
   3  -5   5 3.61827 1.14127   2
  -4   5  -5 134.418 5.32500   1
  -4   5  -5 138.029 5.20624   2
   4  -5   5 142.405 5.48806   2
   4  -5   5 145.365 5.34405   2
  -5   5  -5 1084.79 28.0897   2
  -5   5  -5 1100.01 29.9192   1
   5  -5   5 1154.93 28.2787   2
  -6   5  -5 75.6301 5.27409   1
  -6   5  -5 76.3531 4.65304   2
   6  -5   5 78.1341 5.92468   2
   6  -5   5 80.3636 4.91877   2
  -7   5  -5 -2.5151 1.98589   2
  -7   5  -5 -1.9231 3.15358   1
   7  -5   5 -4.2004 2.20305   2
   7  -5   5 -6.2200 3.56608   2
  -8   5  -5 121.246 6.84478   2
  -8   5  -5 140.108 9.47813   1
   8  -5   5 113.023 7.61770   2
  -9   5  -5 556.417 18.1872   2
   8   4  -5 4.14314 4.19377   2
  -8  -4   5 4.38367 4.14629   2
   7   4  -5 324.616 14.8268   2
   7   4  -5 306.172 12.3473   2
  -7  -4   5 319.826 12.2689   2
   6   4  -5 881.378 25.2801   2
   6   4  -5 900.275 25.4014   2
  -6  -4   5 931.036 24.8884   2
  -6  -4   5 871.872 27.3330   1
   5   4  -5 193.690 8.59137   2
   5   4  -5 167.658 7.62453   2
  -5  -4   5 188.639 7.38791   2
  -5  -4   5 173.391 8.82331   1
   4   4  -5 69.6596 3.78554   1
   4   4  -5 72.6429 4.97198   2
   4   4  -5 65.2829 3.95839   2
  -4  -4   5 67.7822 4.93190   2
  -4  -4   5 69.3852 3.89349   2
   3   4  -5 735.351 18.7826   2
   3   4  -5 709.278 18.8435   2
   3   4  -5 717.246 19.8079   1
  -3  -4   5 690.945 18.4012   2
  -3  -4   5 730.797 18.8753   2
  -3  -4   5 715.867 20.1964   1
   2   4  -5 1.56102 0.75525   1
   2   4  -5 0.57128 1.03526   2
   2   4  -5 1.62971 0.75196   2
  -2  -4   5 1.03680 0.78592   2
  -2  -4   5 2.05162 1.26167   2
  -2  -4   5 3.19675 1.25963   1
   1   4  -5 424.386 11.0935   2
   1   4  -5 421.571 11.0603   2
   1   4  -5 415.487 11.5503   1
  -1  -4   5 429.936 11.6292   1
  -1  -4   5 420.935 11.0578   2
  -1  -4   5 436.626 10.9386   2
   0   4  -5 358.202 9.20587   2
   0   4  -5 345.957 9.40758   1
   0   4  -5 357.771 9.17952   2
   0  -4   5 360.081 9.13915   2
  -1   4  -5 127.083 3.99772   2
  -1   4  -5 132.274 3.99128   2
   1  -4   5 133.087 4.01711   2
  -2   4  -5 2.28764 0.57968   2
   2  -4   5 2.13227 0.84947   2
  -3   4  -5 237.758 7.09537   2
  -3   4  -5 238.577 7.15592   1
   3  -4   5 244.473 7.09553   2
  -4   4  -5 800.928 21.7630   1
  -4   4  -5 800.984 20.6344   2
   4  -4   5 831.812 20.7594   2
  -5   4  -5 322.627 10.3388   1
  -5   4  -5 320.554 10.0659   2
   5  -4   5 332.281 10.2847   2
   5  -4   5 324.980 10.2307   2
  -6   4  -5 32.2403 3.81677   1
  -6   4  -5 32.9301 3.14936   2
   6  -4   5 30.4495 3.21005   2
   6  -4   5 24.2998 3.50978   2
  -7   4  -5 446.474 13.9942   2
  -7   4  -5 432.489 14.5567   1
   7  -4   5 462.063 14.4335   2
   7  -4   5 423.430 14.6385   2
  -8   4  -5 124.296 8.68826   1
  -8   4  -5 113.679 6.56000   2
   8  -4   5 106.990 7.24442   2
  -9   4  -5 536.551 17.6285   2
   9  -4   5 563.078 20.4205   2
  -9  -3   5 23.9499 6.22261   2
   8   3  -5 156.208 9.87698   2
  -8  -3   5 182.816 10.1151   2
   7   3  -5 308.053 12.2085   2
   7   3  -5 283.567 13.7726   2
  -7  -3   5 290.286 11.4274   2
   6   3  -5 348.661 13.1965   2
   6   3  -5 353.465 12.6835   2
  -6  -3   5 352.958 13.5798   1
  -6  -3   5 343.944 12.0595   2
   5   3  -5 33.2515 4.10266   2
   5   3  -5 31.0023 3.40761   2
  -5  -3   5 31.3908 4.91981   1
  -5  -3   5 32.6997 4.84088   2
  -5  -3   5 40.0600 3.49857   2
   4   3  -5 67.9921 4.72442   2
   4   3  -5 64.1541 3.98044   2
  -4  -3   5 60.4731 3.73420   2
  -4  -3   5 66.4969 4.75029   1
  -4  -3   5 64.5386 4.77779   2
   3   3  -5 689.405 18.0924   2
   3   3  -5 691.335 17.8998   2
  -3  -3   5 682.787 17.7295   2
  -3  -3   5 653.637 19.1129   1
   2   3  -5 46.5243 2.35124   1
   2   3  -5 47.3069 2.59160   2
   2   3  -5 51.1082 2.90852   2
  -2  -3   5 53.3924 3.08552   2
  -2  -3   5 50.4063 2.55915   2
  -2  -3   5 51.4347 2.82097   1
   1   3  -5 83.9143 3.32661   2
   1   3  -5 78.7112 2.86191   1
   1   3  -5 79.9983 3.17872   2
  -1  -3   5 85.7968 3.12163   2
  -1  -3   5 84.2337 3.02201   1
  -1  -3   5 85.9208 3.39790   2
   0   3  -5 501.192 12.7182   2
   0   3  -5 500.154 12.7747   2
   0  -3   5 523.080 12.7993   2
  -1   3  -5 114.221 3.69528   2
  -1   3  -5 118.474 3.71582   2
   1  -3   5 109.595 3.72014   2
  -2   3  -5 446.831 11.3381   2
  -2   3  -5 432.921 11.4842   1
   2  -3   5 444.908 11.3424   2
  -3   3  -5 1719.73 40.4037   2
  -3   3  -5 1676.62 43.3666   1
   3  -3   5 1738.17 40.3091   2
  -4   3  -5 514.159 13.8522   2
  -4   3  -5 504.876 14.3222   1
   4  -3   5 522.388 13.8535   2
  -5   3  -5 358.857 10.8755   2
  -5   3  -5 350.406 11.0735   1
   5  -3   5 376.617 11.1223   2
   5  -3   5 361.090 11.0344   2
  -6   3  -5 105.594 5.08353   2
  -6   3  -5 104.471 5.41438   1
   6  -3   5 102.700 5.31223   2
   6  -3   5 95.2635 5.68869   2
  -7   3  -5 1402.46 35.4373   2
   7  -3   5 1389.64 35.6117   2
   7  -3   5 1338.38 35.4815   2
  -8   3  -5 4.49230 2.16510   2
  -8   3  -5 6.28275 4.10784   1
   8  -3   5 4.09474 2.82630   2
  -9   3  -5 130.531 7.69019   2
   9  -3   5 127.482 8.48401   2
  10  -3   5 46.9410 6.36810   2
  -9  -2   5 41.6808 6.36487   2
   8   2  -5 406.202 15.6120   2
  -8  -2   5 396.990 14.8998   2
   7   2  -5 212.874 11.9043   2
   7   2  -5 213.639 9.82428   2
  -7  -2   5 202.033 11.2088   1
  -7  -2   5 211.095 9.69200   2
   6   2  -5 117.079 7.80451   2
   6   2  -5 142.287 7.10013   2
  -6  -2   5 133.720 8.04294   1
  -6  -2   5 129.559 6.66645   2
  -6  -2   5 118.220 7.82647   2
   5   2  -5 10.5926 2.12128   2
   5   2  -5 3.44659 2.71774   2
  -5  -2   5 8.94170 2.88324   2
  -5  -2   5 7.50569 1.84544   2
  -5  -2   5 7.16505 2.85616   1
   4   2  -5 67.6263 3.98271   2
   4   2  -5 66.2469 4.48441   2
  -4  -2   5 69.0303 4.42769   1
  -4  -2   5 69.2049 4.55452   2
  -4  -2   5 66.9826 3.84133   2
   3   2  -5 506.178 13.8114   2
   3   2  -5 480.173 13.8562   2
  -3  -2   5 502.373 13.9471   2
  -3  -2   5 504.936 13.7166   2
  -3  -2   5 501.853 14.6210   1
   2   2  -5 821.305 19.9542   2
   2   2  -5 788.130 20.0022   2
  -2  -2   5 800.906 20.0165   2
  -2  -2   5 759.791 21.1690   1
  -2  -2   5 787.453 19.8025   2
   1   2  -5 0.14187 0.49723   2
   1   2  -5 0.65395 0.79853   2
  -1  -2   5 0.99404 0.52217   2
  -1  -2   5 1.51077 0.70813   1
  -1  -2   5 2.21096 0.93425   2
   0   2  -5 974.255 23.8426   2
   0   2  -5 1029.21 23.8292   2
   0  -2   5 969.334 25.4397   1
   0  -2   5 991.905 23.6879   2
   0  -2   5 1011.50 23.8719   2
  -1   2  -5 414.266 10.6872   2
  -1   2  -5 430.682 10.8345   2
   1  -2   5 418.094 10.8108   2
  -2   2  -5 1429.52 34.2846   2
  -2   2  -5 1449.06 37.0368   1
   2  -2   5 1493.98 34.3565   2
  -3   2  -5 1447.69 33.5893   2
  -3   2  -5 1401.51 35.8266   1
   3  -2   5 1370.70 33.4427   2
  -4   2  -5 932.506 24.9818   1
  -4   2  -5 952.341 23.6713   2
   4  -2   5 952.961 23.6307   2
  -5   2  -5 201.787 7.08305   2
  -5   2  -5 207.345 7.23123   1
   5  -2   5 202.195 7.36357   2
  -6   2  -5 37.5390 3.64275   1
  -6   2  -5 38.5515 3.13790   2
   6  -2   5 33.7065 4.18662   2
   6  -2   5 35.0375 3.07044   2
  -7   2  -5 1270.02 34.4654   1
  -7   2  -5 1265.89 32.8213   2
   7  -2   5 1225.59 32.6846   2
   7  -2   5 1248.65 32.7602   2
  -8   2  -5 0.39743 3.50774   1
  -8   2  -5 2.46929 2.08484   2
   8  -2   5 -2.9102 2.16017   2
   8  -2   5 -1.2585 3.78509   2
  -9   2  -5 -4.1588 2.64722   2
   9  -2   5 0.07825 2.95380   2
 -10   2  -5 19.1017 4.87648   2
  10  -2   5 5.36313 4.61423   2
  -9  -1   5 44.7611 6.31026   2
   8   1  -5 578.546 19.5552   2
  -8  -1   5 535.737 18.4264   2
   7   1  -5 31.5463 4.57073   2
   7   1  -5 39.3306 6.29492   2
  -7  -1   5 40.1538 5.73342   1
  -7  -1   5 49.0135 5.11689   2
   6   1  -5 1.52384 1.93088   2
   6   1  -5 2.03895 3.29771   2
  -6  -1   5 3.82791 2.94237   1
  -6  -1   5 2.95317 2.01783   2
  -6  -1   5 3.98377 3.62607   2
   5   1  -5 45.5048 3.77339   2
   5   1  -5 52.6771 5.03598   2
  -5  -1   5 53.5224 5.35665   2
  -5  -1   5 50.0695 4.31380   1
  -5  -1   5 47.6579 3.85882   2
   4   1  -5 25.4073 3.37452   2
   4   1  -5 21.0107 2.48573   2
  -4  -1   5 26.7214 3.61377   2
  -4  -1   5 23.6443 3.13451   1
  -4  -1   5 25.8124 2.57829   2
   3   1  -5 238.252 7.95957   2
   3   1  -5 240.273 7.87983   2
  -3  -1   5 241.125 8.01744   2
  -3  -1   5 241.602 8.07205   1
  -3  -1   5 241.379 7.76703   2
   2   1  -5 1534.40 35.4783   2
   2   1  -5 1496.30 35.6129   2
  -2  -1   5 1419.75 35.4316   2
  -2  -1   5 1515.78 35.4611   2
  -2  -1   5 1424.98 38.0844   1
   1   1  -5 16.1607 1.38786   2
   1   1  -5 19.8357 1.81539   2
  -1  -1   5 19.8909 1.52497   2
  -1  -1   5 18.7548 1.80133   2
  -1  -1   5 20.1447 1.41373   1
   0   1  -5 8.66021 1.22725   2
   0   1  -5 9.48751 1.05743   2
   0  -1   5 8.63521 0.96201   2
   0  -1   5 7.63541 1.19417   2
  -1   1  -5 904.912 22.2914   2
  -1   1  -5 954.748 22.4973   2
   1  -1   5 917.985 23.7757   1
   1  -1   5 955.859 22.5006   2
  -2   1  -5 2433.15 57.5853   2
  -2   1  -5 2452.01 63.3717   1
   2  -1   5 2377.79 62.2483   1
   2  -1   5 2508.19 56.6359   2
  -3   1  -5 888.138 23.0113   1
  -3   1  -5 894.461 21.7876   2
   3  -1   5 883.303 21.7856   2
   3  -1   5 869.870 23.1312   1
  -4   1  -5 345.532 9.74924   2
  -4   1  -5 333.710 9.91635   1
   4  -1   5 335.321 10.0166   1
   4  -1   5 314.716 9.65600   2
  -5   1  -5 1278.51 32.0446   2
  -5   1  -5 1280.83 34.2463   1
   5  -1   5 1323.24 34.4918   1
  -6   1  -5 57.5017 3.77651   2
  -6   1  -5 60.1462 4.21151   1
   6  -1   5 49.3835 4.39805   2
   6  -1   5 59.6900 3.90065   2
  -7   1  -5 993.319 27.8007   1
  -7   1  -5 971.225 26.1816   2
   7  -1   5 975.288 26.4686   2
   7  -1   5 972.708 26.5163   2
  -8   1  -5 17.3606 2.80052   2
  -8   1  -5 18.0712 4.44169   1
   8  -1   5 14.7799 4.42712   2
   8  -1   5 13.8216 2.76650   2
  -9   1  -5 100.971 6.28332   2
   9  -1   5 85.4072 7.01761   2
 -10   1  -5 58.8201 6.75723   2
  10  -1   5 36.6191 5.31665   2
  -9   0   5 -6.2016 4.83341   2
   8   0  -5 207.038 10.5064   2
  -8   0   5 221.792 10.5206   2
   7   0  -5 75.5262 6.24667   2
   7   0  -5 70.6123 8.49806   2
  -7   0   5 81.4425 5.89086   2
   6   0  -5 267.572 11.0651   2
  -6   0   5 266.525 11.4883   2
  -6   0   5 262.876 10.6190   1
  -6   0   5 280.129 10.2653   2
   5   0  -5 62.3382 5.10718   2
   5   0  -5 56.2987 4.20807   2
  -5   0   5 55.8268 3.92722   2
  -5   0   5 59.2382 4.76356   1
  -5   0   5 53.2979 5.51865   2
   4   0  -5 141.231 6.30382   2
   4   0  -5 147.555 6.16893   2
  -4   0   5 143.140 5.89078   2
  -4   0   5 144.616 6.46378   2
   3   0  -5 199.786 6.90221   2
   3   0  -5 185.965 6.80324   2
  -3   0   5 201.377 6.87949   1
  -3   0   5 194.818 7.04227   2
  -3   0   5 194.444 6.71162   2
   2   0  -5 1810.94 43.1073   2
   2   0  -5 1772.35 42.8354   2
  -2   0   5 1830.22 43.0649   2
  -2   0   5 1817.71 42.9567   2
   1   0  -5 73.6783 3.23165   2
   1   0  -5 75.5268 3.19635   2
  -1   0   5 76.7093 3.35129   2
  -1   0   5 68.3367 3.00329   2
   0   0  -5 1027.34 24.2472   2
   0   0  -5 1037.04 24.3638   2
   0   0   5 948.716 24.0813   2
   0   0   5 1013.09 24.3445   2
  -1   0  -5 964.712 22.9060   2
  -1   0  -5 926.857 22.7182   2
   1   0   5 934.712 22.8822   2
   1   0   5 962.781 24.1927   1
  -2   0  -5 3717.14 87.0629   2
  -2   0  -5 3697.46 93.9528   1
   2   0   5 3423.36 92.8109   1
   2   0   5 3683.98 85.2573   2
  -3   0  -5 7.22938 1.04950   2
  -3   0  -5 6.79958 1.14717   1
   3   0   5 5.40062 1.14708   2
   3   0   5 8.79471 0.96286   1
  -4   0  -5 7.46193 1.25389   2
  -4   0  -5 7.23209 1.40696   1
   4   0   5 8.22614 1.62071   2
   4   0   5 11.2478 1.30570   1
  -5   0  -5 1435.25 34.7533   2
  -5   0  -5 1396.77 37.2643   1
   5   0   5 1387.97 37.2409   1
   5   0   5 1424.47 34.8302   2
  -6   0  -5 67.5642 3.97386   2
  -6   0  -5 68.6261 4.62215   1
   6   0   5 64.2367 3.74137   1
   6   0   5 63.1134 4.70996   2
  -7   0  -5 33.9766 3.31161   2
  -7   0  -5 28.8790 4.61325   1
   7   0   5 30.4156 3.32470   1
   7   0   5 23.7759 3.23994   2
   7   0   5 30.1547 4.19039   2
  -8   0  -5 69.2712 4.99026   2
  -8   0  -5 62.4212 6.44899   1
   8   0   5 63.2587 7.52206   2
  -9   0  -5 110.254 7.00509   2
   9   0   5 100.623 7.23012   2
 -10   0  -5 99.2332 7.32073   2
  10   0   5 74.6659 7.54314   2
   9  -1  -5 4.23253 6.29772   2
   8  -1  -5 4.12858 3.84542   2
  -8   1   5 6.49548 3.54345   2
   7  -1  -5 91.5145 6.61472   2
  -7   1   5 83.3014 6.10821   2
  -7   1   5 78.4157 9.73032   2
   6  -1  -5 23.8468 4.14931   2
   6  -1  -5 23.9285 3.38012   2
  -6   1   5 16.7217 4.38237   2
  -6   1   5 26.8913 3.42825   2
  -6   1   5 17.5043 3.74198   1
   5  -1  -5 171.502 7.62600   2
   5  -1  -5 164.578 7.29187   2
  -5   1   5 171.410 8.05925   2
  -5   1   5 157.866 7.22951   1
  -5   1   5 172.168 7.12821   2
   4  -1  -5 940.881 24.6284   2
   4  -1  -5 946.412 24.2493   2
  -4   1   5 936.145 24.3394   2
  -4   1   5 894.916 25.5607   1
   3  -1  -5 324.564 9.82475   2
   3  -1  -5 302.023 9.50923   2
  -3   1   5 322.070 9.91921   2
  -3   1   5 299.576 9.47361   2
   2  -1  -5 262.924 7.95590   2
   2  -1  -5 254.103 7.99492   2
  -2   1   5 253.584 7.87174   2
  -2   1   5 261.542 8.12539   2
   1  -1  -5 1053.66 25.6425   2
   1  -1  -5 1058.51 25.8043   2
  -1   1   5 1052.81 25.6752   2
  -1   1   5 1052.73 25.7974   2
   0  -1  -5 3490.35 81.8472   2
   0  -1  -5 3508.48 83.1272   2
   0   1   5 3524.04 81.5493   2
   0   1   5 3306.66 80.1831   2
  -1  -1  -5 482.060 12.2129   2
  -1  -1  -5 452.827 12.0185   2
   1   1   5 471.523 12.2473   2
  -2  -1  -5 1177.16 27.6982   2
   2   1   5 1118.69 27.6874   2
   2   1   5 1162.80 29.7255   1
  -3  -1  -5 540.387 14.6537   1
  -3  -1  -5 526.323 13.7587   2
   3   1   5 521.733 14.4303   1
   3   1   5 517.866 13.8269   2
  -4  -1  -5 680.897 18.6637   1
  -4  -1  -5 688.493 17.5129   2
   4   1   5 640.945 17.4484   2
   4   1   5 667.548 18.3668   1
  -5  -1  -5 1204.06 32.8331   1
  -5  -1  -5 1246.54 30.5650   2
   5   1   5 1213.77 30.6429   2
   5   1   5 1229.14 32.6139   1
  -6  -1  -5 19.6999 2.97418   1
  -6  -1  -5 17.8658 2.36539   2
   6   1   5 17.3743 2.13861   1
   6   1   5 13.3630 2.83084   2
  -7  -1  -5 22.1532 2.94541   2
  -7  -1  -5 21.8667 3.65171   1
   7   1   5 17.4224 3.75358   2
   7   1   5 17.2987 2.76443   2
  -8  -1  -5 45.4092 6.40548   1
  -8  -1  -5 32.7590 3.90191   2
   8   1   5 39.0325 4.13302   2
   8   1   5 30.0239 5.09038   2
   8   1   5 36.4761 3.68133   1
  -9  -1  -5 5.34524 2.70344   2
   9   1   5 4.60266 3.06419   2
 -10  -1  -5 133.728 8.80872   2
  10   1   5 111.502 8.91362   2
   9  -2  -5 47.1393 7.45453   2
   8  -2  -5 4.32343 4.31522   2
  -8   2   5 6.42805 3.79175   2
   7  -2  -5 60.2712 6.23634   2
  -7   2   5 62.9025 5.42134   2
  -7   2   5 63.4661 7.78084   2
   6  -2  -5 35.0603 4.40964   2
   6  -2  -5 30.0736 4.51387   2
  -6   2   5 40.3473 5.57703   2
  -6   2   5 40.1651 3.88888   2
  -6   2   5 34.8592 4.81496   1
   5  -2  -5 463.538 14.3577   2
   5  -2  -5 434.311 13.9822   2
  -5   2   5 449.146 14.5726   2
  -5   2   5 439.766 14.4479   1
  -5   2   5 451.036 13.9659   2
   4  -2  -5 1423.29 35.0718   2
   4  -2  -5 1398.63 35.4504   2
  -4   2   5 1412.13 35.2691   2
  -4   2   5 1395.64 36.4145   2
   3  -2  -5 692.584 18.4880   2
   3  -2  -5 674.834 18.1664   2
  -3   2   5 704.031 18.5934   2
  -3   2   5 681.541 18.3135   2
   2  -2  -5 59.1187 3.20500   2
   2  -2  -5 48.0173 2.85751   2
  -2   2   5 53.2610 2.89001   2
  -2   2   5 52.7171 3.32648   2
   1  -2  -5 8.28496 1.34825   2
   1  -2  -5 11.0511 1.34176   2
  -1   2   5 7.70736 1.46520   2
  -1   2   5 8.08963 1.17861   2
   0  -2  -5 6563.31 153.725   2
   0  -2  -5 6516.08 154.189   2
   0   2   5 6279.52 153.298   2
   0   2   5 6516.97 152.455   2
  -1  -2  -5 37.8913 2.03429   2
  -1  -2  -5 32.6260 2.10072   2
   1   2   5 32.8390 2.20136   2
  -2  -2  -5 11.0306 1.20988   2
   2   2   5 7.36626 1.29995   2
   2   2   5 9.13326 1.03640   1
  -3  -2  -5 480.517 14.0894   1
  -3  -2  -5 504.457 13.1339   2
   3   2   5 499.476 13.9562   1
   3   2   5 491.992 13.2399   2
  -4  -2  -5 547.212 14.3949   2
  -4  -2  -5 545.875 15.5120   1
   4   2   5 543.097 15.1840   1
   4   2   5 488.925 14.3390   2
  -5  -2  -5 430.014 12.3243   2
   5   2   5 416.551 12.7604   1
   5   2   5 419.684 12.5927   2
  -6  -2  -5 340.775 10.9353   2
  -6  -2  -5 343.913 11.9098   1
   6   2   5 341.353 11.4589   2
   6   2   5 341.110 11.2231   1
  -7  -2  -5 1.98099 2.91146   1
  -7  -2  -5 2.90021 1.60965   2
   7   2   5 0.81468 3.14149   2
   7   2   5 5.00362 1.72550   1
   7   2   5 3.95220 1.88262   2
  -8  -2  -5 2.83118 2.08206   2
  -8  -2  -5 1.37937 4.07749   1
   8   2   5 2.75397 2.08255   2
   8   2   5 0.79599 4.08627   2
   8   2   5 2.46217 1.83606   1
  -9  -2  -5 21.5857 3.84172   2
   9   2   5 16.3535 3.58331   2
   9   2   5 22.8912 3.39126   1
 -10  -2  -5 461.529 16.4485   2
  10   2   5 437.875 16.4163   2
   9  -3  -5 232.302 14.7163   2
   8  -3  -5 5.52949 4.48233   2
  -8   3   5 5.25563 3.84822   2
   7  -3  -5 1.51949 3.28125   2
  -7   3   5 1.36229 2.71445   2
  -7   3   5 6.60987 6.46936   2
   6  -3  -5 231.723 9.80264   2
   6  -3  -5 218.124 10.5010   2
  -6   3   5 254.916 11.8919   2
  -6   3   5 227.762 9.28104   2
  -6   3   5 211.515 10.2009   1
   5  -3  -5 721.030 20.6221   2
   5  -3  -5 744.123 20.9815   2
  -5   3   5 745.229 21.2485   2
  -5   3   5 722.676 21.6633   1
   4  -3  -5 527.073 15.2345   2
   4  -3  -5 528.238 15.5170   2
  -4   3   5 526.485 15.6714   2
  -4   3   5 531.848 15.3813   2
   3  -3  -5 474.577 13.4411   2
   3  -3  -5 482.312 13.7010   2
  -3   3   5 464.524 13.4931   2
  -3   3   5 471.691 13.8051   2
   2  -3  -5 1928.21 45.9550   2
   2  -3  -5 1965.02 45.7580   2
  -2   3   5 1909.54 45.8475   2
  -2   3   5 1888.57 45.9026   2
   1  -3  -5 0.59650 0.70494   2
   1  -3  -5 0.68093 1.05642   2
  -1   3   5 1.10417 0.71231   2
  -1   3   5 0.61808 1.16501   2
   0  -3  -5 1525.48 36.0542   2
   0  -3  -5 1515.01 36.1424   2
   0   3   5 1489.78 35.9666   2
   0   3   5 1545.80 36.2786   2
  -1  -3  -5 16.7698 1.76662   2
  -1  -3  -5 18.1657 1.46264   2
   1   3   5 18.5806 1.93453   2
  -2  -3  -5 420.155 11.2314   2
  -2  -3  -5 423.109 11.2776   2
   2   3   5 424.025 11.5017   2
   2   3   5 416.883 12.2889   1
  -3  -3  -5 659.539 17.2478   2
  -3  -3  -5 700.126 19.0633   1
   3   3   5 693.563 18.8394   1
   3   3   5 652.804 17.4357   2
  -4  -3  -5 7.25921 1.81121   1
  -4  -3  -5 5.49233 1.17754   2
   4   3   5 5.83760 1.33201   1
   4   3   5 6.77349 1.81849   2
  -5  -3  -5 172.818 6.33838   2
  -5  -3  -5 162.248 6.97748   1
   5   3   5 161.408 6.76917   2
   5   3   5 159.060 6.27301   1
  -6  -3  -5 309.954 10.2028   2
  -6  -3  -5 302.811 11.2924   1
   6   3   5 304.035 10.4200   1
  -7  -3  -5 3.68786 3.18739   1
  -7  -3  -5 1.34331 1.70817   2
   7   3   5 0.86587 1.51659   1
   7   3   5 0.60477 1.75638   2
   7   3   5 1.56659 3.20470   2
  -8  -3  -5 266.586 12.6217   1
   8   3   5 268.062 12.4487   2
   8   3   5 265.434 10.6521   2
   8   3   5 272.482 10.5245   1
  -9  -3  -5 61.4876 5.79798   2
   9   3   5 66.5665 5.40530   1
   9   3   5 56.4051 5.61602   2
 -10  -3  -5 500.854 17.6929   2
  10   3   5 503.400 18.3118   1
  10   3   5 499.291 18.1952   2
   8  -4  -5 36.4772 6.13435   2
   7  -4  -5 157.432 9.54905   2
  -7   4   5 164.748 8.77314   2
  -7   4   5 171.025 13.7581   2
   6  -4  -5 376.164 13.6542   2
  -6   4   5 393.519 13.4503   2
  -6   4   5 363.547 14.7472   2
   5  -4  -5 772.570 22.6054   2
   5  -4  -5 859.683 23.2204   2
  -5   4   5 845.530 23.5090   2
  -5   4   5 806.932 22.7778   2
   4  -4  -5 20.0244 2.92907   2
   4  -4  -5 23.9800 3.13990   2
  -4   4   5 22.2384 3.41600   2
  -4   4   5 21.5299 2.69534   2
   3  -4  -5 2.86498 1.71724   2
   3  -4  -5 2.27493 1.19253   2
  -3   4   5 2.88725 1.99907   2
  -3   4   5 6.53161 1.39550   2
   2  -4  -5 2153.83 50.6497   2
  -2   4   5 2090.85 50.6006   2
  -2   4   5 2130.38 50.5582   2
   1  -4  -5 1.84687 1.17464   2
   1  -4  -5 2.07433 0.79563   2
  -1   4   5 0.55696 1.34507   2
  -1   4   5 1.49248 0.74327   2
   0  -4  -5 318.261 9.12280   2
   0  -4  -5 336.805 9.23094   2
   0   4   5 311.465 9.30511   2
   0   4   5 323.775 9.02839   2
  -1  -4  -5 36.1599 2.40948   2
  -1  -4  -5 36.7571 2.10905   2
   1   4   5 36.9275 2.66363   2
  -2  -4  -5 363.489 10.0216   2
  -2  -4  -5 363.690 9.99420   2
   2   4   5 375.741 10.3880   2
   2   4   5 348.850 11.0865   1
  -3  -4  -5 149.564 5.22183   2
   3   4   5 148.238 5.64086   2
   3   4   5 148.605 5.74808   1
  -4  -4  -5 216.560 7.18831   2
  -4  -4  -5 210.546 8.10662   1
   4   4   5 215.282 7.68749   1
   4   4   5 222.046 7.66814   2
  -5  -4  -5 312.627 11.3630   1
  -5  -4  -5 322.764 10.1051   2
   5   4   5 324.055 10.7084   1
   5   4   5 327.961 10.7026   2
  -6  -4  -5 192.009 7.38211   2
  -6  -4  -5 187.334 8.69689   1
   6   4   5 180.150 7.38873   1
  -7  -4  -5 19.2962 2.76180   2
  -7  -4  -5 19.7003 4.56575   1
   7   4   5 18.9183 4.21276   2
   7   4   5 18.8149 2.79735   1
   7   4   5 17.9351 2.87115   2
  -8  -4  -5 833.704 23.2259   2
   8   4   5 816.439 24.3797   1
   8   4   5 763.480 24.2412   2
   8   4   5 804.600 23.4805   2
  -9  -4  -5 1.08365 3.15860   2
   9   4   5 -1.1841 6.76067   2
   9   4   5 6.00449 3.14665   2
   9   4   5 2.92690 2.97531   1
 -10  -4  -5 218.849 11.4486   2
   8  -5  -5 28.1704 6.79266   2
   7  -5  -5 419.387 15.8783   2
  -7   5   5 433.127 15.5420   2
  -7   5   5 391.254 19.1522   2
   6  -5  -5 218.560 10.0073   2
  -6   5   5 204.584 9.02832   2
  -6   5   5 226.237 12.9280   2
   5  -5  -5 451.001 15.4150   2
   5  -5  -5 491.260 15.5452   2
  -5   5   5 506.913 16.5512   2
  -5   5   5 502.567 15.4553   2
   4  -5  -5 136.597 6.28130   2
   4  -5  -5 142.420 6.97484   2
  -4   5   5 141.805 7.47775   2
   3  -5  -5 128.796 5.56563   2
   3  -5  -5 116.795 5.61744   2
  -3   5   5 125.186 5.41453   2
  -3   5   5 125.864 6.23636   2
   2  -5  -5 730.729 19.1111   2
   2  -5  -5 778.146 19.4289   2
  -2   5   5 711.713 19.3924   2
  -2   5   5 721.850 19.1983   2
   1  -5  -5 0.66978 0.92877   2
  -1   5   5 -0.6905 1.27374   2
  -1   5   5 2.40611 0.92105   2
   0  -5  -5 32.3716 2.57963   2
   0  -5  -5 34.0650 2.16160   2
   0   5   5 31.6978 2.74788   2
   0   5   5 29.5657 1.99643   2
  -1  -5  -5 5.13946 0.96720   2
  -1  -5  -5 3.10814 1.20708   2
   1   5   5 1.67400 1.20649   2
   1   5   5 2.46392 1.04549   1
  -2  -5  -5 46.6928 2.45293   2
  -2  -5  -5 43.8094 2.83178   2
   2   5   5 43.2507 3.06363   2
   2   5   5 42.4563 2.86759   1
  -3  -5  -5 584.041 15.2266   2
   3   5   5 578.320 16.9930   1
   3   5   5 567.950 15.5186   2
  -4  -5  -5 688.693 18.0413   2
   4   5   5 668.550 18.3582   2
   4   5   5 695.094 19.8917   1
  -5  -5  -5 346.158 12.8546   1
  -5  -5  -5 382.065 11.4344   2
   5   5   5 382.941 12.0717   2
   5   5   5 374.259 12.2507   1
  -6  -5  -5 56.9601 3.97698   2
  -6  -5  -5 53.1310 5.93825   1
   6   5   5 56.8981 4.07387   1
   6   5   5 62.1990 6.10125   2
  -7  -5  -5 8.18677 2.36207   2
  -7  -5  -5 8.59705 4.39977   1
   7   5   5 9.08679 4.11281   2
   7   5   5 6.00829 2.33170   2
   7   5   5 3.80884 1.99965   1
  -8  -5  -5 899.675 25.3005   2
   8   5   5 894.317 25.7246   2
   8   5   5 914.800 27.0278   1
   8   5   5 879.985 27.1165   2
  -9  -5  -5 10.4397 3.88987   2
   9   5   5 11.7110 8.10026   2
   9   5   5 14.2986 3.73918   1
   9   5   5 12.7928 3.69945   2
 -10  -5  -5 2.52385 4.98440   2
   7  -6  -5 708.337 23.6854   2
  -7   6   5 682.634 23.5579   2
   6  -6  -5 8.25375 3.64399   2
  -6   6   5 3.03416 6.58790   2
  -6   6   5 8.48489 3.03715   2
   5  -6  -5 4.11622 2.50650   2
  -5   6   5 1.90334 2.24620   2
  -5   6   5 -0.8132 4.61311   2
   4  -6  -5 446.164 13.7854   2
   4  -6  -5 427.207 13.9847   2
  -4   6   5 436.073 14.5103   2
  -4   6   5 452.540 13.7848   2
   3  -6  -5 134.794 5.76511   2
   3  -6  -5 126.791 6.12403   2
  -3   6   5 124.847 6.61194   2
  -3   6   5 125.910 5.53017   2
   2  -6  -5 467.257 13.3122   2
   2  -6  -5 483.811 13.4241   2
  -2   6   5 478.508 13.3599   2
  -2   6   5 464.552 13.7240   2
   1  -6  -5 307.245 9.00830   2
   1  -6  -5 297.944 9.03581   2
  -1   6   5 298.632 8.88666   2
  -1   6   5 291.996 9.38792   2
   0  -6  -5 32.3582 2.24956   2
   0  -6  -5 26.7041 2.70687   2
   0   6   5 25.0102 2.96662   2
  -1  -6  -5 7.86207 1.24120   2
   1   6   5 6.31219 1.76842   2
   1   6   5 6.14360 1.54065   1
  -2  -6  -5 13.7430 1.87221   2
  -2  -6  -5 15.9143 1.72320   2
   2   6   5 12.1682 1.92193   1
   2   6   5 12.6944 2.06892   2
  -3  -6  -5 872.116 22.2342   2
  -3  -6  -5 876.205 22.2881   2
   3   6   5 888.088 25.0819   1
   3   6   5 910.738 22.7934   2
  -4  -6  -5 290.440 9.22473   2
   4   6   5 291.764 10.3474   1
   4   6   5 315.884 10.0664   2
  -5  -6  -5 30.6333 2.99484   2
   5   6   5 33.3032 4.54163   2
  -6  -6  -5 542.921 15.9833   2
  -6  -6  -5 535.555 18.8403   1
   6   6   5 552.983 17.3250   1
   6   6   5 540.715 16.9519   2
  -7  -6  -5 23.0717 3.28664   2
   7   6   5 23.0732 3.29607   2
   7   6   5 16.4930 2.82379   1
   7   6   5 23.5566 5.17789   2
  -8  -6  -5 663.081 20.4259   2
   8   6   5 694.168 21.9876   1
   8   6   5 677.463 21.0899   2
   8   6   5 712.979 23.4825   2
  -9  -6  -5 48.3882 7.06958   2
  -6   7   5 -1.3684 3.21585   2
   5  -7  -5 13.5890 3.30269   2
  -5   7   5 17.5366 3.14726   2
  -5   7   5 18.8219 6.08049   2
   4  -7  -5 163.115 7.14870   2
   4  -7  -5 157.400 8.80034   2
  -4   7   5 157.032 7.02522   2
  -4   7   5 171.927 9.53812   2
   3  -7  -5 16.9324 3.22900   2
   3  -7  -5 17.5223 2.47084   2
  -3   7   5 18.4029 3.55883   2
  -3   7   5 19.1288 2.75255   2
   2  -7  -5 121.001 5.19407   2
   2  -7  -5 123.643 5.83786   2
  -2   7   5 123.956 6.25190   2
  -2   7   5 123.020 5.11267   2
   1  -7  -5 73.4743 4.26684   2
   1  -7  -5 71.1252 3.60500   2
  -1   7   5 67.5999 4.57627   2
  -1   7   5 72.0193 3.41993   2
   0  -7  -5 36.5112 3.17532   2
   0   7   5 38.6941 3.59150   2
  -1  -7  -5 134.230 5.10913   2
   1   7   5 121.364 5.92175   1
   1   7   5 123.134 5.37562   2
  -2  -7  -5 257.873 8.09176   2
   2   7   5 259.686 9.56402   1
   2   7   5 263.262 8.48325   2
  -3  -7  -5 842.409 21.5785   2
  -3  -7  -5 862.095 21.6260   2
   3   7   5 866.155 24.6749   1
   3   7   5 840.158 22.0705   2
  -4  -7  -5 -1.1168 1.99589   2
  -4  -7  -5 0.77758 1.32096   2
   4   7   5 0.98203 1.40249   1
   4   7   5 1.49569 2.19300   2
  -5  -7  -5 1.96408 1.70712   2
   5   7   5 1.28395 2.82890   2
  -6  -7  -5 746.983 20.9805   2
   6   7   5 753.091 23.1036   1
   6   7   5 791.662 22.3973   2
  -7  -7  -5 53.2398 5.46525   2
   7   7   5 62.8170 4.90079   1
   7   7   5 62.1765 5.42834   2
   7   7   5 58.3689 7.39952   2
  -8  -7  -5 68.4203 6.81493   2
   8   7   5 76.1316 6.98816   2
   8   7   5 70.3841 6.46869   1
  -5   8   5 120.080 6.94525   2
   4  -8  -5 169.100 7.77971   2
  -4   8   5 178.192 10.7986   2
  -4   8   5 158.230 7.20996   2
   3  -8  -5 110.557 5.51051   2
   3  -8  -5 102.931 7.29988   2
  -3   8   5 103.290 5.20157   2
  -3   8   5 110.847 7.68787   2
   2  -8  -5 30.2138 3.17113   2
   2  -8  -5 35.0805 4.85569   2
  -2   8   5 34.8163 2.88897   2
  -2   8   5 36.8807 5.14987   2
   1  -8  -5 175.700 6.75126   2
   1  -8  -5 175.093 6.72382   2
  -1   8   5 178.192 7.21039   2
   0  -8  -5 2.28758 1.85471   2
   0   8   5 1.85502 2.13073   2
   0   8   5 7.36988 2.07098   1
  -1  -8  -5 1168.74 28.1204   2
   1   8   5 1141.43 28.6344   2
   1   8   5 1169.99 32.8181   1
  -2  -8  -5 102.712 4.90948   2
   2   8   5 106.016 5.43050   2
   2   8   5 111.282 5.87371   1
  -3  -8  -5 497.196 13.7055   2
   3   8   5 505.093 16.1861   1
   3   8   5 486.189 14.2002   2
  -4  -8  -5 164.020 6.33684   2
  -4  -8  -5 151.609 6.86887   2
   4   8   5 164.544 7.65897   2
   4   8   5 167.117 7.59502   1
  -5  -8  -5 79.1934 6.14678   2
  -5  -8  -5 75.1753 4.84370   2
   5   8   5 70.8449 5.27860   1
   5   8   5 92.9795 7.16790   2
  -6  -8  -5 790.804 21.5386   2
   6   8   5 758.242 23.7833   1
   6   8   5 785.437 22.0456   2
   7   8   5 10.3034 3.38834   2
  -5   9   5 27.2429 4.19963   2
  -4   9   5 186.649 7.89509   2
   3  -9  -5 112.263 8.73689   2
  -3   9   5 134.214 5.89733   2
   2  -9  -5 52.2782 6.24078   2
  -2   9   5 61.3108 6.58132   2
   1  -9  -5 11.4439 2.82870   2
   1  -9  -5 10.5142 2.53809   2
  -1   9   5 12.2627 3.14281   2
   0  -9  -5 75.1699 4.29851   2
   0  -9  -5 77.7727 4.59898   2
   0   9   5 89.0055 5.80132   1
   0   9   5 86.1551 5.29598   2
  -1  -9  -5 902.680 22.5962   2
   1   9   5 953.970 27.5693   1
  -2  -9  -5 1.27110 1.98122   2
  -2  -9  -5 -1.4500 2.02735   2
   2   9   5 -0.6880 2.09096   1
   2   9   5 0.83617 2.36227   2
  -3  -9  -5 40.8419 4.50442   2
  -3  -9  -5 37.8184 4.54407   2
   3   9   5 43.3370 4.97395   2
   3   9   5 46.9700 4.46370   1
  -4  -9  -5 346.623 11.1047   2
   4   9   5 342.084 12.6222   1
   4   9   5 343.852 11.8835   2
   5   9   5 197.949 9.17601   1
   6   9   5 264.647 10.2734   2
   6   9   5 244.087 10.9170   1
   7   9   5 54.8501 6.71329   2
  -4  10   5 85.7207 6.34152   2
  -1  10   5 286.589 12.2287   1
   0  10   5 0.92887 2.84475   1
   1  10   5 684.666 21.9645   1
   2  10   5 29.7335 4.50035   1
   3  10   5 59.8223 5.38374   1
   4  10   5 258.186 11.0769   1
   5  10   5 121.822 6.77485   2
   5  10   5 115.726 7.44526   1
   6  10   5 15.9614 3.83593   2
  -1  11   5 485.731 18.6613   1
   0  11   5 9.04930 4.14088   1
   1  11   5 192.153 9.86343   1
   2  11   5 42.8244 5.80460   1
   3  11   5 161.867 8.72878   1
   3  11   5 127.589 5.62959   2
   4  11   5 131.232 6.42787   2
   5  11   5 -2.3802 3.34533   2
   2  10  -6 145.727 6.89798   1
   1  10  -6 156.886 6.71593   1
   0  10  -6 244.052 8.60285   1
  -1  10  -6 46.6887 3.88350   1
  -2  10  -6 41.2879 3.94268   1
  -3  10  -6 139.661 6.69164   1
   5   9  -6 76.8772 7.13877   1
   5   9  -6 89.8482 6.26647   2
   4   9  -6 194.433 8.48041   1
   4   9  -6 167.041 6.57162   2
   3   9  -6 84.7652 3.44770   2
   3   9  -6 100.237 5.64350   1
   3   9  -6 84.8879 3.60037   2
   2   9  -6 316.290 10.5028   1
   1   9  -6 211.662 7.49542   1
   0   9  -6 35.3822 3.00518   1
  -1   9  -6 6.66340 1.66054   1
  -2   9  -6 76.3826 4.06374   1
  -3   9  -6 63.1953 4.03704   1
  -4   9  -6 118.955 7.35718   1
  -6   9  -6 124.333 6.18115   2
   5   8  -6 56.9490 5.59322   1
   5   8  -6 59.9748 5.55369   2
   4   8  -6 57.4336 4.66378   1
   4   8  -6 50.2767 4.24004   2
   4   8  -6 49.9645 7.23145   2
   3   8  -6 13.4907 1.82644   2
   3   8  -6 23.6777 3.38862   1
   2   8  -6 524.820 13.1620   2
   2   8  -6 518.026 13.3224   2
   2   8  -6 550.208 15.5375   1
   1   8  -6 103.146 4.38957   1
   0   8  -6 36.5483 2.50005   1
  -1   8  -6 11.8394 1.80009   1
  -2   8  -6 2.93287 1.24104   1
  -3   8  -6 4.49080 1.42323   1
  -4   8  -6 777.168 18.9411   2
  -4   8  -6 791.206 21.8076   1
  -4   8  -6 770.295 19.1678   2
  -5   8  -6 3.79069 1.93482   2
  -5   8  -6 10.5977 3.72966   1
   5  -8   6 9.95621 2.26374   2
   5  -8   6 10.3135 2.63840   2
  -6   8  -6 -3.6787 2.32858   2
   6  -8   6 7.95799 3.74026   2
  -7   8  -6 63.7915 6.33510   2
   6   7  -6 293.823 11.9337   2
   5   7  -6 24.7473 5.41890   2
   5   7  -6 25.5638 4.10972   1
   5   7  -6 15.3887 3.01012   2
  -5  -7   6 16.3675 2.83241   2
  -5  -7   6 23.8051 6.33042   1
   4   7  -6 175.540 7.14902   2
   4   7  -6 194.605 7.63943   1
   4   7  -6 179.530 8.56349   2
  -4  -7   6 186.996 9.39034   1
   3   7  -6 11.4912 1.92811   1
   3   7  -6 10.1846 2.77767   2
   3   7  -6 9.30266 1.65466   2
   2   7  -6 177.040 5.73172   2
   2   7  -6 171.095 6.35595   2
   2   7  -6 188.631 6.49128   1
   1   7  -6 97.2292 3.28701   2
   1   7  -6 97.1481 3.48738   2
   1   7  -6 101.851 4.02777   1
   0   7  -6 142.247 3.81771   2
   0   7  -6 146.191 3.76634   2
   0   7  -6 153.952 4.99728   1
  -1   7  -6 0.74844 0.78238   1
  -2   7  -6 147.736 4.19016   2
  -2   7  -6 151.714 4.10683   2
  -2   7  -6 162.467 5.23049   1
  -3   7  -6 100.981 3.69792   2
  -4   7  -6 705.284 19.7634   1
  -4   7  -6 684.010 18.1764   2
   4  -7   6 741.197 17.8927   2
   4  -7   6 724.140 17.6494   2
  -5   7  -6 44.1107 5.09651   1
   5  -7   6 42.9893 4.55231   2
  -6   7  -6 99.7941 7.13967   1
  -6   7  -6 103.530 5.56176   2
   6  -7   6 109.583 7.42246   2
  -7   7  -6 206.434 8.68289   2
  -7   7  -6 179.656 10.6565   1
  -8   7  -6 354.788 13.2317   2
   7   6  -6 185.585 10.3935   2
   6   6  -6 10.8803 3.22447   2
  -6  -6   6 14.6081 3.19946   2
  -6  -6   6 11.3209 6.87058   1
   5   6  -6 -0.0139 2.11334   2
   5   6  -6 1.18952 3.99374   2
  -5  -6   6 1.77639 4.49771   1
  -5  -6   6 -1.2274 2.03405   2
   4   6  -6 357.951 12.1913   2
   4   6  -6 379.740 11.7978   2
   4   6  -6 367.030 11.8947   1
  -4  -6   6 350.554 13.0293   1
  -4  -6   6 373.868 11.2050   2
   3   6  -6 170.201 6.88565   2
   3   6  -6 167.071 6.34462   1
   3   6  -6 168.887 6.25393   2
  -3  -6   6 160.936 7.08674   1
   2   6  -6 1.87738 1.05086   1
   2   6  -6 1.15288 0.94000   2
   2   6  -6 0.72163 1.58351   2
   1   6  -6 291.016 8.51745   1
   1   6  -6 281.252 8.07162   2
   1   6  -6 292.678 7.99338   2
   0   6  -6 69.6674 2.71943   1
   0   6  -6 67.9384 2.53193   2
  -1   6  -6 27.3945 1.47929   2
  -1   6  -6 28.1524 1.52660   1
  -2   6  -6 1068.83 27.2639   1
  -2   6  -6 1061.25 25.1707   2
  -2   6  -6 1022.66 25.1601   2
   2  -6   6 1082.72 24.6897   2
   2  -6   6 1057.55 24.5429   2
  -3   6  -6 241.248 7.06752   2
  -3   6  -6 229.977 7.21845   1
   3  -6   6 232.189 6.74083   2
   3  -6   6 234.953 6.99915   2
  -4   6  -6 103.773 4.67506   1
  -4   6  -6 104.479 4.44348   2
   4  -6   6 106.642 4.61357   2
  -5   6  -6 43.7376 4.19131   1
  -5   6  -6 52.8031 3.49990   2
   5  -6   6 52.8577 4.52758   2
   5  -6   6 46.7742 3.64621   2
  -6   6  -6 871.390 23.1871   2
  -6   6  -6 872.357 24.5426   1
   6  -6   6 867.890 23.2599   2
   6  -6   6 847.556 23.1591   2
  -7   6  -6 176.672 7.97655   2
   7  -6   6 182.637 8.46018   2
  -8   6  -6 168.042 8.44102   2
   7   5  -6 29.1460 4.47840   2
  -7  -5   6 28.9208 4.49350   2
   6   5  -6 0.36471 5.03172   2
   6   5  -6 3.19000 2.80376   2
  -6  -5   6 -1.0249 5.71899   1
  -6  -5   6 3.51222 2.78789   2
   5   5  -6 23.3534 4.37086   2
   5   5  -6 25.1852 3.46500   2
  -5  -5   6 25.0440 3.17663   2
  -5  -5   6 25.2414 5.25186   1
   4   5  -6 203.214 8.36530   2
  -4  -5   6 200.483 8.81946   1
  -4  -5   6 197.415 7.33632   2
  -4  -5   6 202.949 8.57661   2
   3   5  -6 230.652 7.72245   2
   3   5  -6 230.366 7.98918   2
   3   5  -6 225.381 7.60112   1
  -3  -5   6 221.726 8.06373   2
  -3  -5   6 211.934 8.13765   1
  -3  -5   6 217.587 7.25643   2
   2   5  -6 0.67262 1.39336   2
   2   5  -6 1.28941 0.92172   2
   2   5  -6 2.09731 1.01573   1
  -2  -5   6 1.84089 1.45213   1
  -2  -5   6 1.75052 1.65589   2
   1   5  -6 264.879 7.76050   2
   1   5  -6 270.967 7.90949   1
   1   5  -6 270.875 7.84138   2
  -1  -5   6 283.228 7.91843   2
   0   5  -6 94.0468 3.47620   2
   0   5  -6 91.3654 3.00670   1
   0   5  -6 87.7066 3.25324   2
   0  -5   6 97.3141 3.42835   2
  -1   5  -6 525.745 12.9751   2
  -1   5  -6 515.805 12.9968   2
   1  -5   6 521.397 12.8428   2
  -2   5  -6 1734.82 40.2891   2
  -2   5  -6 1740.26 43.3233   1
  -2   5  -6 1657.06 40.1087   2
   2  -5   6 1759.28 40.1147   2
  -3   5  -6 414.611 11.6408   1
  -3   5  -6 437.841 11.4404   2
   3  -5   6 418.221 11.2301   2
  -4   5  -6 1.23021 1.06030   2
  -4   5  -6 0.94790 1.34100   1
   4  -5   6 0.30177 1.03301   2
   4  -5   6 2.07365 1.49934   2
  -5   5  -6 143.959 5.89206   2
  -5   5  -6 149.358 6.09975   1
   5  -5   6 151.307 6.14059   2
   5  -5   6 152.350 6.43589   2
  -6   5  -6 972.548 25.9931   2
  -6   5  -6 1005.62 27.3617   1
   6  -5   6 989.810 26.0806   2
   6  -5   6 990.777 26.1205   2
  -7   5  -6 4.81697 2.32048   2
   7  -5   6 4.62313 2.55139   2
   7  -5   6 5.61021 4.04571   2
  -8   5  -6 0.53530 2.61998   2
  -8   5  -6 8.73182 4.97389   1
   8  -5   6 1.95984 3.29929   2
  -8  -4   6 98.7307 9.46447   2
   7   4  -6 1.42309 6.46635   2
   7   4  -6 8.80466 3.39804   2
  -7  -4   6 3.29370 3.51349   2
   6   4  -6 17.9858 5.13179   2
  -6  -4   6 19.7800 5.48599   1
  -6  -4   6 15.6960 3.02929   2
   5   4  -6 1.29957 1.85900   2
   5   4  -6 -1.8883 2.96097   2
  -5  -4   6 2.00947 1.71270   2
  -5  -4   6 -0.3024 3.40941   1
  -5  -4   6 -1.2383 3.19869   2
   4   4  -6 78.3423 5.29734   2
   4   4  -6 71.5370 4.31389   2
  -4  -4   6 73.4671 5.40417   1
  -4  -4   6 75.7131 4.23312   2
  -4  -4   6 82.2446 5.69198   2
   3   4  -6 1037.50 25.6104   2
   3   4  -6 1011.47 25.7124   2
  -3  -4   6 972.055 27.3830   1
  -3  -4   6 1038.23 25.7320   2
  -3  -4   6 977.449 25.2465   2
   2   4  -6 38.1921 2.94013   2
   2   4  -6 39.9158 2.54968   2
  -2  -4   6 39.3667 2.77264   1
  -2  -4   6 37.3558 2.34267   2
   1   4  -6 52.4572 2.59730   2
   1   4  -6 58.6491 2.99692   2
  -1  -4   6 54.5206 2.98826   2
  -1  -4   6 55.7627 2.77950   2
  -1  -4   6 54.6511 2.47250   1
   0   4  -6 904.990 21.9420   2
   0   4  -6 890.017 21.9755   2
   0  -4   6 926.455 21.9576   2
  -1   4  -6 1340.69 32.3081   2
  -1   4  -6 1387.72 32.3885   2
   1  -4   6 1392.77 32.3390   2
  -2   4  -6 954.109 22.7939   2
  -2   4  -6 908.132 23.7940   1
  -2   4  -6 955.377 22.8888   2
   2  -4   6 968.854 22.8808   2
  -3   4  -6 206.563 6.47857   2
  -3   4  -6 203.753 6.20610   1
   3  -4   6 218.638 6.59215   2
  -4   4  -6 870.225 23.9859   1
  -4   4  -6 938.146 23.0210   2
   4  -4   6 921.597 22.8422   2
  -5   4  -6 37.7422 2.96154   2
  -5   4  -6 39.2339 3.22158   1
   5  -4   6 37.2891 3.00947   2
   5  -4   6 41.5101 3.87473   2
  -6   4  -6 869.680 23.8457   1
   6  -4   6 858.233 23.0114   2
   6  -4   6 824.096 22.8169   2
  -7   4  -6 16.8150 2.74909   2
  -7   4  -6 14.0801 3.28958   1
   7  -4   6 7.84303 3.66864   2
   7  -4   6 13.4274 2.96440   2
  -8   4  -6 91.9357 6.07747   2
  -8   4  -6 100.618 8.27124   1
   8  -4   6 95.1038 6.71385   2
  -9   4  -6 58.2997 6.13995   2
   8   3  -6 56.6935 8.12915   2
  -8  -3   6 52.4723 6.44359   2
   7   3  -6 73.0267 10.7263   2
   7   3  -6 82.3043 6.39571   2
  -7  -3   6 76.5485 6.45898   2
   6   3  -6 27.6455 3.97724   2
   6   3  -6 21.8600 5.00149   2
  -6  -3   6 25.5115 4.94280   1
  -6  -3   6 16.4683 5.06482   2
  -6  -3   6 25.3706 3.56443   2
   5   3  -6 139.140 6.75721   2
   5   3  -6 143.107 7.82623   2
  -5  -3   6 140.958 7.72468   1
  -5  -3   6 133.377 7.66544   2
  -5  -3   6 139.205 6.40328   2
   4   3  -6 14.4060 2.75732   2
   4   3  -6 14.8725 2.42326   2
  -4  -3   6 17.7884 3.05277   2
  -4  -3   6 14.9719 2.08138   2
   3   3  -6 1383.24 34.6524   2
   3   3  -6 1441.24 35.0310   2
  -3  -3   6 1385.96 37.4543   1
  -3  -3   6 1439.39 34.6529   2
  -3  -3   6 1427.32 34.8998   2
   2   3  -6 10.8801 1.72135   2
   2   3  -6 10.4169 1.52151   2
  -2  -3   6 9.45520 1.61374   1
  -2  -3   6 11.1830 1.57270   2
  -2  -3   6 10.4071 1.86484   2
   1   3  -6 279.882 8.06959   2
   1   3  -6 273.710 8.02055   2
  -1  -3   6 274.030 7.80782   1
  -1  -3   6 276.083 7.84879   2
  -1  -3   6 271.377 8.06655   2
   0   3  -6 1480.58 35.0870   2
   0   3  -6 1517.69 35.2305   2
   0  -3   6 1461.59 35.1272   2
  -1   3  -6 1159.35 26.8015   2
  -1   3  -6 1112.32 26.6315   2
   1  -3   6 1079.61 26.6800   2
  -2   3  -6 189.661 4.90504   1
  -2   3  -6 195.211 5.80905   2
   2  -3   6 183.582 5.85576   2
  -3   3  -6 19.6794 1.49287   1
  -3   3  -6 22.9672 1.75702   2
   3  -3   6 19.5232 2.12831   2
  -4   3  -6 1397.44 33.7824   2
  -4   3  -6 1379.26 35.7923   1
  -5   3  -6 -0.4062 0.98957   2
  -5   3  -6 4.82754 1.70180   1
   5  -3   6 1.38018 1.67328   2
  -6   3  -6 174.231 6.74516   2
   6  -3   6 155.293 7.09766   2
   6  -3   6 164.315 6.81804   2
  -7   3  -6 35.8595 3.57673   2
  -7   3  -6 33.1825 4.84344   1
   7  -3   6 34.4406 3.87865   2
   7  -3   6 29.2575 4.20487   2
  -8   3  -6 80.8140 5.40587   2
  -8   3  -6 88.0107 7.40259   1
   8  -3   6 84.0974 6.33517   2
  -9   3  -6 41.8972 5.56446   2
   9  -3   6 32.2797 4.36713   2
  10  -3   6 101.394 9.81737   2
  -9  -2   6 -4.8148 5.90498   2
   8   2  -6 38.3200 5.41041   2
  -8  -2   6 36.5814 5.15737   2
   7   2  -6 49.5061 5.42495   2
   7   2  -6 51.3271 7.47129   2
  -7  -2   6 55.4150 5.84858   2
   6   2  -6 46.4804 4.53260   2
   6   2  -6 53.1375 6.91353   2
  -6  -2   6 36.8056 5.49368   2
  -6  -2   6 45.7273 4.42166   2
  -6  -2   6 42.8092 6.40906   1
   5   2  -6 732.052 20.6333   2
  -5  -2   6 730.451 20.3225   2
  -5  -2   6 737.970 21.6228   1
  -5  -2   6 687.536 20.5809   2
   4   2  -6 69.1132 4.11522   2
   4   2  -6 71.5300 4.91706   2
  -4  -2   6 68.1901 5.05791   2
  -4  -2   6 63.0818 3.97491   2
   3   2  -6 346.637 10.7428   2
   3   2  -6 358.576 10.7720   2
  -3  -2   6 354.662 10.8968   2
  -3  -2   6 355.272 10.6016   2
  -3  -2   6 349.377 11.0979   1
   2   2  -6 336.434 9.76062   2
   2   2  -6 337.596 9.83691   2
  -2  -2   6 316.247 9.89206   1
  -2  -2   6 326.769 9.57042   2
  -2  -2   6 335.170 9.82795   2
   1   2  -6 1432.68 33.4217   2
   1   2  -6 1409.06 33.5159   2
  -1  -2   6 1317.24 35.5383   1
  -1  -2   6 1422.50 33.4931   2
  -1  -2   6 1388.33 33.2729   2
   0   2  -6 1092.38 27.0360   2
   0   2  -6 1136.55 26.9846   2
   0  -2   6 1138.65 26.8705   2
   0  -2   6 1144.72 27.0988   2
   0  -2   6 1100.49 28.1693   1
  -1   2  -6 1646.39 37.8329   2
  -1   2  -6 1650.81 37.9695   2
   1  -2   6 1529.34 37.8285   2
  -2   2  -6 105.946 3.87510   2
  -2   2  -6 108.999 3.08858   1
   2  -2   6 110.230 4.08354   2
  -3   2  -6 14.0842 1.29563   1
  -3   2  -6 13.1076 1.36624   2
   3  -2   6 14.0231 1.95450   2
  -4   2  -6 1244.80 33.5785   1
  -4   2  -6 1336.09 31.8053   2
   4  -2   6 1316.79 31.7418   2
  -5   2  -6 41.1462 3.13796   1
  -5   2  -6 41.9530 2.89655   2
   5  -2   6 48.2965 3.69692   2
  -6   2  -6 54.5527 3.65997   2
   6  -2   6 54.4548 4.69541   2
  -7   2  -6 116.835 5.88550   2
  -7   2  -6 116.627 6.62633   1
   7  -2   6 112.516 5.98746   2
   7  -2   6 108.150 7.12083   2
  -8   2  -6 8.81215 3.87676   1
  -8   2  -6 10.6255 2.47423   2
   8  -2   6 7.06459 2.80847   2
  -9   2  -6 188.485 9.00338   2
   9  -2   6 168.019 9.34579   2
  10  -2   6 303.049 13.8153   2
   8   1  -6 39.9064 5.58241   2
  -8  -1   6 30.0643 4.82058   2
   7   1  -6 0.95568 5.49384   2
   7   1  -6 1.33213 2.92761   2
  -7  -1   6 5.27773 2.90707   2
   6   1  -6 139.632 8.67350   2
   6   1  -6 140.526 7.29475   2
  -6  -1   6 158.545 8.47804   1
  -6  -1   6 149.501 7.42549   2
  -6  -1   6 147.174 9.45392   2
   5   1  -6 1162.53 29.6679   2
   5   1  -6 1117.89 29.9164   2
  -5  -1   6 1108.93 29.3640   2
  -5  -1   6 1103.56 29.7656   2
  -5  -1   6 1107.78 31.1730   1
   4   1  -6 134.345 6.15064   2
   4   1  -6 136.707 6.41719   2
  -4  -1   6 135.779 6.51313   2
  -4  -1   6 131.316 5.77332   2
  -4  -1   6 138.745 6.18080   1
   3   1  -6 0.69232 1.49304   2
   3   1  -6 1.30906 1.10501   2
  -3  -1   6 1.09200 1.08133   2
  -3  -1   6 -0.4969 1.38413   1
   2   1  -6 636.367 16.0446   2
   2   1  -6 591.397 16.0183   2
  -2  -1   6 575.528 16.5317   1
  -2  -1   6 606.229 16.0716   2
  -2  -1   6 599.464 15.8715   2
   1   1  -6 4072.60 94.5608   2
   1   1  -6 4078.42 97.2553   2
  -1  -1   6 4001.90 105.795   1
  -1  -1   6 4268.73 94.7959   2
  -1  -1   6 4125.65 96.7840   2
   0   1  -6 175.980 5.61341   2
   0   1  -6 170.909 5.55970   2
   0  -1   6 176.951 5.71596   2
   0  -1   6 175.677 5.47034   2
  -1   1  -6 22.1708 1.55571   2
  -1   1  -6 22.5271 1.76342   2
   1  -1   6 23.7927 1.94001   2
  -2   1  -6 1037.20 24.6684   2
   2  -1   6 977.870 25.6973   1
   2  -1   6 1021.68 24.6936   2
  -3   1  -6 738.554 19.4349   1
  -3   1  -6 747.942 18.7174   2
   3  -1   6 721.403 19.5058   1
   3  -1   6 754.034 18.8075   2
  -4   1  -6 627.113 16.1709   2
  -4   1  -6 606.480 16.6843   1
   4  -1   6 578.394 16.0540   2
   4  -1   6 619.392 16.8417   1
  -5   1  -6 409.851 11.8724   2
  -5   1  -6 400.125 12.1232   1
   5  -1   6 411.499 12.2292   1
   5  -1   6 379.885 11.8661   2
  -6   1  -6 57.6004 3.69444   2
   6  -1   6 53.7639 4.48422   2
   6  -1   6 57.6644 3.72579   1
  -7   1  -6 2.92605 2.76206   1
   7  -1   6 4.17879 2.78641   2
   7  -1   6 2.67167 1.80572   2
  -8   1  -6 66.1121 6.73830   1
  -8   1  -6 67.3330 4.95197   2
   8  -1   6 51.7801 4.98871   2
   8  -1   6 54.2681 7.30096   2
  -9   1  -6 325.075 12.1501   2
   9  -1   6 288.752 12.0707   2
 -10   1  -6 198.041 9.88158   2
  10  -1   6 183.933 10.9127   2
   8   0  -6 9.20655 4.48293   2
  -8   0   6 13.6290 4.24511   2
   7   0  -6 479.074 16.8355   2
  -7   0   6 466.579 15.9605   2
   6   0  -6 306.514 11.7547   2
   6   0  -6 305.010 12.4774   2
  -6   0   6 302.792 12.0949   1
  -6   0   6 322.298 11.7310   2
  -6   0   6 292.062 12.8847   2
   5   0  -6 860.304 24.6200   2
   5   0  -6 899.612 24.4623   2
  -5   0   6 883.004 25.6112   1
  -5   0   6 906.573 24.8377   2
  -5   0   6 924.201 24.4990   2
   4   0  -6 249.643 9.17950   2
   4   0  -6 271.280 9.41265   2
  -4   0   6 277.770 9.74171   2
  -4   0   6 255.518 9.29537   1
  -4   0   6 265.620 9.15187   2
   3   0  -6 807.635 20.8734   2
   3   0  -6 804.674 21.1284   2
  -3   0   6 782.003 21.8294   2
  -3   0   6 797.976 21.9493   1
  -3   0   6 790.852 20.8556   2
   2   0  -6 64.2483 3.53028   2
   2   0  -6 64.7623 3.37014   2
  -2   0   6 65.2363 3.31640   2
  -2   0   6 68.8062 3.80213   2
   1   0  -6 1983.92 45.9946   2
   1   0  -6 1985.32 45.8030   2
  -1   0   6 1883.11 45.8528   2
  -1   0   6 1899.15 45.7258   2
   0   0  -6 0.28807 0.57247   2
   0   0  -6 0.65787 0.79248   2
   0   0   6 2.43846 0.73976   2
   0   0   6 0.87506 0.92008   2
  -1   0  -6 365.572 9.96050   2
  -1   0  -6 371.866 9.91634   2
   1   0   6 355.079 9.98971   2
   1   0   6 358.266 9.88908   1
  -2   0  -6 721.210 17.6035   2
   2   0   6 670.977 18.1164   1
   2   0   6 693.450 17.5984   2
  -3   0  -6 14.0621 1.52894   1
  -3   0  -6 13.8318 1.45068   2
   3   0   6 16.3821 1.30841   1
   3   0   6 15.1975 1.99086   2
  -4   0  -6 51.3125 2.94714   1
  -4   0  -6 53.8858 2.92440   2
   4   0   6 48.4490 2.57712   1
   4   0   6 49.3699 3.22081   2
  -5   0  -6 629.726 18.0787   1
  -5   0  -6 632.534 17.2056   2
   5   0   6 640.994 17.9991   1
  -6   0  -6 1.25964 1.23936   2
  -6   0  -6 1.69523 1.84354   1
   6   0   6 1.49846 2.09476   2
   6   0   6 1.63194 1.19432   1
  -7   0  -6 97.4076 6.31763   1
  -7   0  -6 99.9938 5.37947   2
   7   0   6 101.255 5.27251   1
   7   0   6 88.2410 5.29119   2
   7   0   6 81.3316 6.29070   2
  -8   0  -6 283.433 11.9144   1
  -8   0  -6 276.779 10.5128   2
   8   0   6 273.191 10.9116   2
   8   0   6 290.674 10.5741   1
   8   0   6 261.920 11.7303   2
  -9   0  -6 511.424 16.8486   2
   9   0   6 499.027 17.0221   2
 -10   0  -6 16.7461 4.18405   2
  10   0   6 14.9987 4.51454   2
   8  -1  -6 53.8882 7.93240   2
  -8   1   6 49.7718 5.94120   2
   7  -1  -6 381.934 14.9036   2
  -7   1   6 414.695 14.5919   2
   6  -1  -6 465.489 15.9324   2
   6  -1  -6 469.672 15.7149   2
  -6   1   6 458.229 16.4725   2
  -6   1   6 486.205 15.3819   2
  -6   1   6 455.313 15.8838   1
   5  -1  -6 167.100 7.59237   2
   5  -1  -6 176.133 8.09952   2
  -5   1   6 164.759 7.29287   2
  -5   1   6 163.370 7.61974   1
  -5   1   6 174.275 8.66188   2
   4  -1  -6 192.126 7.45818   2
   4  -1  -6 188.068 7.52763   2
  -4   1   6 182.399 7.84853   2
  -4   1   6 180.618 7.18818   2
  -4   1   6 180.010 7.26955   1
   3  -1  -6 2160.14 52.2764   2
   3  -1  -6 2164.77 51.9184   2
  -3   1   6 2136.32 52.0161   2
  -3   1   6 2224.39 52.2715   2
   2  -1  -6 124.454 5.04685   2
   2  -1  -6 119.113 4.90655   2
  -2   1   6 118.552 5.19956   2
  -2   1   6 123.968 4.86605   2
   1  -1  -6 671.094 17.6897   2
   1  -1  -6 699.664 17.6377   2
  -1   1   6 682.660 17.7679   2
  -1   1   6 684.623 17.5999   2
   0  -1  -6 11.3040 1.66139   2
   0  -1  -6 9.89122 1.28262   2
   0   1   6 10.7011 1.63091   2
   0   1   6 12.1217 1.30488   2
  -1  -1  -6 427.476 11.5650   2
  -1  -1  -6 432.375 11.5331   2
   1   1   6 430.281 11.6689   2
  -2  -1  -6 536.767 14.1313   2
   2   1   6 548.265 14.7896   1
   2   1   6 546.110 14.3016   2
  -3  -1  -6 665.596 17.9437   1
  -3  -1  -6 672.281 16.9455   2
   3   1   6 666.973 17.7574   1
   3   1   6 617.163 16.9321   2
  -4  -1  -6 149.124 5.69440   1
  -4  -1  -6 159.061 5.57821   2
   4   1   6 146.109 5.77325   2
   4   1   6 145.761 5.30571   1
  -5  -1  -6 525.796 14.8964   2
  -5  -1  -6 540.663 15.9104   1
   5   1   6 553.522 15.3029   2
   5   1   6 521.999 15.4460   1
  -6  -1  -6 141.682 6.05668   2
  -6  -1  -6 138.313 6.51852   1
   6   1   6 135.005 5.76663   1
   6   1   6 144.138 6.84066   2
  -7  -1  -6 987.183 28.5204   1
  -7  -1  -6 957.280 26.4413   2
   7   1   6 1004.54 28.0756   1
   7   1   6 1029.20 27.2440   2
  -8  -1  -6 142.559 8.74566   1
  -8  -1  -6 158.508 7.35063   2
   8   1   6 145.911 9.22094   2
   8   1   6 141.900 7.46024   2
   8   1   6 151.356 7.07451   1
  -9  -1  -6 484.334 16.3060   2
   9   1   6 526.756 16.9818   1
   9   1   6 480.783 16.7280   2
 -10  -1  -6 75.4764 7.15894   2
  10   1   6 54.5023 7.57408   2
   8  -2  -6 249.661 13.0699   2
  -8   2   6 257.169 12.2638   2
   7  -2  -6 423.622 15.7018   2
  -7   2   6 427.580 15.0897   2
   6  -2  -6 327.776 13.0433   2
   6  -2  -6 336.334 12.5928   2
  -6   2   6 339.474 14.1292   2
  -6   2   6 327.413 12.9855   1
  -6   2   6 327.575 11.9637   2
   5  -2  -6 75.6797 4.94924   2
   5  -2  -6 82.3904 6.01760   2
  -5   2   6 80.5200 5.76470   1
  -5   2   6 84.6186 6.96540   2
   4  -2  -6 38.4717 3.32668   2
   4  -2  -6 37.2035 4.02513   2
  -4   2   6 35.2356 3.28244   2
  -4   2   6 42.1327 4.77570   2
   3  -2  -6 1851.28 45.3957   2
   3  -2  -6 1843.54 45.0189   2
  -3   2   6 1896.56 45.4219   2
  -3   2   6 1865.76 45.2510   2
   2  -2  -6 34.6538 2.51846   2
   2  -2  -6 31.7141 2.75980   2
  -2   2   6 32.4267 2.39549   2
  -2   2   6 26.8493 2.93770   2
   1  -2  -6 100.867 4.17879   2
   1  -2  -6 100.317 4.29681   2
  -1   2   6 98.0507 4.02346   2
  -1   2   6 102.376 4.51120   2
   0  -2  -6 64.7230 3.24185   2
   0  -2  -6 58.9568 2.97006   2
   0   2   6 63.6033 3.41657   2
   0   2   6 65.4870 2.95560   2
  -1  -2  -6 12.0868 1.71916   2
  -1  -2  -6 9.71221 1.30015   2
   1   2   6 12.4705 1.84237   2
  -2  -2  -6 492.617 12.7159   2
  -2  -2  -6 464.332 12.5446   2
   2   2   6 465.724 12.7937   2
   2   2   6 468.601 13.3730   1
  -3  -2  -6 1354.47 35.1630   1
  -3  -2  -6 1391.16 32.4856   2
   3   2   6 1358.91 34.9898   1
   3   2   6 1252.31 32.4341   2
  -4  -2  -6 355.949 10.3774   2
  -4  -2  -6 359.485 11.1685   1
   4   2   6 348.912 10.7227   1
   4   2   6 352.890 10.6538   2
  -5  -2  -6 28.8213 2.49735   2
   5   2   6 31.0626 2.43678   1
   5   2   6 31.2596 3.57613   2
  -6  -2  -6 42.1474 4.22940   1
  -6  -2  -6 36.0052 3.07233   2
   6   2   6 39.5981 4.58776   2
   6   2   6 40.8676 3.08062   1
  -7  -2  -6 1667.26 46.5810   1
  -7  -2  -6 1738.48 43.0100   2
   7   2   6 1733.36 43.4848   2
   7   2   6 1721.42 46.0033   1
  -8  -2  -6 36.5176 3.93838   2
  -8  -2  -6 29.8286 5.45798   1
   8   2   6 25.2596 5.16500   2
   8   2   6 31.9339 3.85375   1
   8   2   6 27.5716 3.69744   2
  -9  -2  -6 36.6997 4.98523   2
   9   2   6 31.0219 4.39844   1
   9   2   6 32.8725 4.60794   2
 -10  -2  -6 202.887 10.7311   2
  10   2   6 195.089 10.7424   2
  10   2   6 211.506 10.2610   1
   8  -3  -6 436.789 17.5736   2
   7  -3  -6 190.917 10.3781   2
  -7   3   6 184.165 9.24802   2
  -6   3   6 32.1182 6.21511   2
  -6   3   6 32.0100 4.19233   2
   5  -3  -6 267.034 10.6024   2
   5  -3  -6 284.458 10.6583   2
  -5   3   6 296.806 11.7612   2
  -5   3   6 275.175 10.7069   1
  -5   3   6 281.682 10.4264   2
   4  -3  -6 25.6296 3.14832   2
   4  -3  -6 33.9918 4.15473   2
  -4   3   6 31.1060 3.07470   2
  -4   3   6 36.4072 4.91418   2
   3  -3  -6 153.178 6.30985   2
   3  -3  -6 156.910 6.49964   2
  -3   3   6 153.886 6.23154   2
  -3   3   6 157.532 6.87367   2
   2  -3  -6 280.084 9.18781   2
  -2   3   6 297.690 9.22876   2
  -2   3   6 302.767 9.57602   2
   1  -3  -6 185.075 6.35142   2
   1  -3  -6 183.623 6.37576   2
  -1   3   6 179.574 6.58578   2
  -1   3   6 179.983 6.17941   2
   0  -3  -6 26.9501 2.40963   2
   0  -3  -6 27.3508 2.07025   2
   0   3   6 27.3426 1.85685   2
   0   3   6 29.6645 2.57940   2
  -1  -3  -6 86.6365 3.64083   2
  -1  -3  -6 85.1502 3.75605   2
   1   3   6 87.8556 4.04583   2
  -2  -3  -6 644.312 16.6955   2
  -2  -3  -6 646.185 16.6558   2
   2   3   6 649.046 18.1148   1
   2   3   6 656.585 16.9614   2
  -3  -3  -6 1318.43 32.1436   2
   3   3   6 1328.58 34.9794   1
   3   3   6 1328.17 32.4224   2
  -4  -3  -6 324.396 10.5837   1
  -4  -3  -6 316.555 9.56872   2
   4   3   6 316.126 10.1153   1
   4   3   6 311.766 9.90864   2
  -5  -3  -6 511.905 14.7117   2
  -5  -3  -6 519.328 16.1200   1
   5   3   6 527.797 15.2274   2
   5   3   6 533.685 15.6506   1
  -6  -3  -6 86.3323 4.66505   2
  -6  -3  -6 86.5038 5.77650   1
   6   3   6 96.1997 6.07250   2
   6   3   6 79.8314 4.41514   1
  -7  -3  -6 963.944 28.6895   1
  -7  -3  -6 935.187 25.9429   2
   7   3   6 978.823 26.8772   2
   7   3   6 999.437 27.8999   1
  -8  -3  -6 0.29971 4.23747   1
   8   3   6 -1.9304 4.43588   2
   8   3   6 2.72990 2.08229   1
   8   3   6 -3.4358 2.05334   2
  -9  -3  -6 37.6325 5.27355   2
   9   3   6 33.3912 4.69173   2
   9   3   6 47.7527 4.70375   1
 -10  -3  -6 200.832 10.7022   2
  10   3   6 177.755 10.3071   2
  10   3   6 199.995 10.3069   1
   8  -4  -6 374.914 16.8758   2
   7  -4  -6 -4.8328 3.97961   2
  -7   4   6 -4.3691 3.29054   2
  -6   4   6 31.9578 6.62030   2
  -6   4   6 40.2518 4.78010   2
   5  -4  -6 467.299 15.1288   2
   5  -4  -6 445.481 15.0677   2
  -5   4   6 441.123 14.6427   2
  -5   4   6 499.928 16.2462   2
   4  -4  -6 5.58577 2.55387   2
   4  -4  -6 0.04663 1.71964   2
  -4   4   6 1.87600 2.79676   2
   3  -4  -6 141.235 6.11090   2
   3  -4  -6 146.826 6.38156   2
  -3   4   6 144.017 6.07257   2
  -3   4   6 146.103 6.75975   2
   2  -4  -6 602.949 16.4498   2
   2  -4  -6 602.100 16.2956   2
  -2   4   6 583.614 16.5311   2
  -2   4   6 608.220 16.3975   2
   1  -4  -6 1.65561 0.98887   2
  -1   4   6 0.11589 1.38712   2
  -1   4   6 1.05131 0.83254   2
   0  -4  -6 120.859 4.65228   2
   0  -4  -6 115.541 4.77195   2
   0   4   6 118.450 5.06703   2
   0   4   6 122.731 4.54554   2
  -1  -4  -6 817.142 20.4332   2
  -1  -4  -6 822.087 20.4356   2
   1   4   6 786.038 20.5925   2
  -2  -4  -6 1562.90 37.0316   2
  -2  -4  -6 1556.86 37.0666   2
   2   4   6 1488.39 40.6173   1
   2   4   6 1575.51 37.3867   2
  -3  -4  -6 213.233 6.90712   2
   3   4   6 207.946 7.46649   1
   3   4   6 211.665 7.33093   2
  -4  -4  -6 19.5227 2.06364   2
  -4  -4  -6 16.7062 2.71474   1
   4   4   6 19.9192 2.06765   1
   4   4   6 18.6185 2.64826   2
  -5  -4  -6 1746.00 48.1519   1
  -5  -4  -6 1831.97 43.9782   2
   5   4   6 1849.13 47.7711   1
   5   4   6 1791.18 44.2468   2
  -6  -4  -6 4.73369 3.09642   1
  -6  -4  -6 2.34552 1.53153   2
   6   4   6 5.99066 2.83415   2
   6   4   6 4.49709 1.65130   1
  -7  -4  -6 399.303 12.9312   2
  -7  -4  -6 371.217 14.5692   1
   7   4   6 390.596 13.3484   1
   7   4   6 408.443 14.3264   2
   8   4   6 32.6802 3.66241   1
   8   4   6 21.8286 3.52390   2
   8   4   6 22.1869 5.63999   2
  -9  -4  -6 136.328 8.31794   2
   9   4   6 138.429 8.33597   2
   9   4   6 127.351 7.57861   1
 -10  -4  -6 129.381 9.22565   2
   7  -5  -6 2.74146 4.74730   2
  -7   5   6 8.50126 3.99373   2
   6  -5  -6 92.1920 7.51663   2
  -6   5   6 84.5536 6.40510   2
  -6   5   6 91.7285 12.0940   2
   5  -5  -6 193.155 8.93600   2
  -5   5   6 206.682 10.9866   2
  -5   5   6 202.056 8.70696   2
   4  -5  -6 99.2103 6.55021   2
   4  -5  -6 92.4462 5.49571   2
  -4   5   6 94.4131 5.14147   2
   3  -5  -6 44.2537 3.51523   2
   3  -5  -6 36.8992 4.34769   2
  -3   5   6 39.6502 4.93114   2
  -3   5   6 44.8039 3.43337   2
   2  -5  -6 64.1973 3.82141   2
   2  -5  -6 60.3503 4.14817   2
  -2   5   6 66.0521 3.64673   2
  -2   5   6 59.7149 4.52547   2
   1  -5  -6 3.82333 1.32606   2
   1  -5  -6 5.99454 1.77175   2
  -1   5   6 5.01437 1.16423   2
  -1   5   6 3.39589 1.88331   2
   0  -5  -6 994.260 24.4657   2
   0  -5  -6 986.137 24.4570   2
   0   5   6 982.055 24.2965   2
   0   5   6 947.224 24.6328   2
  -1  -5  -6 753.120 19.2329   2
   1   5   6 765.909 21.5716   1
   1   5   6 742.468 19.5526   2
  -2  -5  -6 815.362 19.8429   2
  -2  -5  -6 730.741 20.0156   2
   2   5   6 809.595 20.2155   2
   2   5   6 743.519 21.8886   1
  -3  -5  -6 218.797 7.25785   2
  -3  -5  -6 210.873 7.03135   2
   3   5   6 217.566 7.71725   2
   3   5   6 211.831 7.87742   1
  -4  -5  -6 23.1071 2.47217   2
   4   5   6 23.0777 2.53445   1
   4   5   6 22.3892 2.88133   2
  -5  -5  -6 1400.69 35.0067   2
  -5  -5  -6 1393.16 38.8661   1
   5   5   6 1402.25 38.1539   1
   5   5   6 1430.04 35.5680   2
  -6  -5  -6 16.0654 3.93401   1
  -6  -5  -6 8.66333 2.02985   2
   6   5   6 10.0516 2.13022   1
  -7  -5  -6 2.81902 4.35138   1
  -7  -5  -6 3.30786 2.11935   2
   7   5   6 -1.7218 1.72950   1
   7   5   6 3.70339 4.06738   2
  -8  -5  -6 77.5160 6.11540   2
   8   5   6 91.2516 5.96252   1
   8   5   6 92.1719 10.7524   2
   8   5   6 73.5388 5.72410   2
  -9  -5  -6 149.543 8.76582   2
   9   5   6 155.480 8.98671   2
   9   5   6 178.328 8.93585   1
 -10  -5  -6 72.4005 9.47722   2
   6  -6  -6 27.0009 4.73834   2
  -6   6   6 23.1463 8.47291   2
  -6   6   6 16.7755 3.77657   2
   5  -6  -6 90.5051 6.52144   2
  -5   6   6 87.3830 6.06614   2
  -5   6   6 90.1619 9.72056   2
   4  -6  -6 559.603 16.3567   2
   4  -6  -6 491.442 16.1069   2
  -4   6   6 545.225 16.1768   2
   3  -6  -6 1.96612 1.61396   2
   3  -6  -6 2.23246 2.67915   2
  -3   6   6 7.37405 1.82405   2
  -3   6   6 1.03800 2.91324   2
   2  -6  -6 14.4101 2.27021   2
   2  -6  -6 11.2243 2.43640   2
  -2   6   6 13.1975 1.98713   2
  -2   6   6 13.5405 3.01201   2
   1  -6  -6 197.228 6.95841   2
   1  -6  -6 201.038 7.20032   2
  -1   6   6 203.925 6.88058   2
  -1   6   6 199.070 7.57667   2
   0  -6  -6 1803.65 42.2864   2
   0  -6  -6 1780.05 42.1957   2
   0   6   6 1704.67 42.4603   2
  -1  -6  -6 128.876 5.33407   2
  -1  -6  -6 135.154 4.99317   2
   1   6   6 123.029 5.77829   1
   1   6   6 123.928 5.62005   2
  -2  -6  -6 163.132 6.14982   2
  -2  -6  -6 167.330 5.82064   2
   2   6   6 165.300 6.89731   1
   2   6   6 165.944 6.54683   2
  -3  -6  -6 764.618 19.6394   2
  -3  -6  -6 753.524 19.5468   2
   3   6   6 740.593 20.0126   2
   3   6   6 761.697 21.9766   1
  -4  -6  -6 100.452 4.67458   2
   4   6   6 103.816 5.18771   1
   4   6   6 110.271 5.82351   2
  -5  -6  -6 698.296 18.9352   2
   5   6   6 680.947 20.6595   1
   5   6   6 694.463 19.7386   2
  -6  -6  -6 -1.2732 3.67926   1
  -6  -6  -6 1.99534 1.88473   2
   6   6   6 1.33111 3.44563   2
   6   6   6 -0.9771 1.71309   1
  -7  -6  -6 72.2821 5.48120   2
   7   6   6 65.0851 4.72154   1
   7   6   6 62.3183 6.93196   2
  -8  -6  -6 7.01214 3.26501   2
   8   6   6 8.00444 3.03800   2
   8   6   6 12.8871 3.25784   1
   8   6   6 -3.8729 6.40731   2
  -9  -6  -6 15.5236 4.59307   2
  -6   7   6 18.7079 4.49149   2
   5  -7  -6 282.604 11.3592   2
  -5   7   6 273.757 10.9661   2
   4  -7  -6 275.206 10.2334   2
  -4   7   6 262.785 9.94546   2
  -4   7   6 268.054 12.1404   2
   3  -7  -6 103.396 5.56596   2
   3  -7  -6 106.495 7.03248   2
  -3   7   6 110.252 7.61215   2
  -3   7   6 106.445 5.32983   2
   2  -7  -6 273.749 9.13192   2
   2  -7  -6 266.672 9.48248   2
  -2   7   6 272.516 10.0046   2
  -2   7   6 272.589 9.10432   2
   1  -7  -6 230.675 7.60313   2
  -1   7   6 212.405 8.26818   2
  -1   7   6 221.276 7.37596   2
   0  -7  -6 1329.80 33.0888   2
   0  -7  -6 1388.61 33.2147   2
   0   7   6 1359.76 33.6312   2
  -1  -7  -6 0.40571 1.75835   2
  -1  -7  -6 2.19001 1.13741   2
   1   7   6 0.83074 1.42996   1
   1   7   6 -0.8760 1.93609   2
  -2  -7  -6 -0.3281 1.05998   2
  -2  -7  -6 0.97653 1.90194   2
   2   7   6 -0.1798 1.36180   1
   2   7   6 0.49010 1.92721   2
  -3  -7  -6 677.663 17.6040   2
  -3  -7  -6 668.378 17.7091   2
   3   7   6 641.261 18.1094   2
  -4  -7  -6 117.712 5.94898   2
  -4  -7  -6 114.750 5.22688   2
   4   7   6 109.837 6.42801   2
   4   7   6 125.714 6.01291   1
  -5  -7  -6 231.038 8.27518   2
   5   7   6 221.279 9.60678   2
   5   7   6 217.058 9.01135   1
  -6  -7  -6 5.40929 2.20464   2
   6   7   6 3.25897 2.10420   1
   6   7   6 3.57519 4.27591   2
  -7  -7  -6 152.444 7.63717   2
   7   7   6 153.178 11.7537   2
   7   7   6 145.859 7.66914   1
   7   7   6 147.125 7.80460   2
  -8  -7  -6 46.8732 6.88439   2
   8   7   6 50.0247 6.03121   1
   8   7   6 58.7710 6.57824   2
  -5   8   6 54.2305 6.10139   2
   4  -8  -6 133.076 7.72094   2
  -4   8   6 127.247 6.78013   2
   3  -8  -6 33.3795 4.34538   2
   3  -8  -6 31.8787 4.94170   2
  -3   8   6 37.0391 5.49662   2
  -3   8   6 41.6976 3.78577   2
   2  -8  -6 903.994 24.2671   2
   2  -8  -6 950.472 24.1491   2
  -2   8   6 918.000 24.9287   2
  -2   8   6 937.292 24.0400   2
   1  -8  -6 20.4682 2.89876   2
   1  -8  -6 16.0671 3.04977   2
  -1   8   6 20.5074 3.41402   2
   0  -8  -6 493.428 13.9193   2
   0   8   6 508.078 14.6019   2
  -1  -8  -6 177.816 6.84127   2
   1   8   6 178.737 7.32865   2
   1   8   6 176.593 7.89212   1
   2   8   6 299.036 10.1595   2
   2   8   6 311.979 11.3148   1
  -3  -8  -6 520.082 14.2691   2
  -3  -8  -6 521.484 14.6246   2
   3   8   6 517.098 15.1430   2
   3   8   6 506.465 16.6877   1
  -4  -8  -6 3.59659 2.84522   2
  -4  -8  -6 2.36635 1.68668   2
   4   8   6 4.29877 2.08407   1
   4   8   6 4.20965 3.30680   2
  -5  -8  -6 1.87481 2.01560   2
  -5  -8  -6 2.88903 3.17576   2
   5   8   6 -0.1886 3.79501   2
   5   8   6 -4.6118 2.09345   1
  -6  -8  -6 111.840 6.37220   2
   6   8   6 110.605 6.68803   1
   6   8   6 115.236 9.89902   2
   7   8   6 10.7264 3.38815   1
   7   8   6 8.48955 3.22709   2
  -4   9   6 19.8039 3.45685   2
  -3   9   6 0.41273 2.19899   2
   2  -9  -6 698.523 19.6748   2
   1  -9  -6 10.6817 3.34263   2
  -1   9   6 8.93081 3.60555   2
   0  -9  -6 1.85171 2.68497   2
   0   9   6 2.59593 2.95443   2
   0   9   6 5.12634 2.45965   1
  -1  -9  -6 30.5139 3.24184   2
   1   9   6 37.4047 4.90723   2
   1   9   6 40.1388 4.56649   1
  -2  -9  -6 113.178 5.99936   2
   2   9   6 115.837 6.62412   2
   2   9   6 118.460 6.45542   1
  -3  -9  -6 175.197 7.64386   2
   3   9   6 172.374 8.17951   2
   3   9   6 187.080 8.59726   1
  -4  -9  -6 42.5366 6.13339   2
   4   9   6 44.3237 4.55582   1
   4   9   6 32.8974 4.54402   2
   5   9   6 0.65446 2.63968   1
   6   9   6 3.74908 3.02555   2
   7   9   6 6.74808 3.93575   2
  -1  10   6 8.62742 3.52261   1
   0 -10  -6 75.7532 6.15472   2
   0  10   6 91.9674 6.47024   1
  -1 -10  -6 60.9044 5.08365   2
   1  10   6 75.2303 5.77934   1
  -2 -10  -6 48.8653 4.88962   2
   2  10   6 37.9740 4.96696   1
  -3 -10  -6 35.1514 4.19939   2
   3  10   6 43.7394 5.54890   1
   4  10   6 202.311 9.79742   1
   5  10   6 2.37672 3.50955   1
   6  10   6 72.6347 7.13661   2
   1  11   6 49.4255 7.29754   1
   4  11   6 6.86271 3.05582   2
   5  11   6 7.40287 3.87050   2
   5   9  -7 143.762 7.79710   2
   4   9  -7 29.5865 3.20917   2
   3   9  -7 -0.1027 2.45366   1
   2   9  -7 77.4470 4.57213   1
   1   9  -7 28.9363 3.05600   1
   0   9  -7 0.50794 1.40825   1
  -1   9  -7 482.833 13.4094   1
  -2   9  -7 46.8712 2.94603   1
  -3   9  -7 247.554 7.85196   1
  -3   9  -7 224.937 8.68342   1
  -4   9  -7 107.179 5.29824   1
  -6   9  -7 167.876 7.18197   2
  -7   9  -7 79.0986 7.40285   2
   5   8  -7 54.3874 5.99469   2
   4   8  -7 161.461 6.96559   2
   4   8  -7 169.658 7.55633   1
   3   8  -7 45.8302 4.04530   1
   3   8  -7 42.8695 3.43021   2
   3   8  -7 50.5613 5.63591   2
   2   8  -7 84.6064 4.06871   2
   2   8  -7 88.5320 3.66488   2
   2   8  -7 106.282 4.60900   1
   1   8  -7 3.41909 0.69659   2
   1   8  -7 2.48569 1.34970   1
   0   8  -7 26.9266 2.07918   1
  -1   8  -7 899.211 23.3578   1
  -2   8  -7 72.2804 3.09415   1
  -3   8  -7 7.39634 0.80384   2
  -3   8  -7 6.00787 2.06918   1
  -3   8  -7 10.4654 1.23104   2
  -3   8  -7 7.67197 1.42594   1
  -4   8  -7 66.0773 4.81854   1
  -4   8  -7 66.8456 3.34138   2
  -4   8  -7 66.4223 3.09998   2
  -5   8  -7 710.611 18.8213   2
   5  -8   7 728.421 17.8373   2
  -6   8  -7 101.136 5.83946   2
  -7   8  -7 5.82342 3.27841   2
   6   7  -7 -3.1049 4.05546   2
   5   7  -7 9.33444 3.45003   2
  -5  -7   7 18.2265 6.68096   1
   4   7  -7 326.887 10.7614   2
   4   7  -7 316.589 12.0256   2
  -4  -7   7 313.562 12.5952   1
   3   7  -7 62.2270 3.92111   1
   3   7  -7 60.8317 5.49068   2
   3   7  -7 65.9371 4.01970   2
   2   7  -7 80.6616 3.80596   2
   2   7  -7 88.5933 3.99142   1
   2   7  -7 83.8779 4.84479   2
   1   7  -7 396.740 11.3818   1
   1   7  -7 406.911 10.5677   2
   0   7  -7 311.293 7.92255   2
   0   7  -7 306.269 8.58764   1
   0   7  -7 298.513 7.97087   2
  -1   7  -7 1051.12 24.7724   2
  -1   7  -7 1069.96 24.8526   2
  -1   7  -7 1065.55 27.0181   1
  -2   7  -7 120.673 3.85000   1
  -2   7  -7 114.946 3.65952   2
  -2   7  -7 118.780 3.87833   2
  -3   7  -7 154.906 5.13596   1
  -3   7  -7 145.200 5.26124   1
  -3   7  -7 151.177 5.09509   2
   3  -7   7 149.989 4.17507   2
   3  -7   7 164.768 4.31884   2
  -4   7  -7 107.638 4.57928   2
  -4   7  -7 98.4395 4.88035   1
   4  -7   7 111.935 4.99113   2
   4  -7   7 108.709 4.61787   2
  -5   7  -7 274.204 9.11905   2
  -5   7  -7 280.374 9.69313   1
   5  -7   7 285.889 9.33720   2
  -6   7  -7 6.41586 2.18024   2
  -6   7  -7 6.74493 3.65209   1
   6  -7   7 9.17424 3.81397   2
  -7   7  -7 48.1372 5.22610   2
  -8   7  -7 60.9372 6.97503   2
   6   6  -7 83.0162 7.28070   2
   5   6  -7 3.55667 2.72686   2
   5   6  -7 0.81502 4.77388   2
  -5  -6   7 3.46781 2.44045   2
  -5  -6   7 2.59165 5.11780   1
   4   6  -7 674.194 18.7239   2
  -4  -6   7 647.593 20.1596   1
  -4  -6   7 644.964 17.9834   2
   3   6  -7 14.1384 2.12926   2
   3   6  -7 15.8768 3.08002   2
  -3  -6   7 18.5180 2.45081   2
  -3  -6   7 13.5613 2.84041   1
   2   6  -7 47.4486 3.81988   2
   2   6  -7 42.3922 2.63430   1
   2   6  -7 44.2246 2.87755   2
  -2  -6   7 48.4577 4.15146   2
   1   6  -7 1208.08 28.8287   2
   1   6  -7 1186.01 30.7261   1
   1   6  -7 1189.42 28.7992   2
   0   6  -7 476.064 12.8954   1
   0   6  -7 485.909 12.6446   2
   0   6  -7 501.445 12.6349   2
   0  -6   7 512.471 12.4600   2
  -1   6  -7 130.670 4.17519   2
  -1   6  -7 130.881 4.38203   2
   1  -6   7 131.104 4.04241   2
  -2   6  -7 62.5967 3.02107   2
  -2   6  -7 58.0316 2.19047   1
  -2   6  -7 60.9107 2.74786   2
   2  -6   7 63.2062 2.82052   2
  -3   6  -7 809.491 20.2990   2
  -3   6  -7 797.673 20.0877   2
  -3   6  -7 807.069 21.1651   1
   3  -6   7 842.815 20.2860   2
  -4   6  -7 209.129 6.90403   2
  -4   6  -7 188.633 6.62562   1
   4  -6   7 200.427 6.88051   2
  -5   6  -7 167.473 6.73276   1
   5  -6   7 170.942 7.14737   2
   5  -6   7 182.952 6.88634   2
  -6   6  -7 5.01903 2.08496   2
  -6   6  -7 15.2748 3.18717   1
   6  -6   7 8.40885 3.64412   2
   6  -6   7 7.52681 2.45800   2
  -7   6  -7 92.3176 7.28555   1
  -7   6  -7 73.1667 5.62877   2
   7  -6   7 70.3273 6.14271   2
  -8   6  -7 51.2772 5.88498   2
   7   5  -7 9.44064 4.44688   2
   6   5  -7 336.062 15.3143   2
   6   5  -7 360.075 13.4359   2
  -6  -5   7 342.917 12.7820   2
   5   5  -7 -0.7597 2.22147   2
   5   5  -7 -1.5179 3.76012   2
  -5  -5   7 -3.7980 4.34292   1
  -5  -5   7 -1.1177 2.16553   2
   4   5  -7 400.838 13.2366   2
   4   5  -7 418.975 13.0613   2
  -4  -5   7 401.828 13.4183   2
  -4  -5   7 388.908 13.8685   1
  -4  -5   7 422.454 12.5762   2
   3   5  -7 29.8039 2.93313   2
   3   5  -7 30.2047 3.96127   2
  -3  -5   7 30.9792 4.57044   2
  -3  -5   7 32.8997 2.78582   2
  -3  -5   7 29.7862 3.76838   1
   2   5  -7 371.384 10.8780   2
   2   5  -7 373.771 10.9878   2
  -2  -5   7 381.278 10.5857   2
  -2  -5   7 381.528 11.1586   2
  -2  -5   7 370.693 11.1258   1
   1   5  -7 990.396 24.3905   2
   1   5  -7 988.796 24.3306   2
   0   5  -7 391.361 10.5831   2
   0   5  -7 392.787 10.5528   2
   0  -5   7 396.227 10.5269   2
  -1   5  -7 3.00482 1.16025   2
  -1   5  -7 3.13225 0.86653   2
   1  -5   7 2.09412 1.15314   2
  -2   5  -7 4.13758 0.88277   2
  -2   5  -7 3.81024 1.15342   2
   2  -5   7 3.09673 1.30416   2
  -3   5  -7 1060.66 27.4303   1
  -3   5  -7 1095.11 26.3884   2
  -4   5  -7 2.58183 1.09558   2
  -4   5  -7 6.49229 1.44993   1
   4  -5   7 4.15024 1.76777   2
  -5   5  -7 4.01649 1.85048   1
  -5   5  -7 3.94862 1.54534   2
   5  -5   7 2.72120 1.50759   2
   5  -5   7 1.46693 2.18581   2
  -6   5  -7 53.7304 4.02680   2
   6  -5   7 56.3801 4.45685   2
   6  -5   7 52.6944 5.79367   2
  -7   5  -7 8.51712 3.60918   1
  -7   5  -7 9.59785 2.59214   2
   7  -5   7 8.42355 2.72900   2
  -8   5  -7 56.3765 5.41576   2
  -8   5  -7 62.4856 8.62865   1
   8  -5   7 51.4571 6.46114   2
   7   4  -7 2.85302 3.81847   2
   7   4  -7 -5.4662 8.25851   2
  -7  -4   7 4.16941 3.96502   2
   6   4  -7 840.030 25.3693   2
   6   4  -7 852.531 24.8236   2
  -6  -4   7 882.540 24.3545   2
  -6  -4   7 791.690 26.5868   1
   5   4  -7 5.13507 2.27568   2
   5   4  -7 2.59147 3.70280   2
  -5  -4   7 -1.7746 4.04299   1
  -5  -4   7 2.28014 2.09925   2
  -5  -4   7 0.34410 3.80768   2
   4   4  -7 19.7592 3.33212   2
  -4  -4   7 15.7724 3.51021   2
  -4  -4   7 20.7629 3.59775   1
  -4  -4   7 18.1292 2.57524   2
   3   4  -7 558.582 15.7393   2
   3   4  -7 547.733 15.6234   2
  -3  -4   7 539.622 16.3663   1
  -3  -4   7 574.636 15.9247   2
  -3  -4   7 564.551 15.4085   2
   2   4  -7 1025.49 25.7671   2
   2   4  -7 1013.27 25.5758   2
  -2  -4   7 1013.32 27.0377   1
  -2  -4   7 1045.15 25.4436   2
  -2  -4   7 1018.16 25.6854   2
   1   4  -7 484.141 13.0958   2
   1   4  -7 477.036 13.0992   2
  -1  -4   7 477.545 13.0277   1
  -1  -4   7 500.066 12.8588   2
  -1  -4   7 497.525 13.2470   2
   0   4  -7 53.3789 2.93864   2
   0   4  -7 50.3672 2.58040   2
   0  -4   7 51.6269 2.94075   2
  -1   4  -7 376.356 10.1052   2
  -1   4  -7 372.636 10.1320   2
   1  -4   7 368.996 10.1218   2
  -2   4  -7 0.68003 1.02565   2
  -2   4  -7 0.15723 0.61137   2
   2  -4   7 1.55706 1.06252   2
  -3   4  -7 213.506 6.68569   2
  -3   4  -7 212.185 5.96002   1
   3  -4   7 207.794 6.87293   2
  -4   4  -7 500.775 13.7917   1
  -4   4  -7 516.212 13.8841   2
   4  -4   7 488.527 13.7594   2
  -5   4  -7 285.957 9.09606   1
  -5   4  -7 283.727 9.21449   2
   5  -4   7 282.743 9.45804   2
  -6   4  -7 14.3098 2.97833   1
  -6   4  -7 7.25996 2.03169   2
   6  -4   7 12.3763 3.22797   2
   6  -4   7 8.60160 2.11958   2
  -7   4  -7 122.015 6.20573   2
  -7   4  -7 137.381 7.25443   1
   7  -4   7 119.278 6.56934   2
   7  -4   7 120.583 8.02263   2
  -8   4  -7 163.666 9.58146   1
  -8   4  -7 170.723 7.98920   2
   8  -4   7 168.394 8.43359   2
  -9   4  -7 346.308 13.4445   2
  -8  -3   7 145.852 11.0107   2
   7   3  -7 70.5081 9.14360   2
   7   3  -7 91.2526 7.04180   2
  -7  -3   7 88.0269 7.57534   2
   6   3  -7 620.940 19.7269   2
   6   3  -7 618.958 20.1893   2
  -6  -3   7 614.769 20.8825   1
  -6  -3   7 670.646 19.6053   2
   5   3  -7 91.5168 5.67546   2
   5   3  -7 95.6976 7.11196   2
  -5  -3   7 89.7016 5.44286   2
  -5  -3   7 81.5675 6.80892   1
  -5  -3   7 83.4057 7.33431   2
   4   3  -7 237.590 9.08784   2
   4   3  -7 227.484 8.55144   2
  -4  -3   7 224.987 9.21526   2
  -4  -3   7 219.837 9.04049   1
  -4  -3   7 227.107 8.36172   2
   3   3  -7 507.394 14.3937   2
   3   3  -7 494.900 14.4076   2
  -3  -3   7 517.880 14.6435   2
  -3  -3   7 484.024 14.9530   1
  -3  -3   7 492.002 14.0836   2
   2   3  -7 1434.78 35.3722   2
   2   3  -7 1485.74 35.6619   2
  -2  -3   7 1491.24 35.5992   2
  -2  -3   7 1506.47 35.3883   2
  -2  -3   7 1361.44 37.7268   1
   1   3  -7 110.123 4.55614   2
   1   3  -7 112.028 4.40218   2
  -1  -3   7 109.438 4.63186   2
  -1  -3   7 116.230 3.89290   1
  -1  -3   7 110.162 4.21029   2
   0   3  -7 25.3735 2.25869   2
   0   3  -7 25.3463 1.87160   2
   0  -3   7 23.9171 2.34439   2
  -1   3  -7 692.097 17.3547   2
  -1   3  -7 681.405 17.2526   2
   1  -3   7 683.173 17.3497   2
  -2   3  -7 17.9486 1.56107   2
  -2   3  -7 18.5209 1.94379   2
   2  -3   7 19.6726 2.17812   2
  -3   3  -7 125.580 3.89074   1
  -3   3  -7 125.586 4.66695   2
   3  -3   7 129.178 4.95260   2
  -4   3  -7 621.912 16.2667   2
  -4   3  -7 590.542 16.3432   1
   4  -3   7 609.719 16.2680   2
  -5   3  -7 11.7487 1.81259   2
  -5   3  -7 13.7282 2.09786   1
   5  -3   7 15.8177 2.65682   2
  -6   3  -7 26.2160 3.66063   1
  -6   3  -7 27.7748 2.94531   2
   6  -3   7 24.4615 3.42446   2
  -7   3  -7 461.236 14.8042   1
  -7   3  -7 439.837 14.1117   2
   7  -3   7 458.375 15.0367   2
   7  -3   7 445.944 14.3788   2
  -8   3  -7 347.905 12.4671   2
  -8   3  -7 345.964 13.5089   1
   8  -3   7 372.702 13.1608   2
  -9   3  -7 125.723 7.30560   2
   9  -3   7 118.753 8.32399   2
  10  -3   7 38.4770 6.38129   2
   7   2  -7 129.454 8.25222   2
   7   2  -7 137.556 14.2617   2
  -7  -2   7 135.663 8.21353   2
   6   2  -7 191.548 9.10308   2
   6   2  -7 217.921 11.0852   2
  -6  -2   7 215.949 10.6434   1
  -6  -2   7 212.862 9.06843   2
   5   2  -7 113.007 7.42223   2
   5   2  -7 114.334 6.26784   2
  -5  -2   7 106.499 7.41632   2
  -5  -2   7 112.500 6.08414   2
  -5  -2   7 125.080 7.21849   1
   4   2  -7 902.939 24.4028   2
  -4  -2   7 911.703 24.4462   2
  -4  -2   7 937.602 25.5988   1
  -4  -2   7 857.759 23.8391   2
   3   2  -7 76.4992 4.17217   2
   3   2  -7 72.0247 4.46636   2
  -3  -2   7 76.6233 4.81650   2
  -3  -2   7 73.5152 4.34168   1
  -3  -2   7 69.3226 3.82913   2
   2   2  -7 343.095 10.0427   2
   2   2  -7 328.840 9.98200   2
  -2  -2   7 333.644 9.80824   2
  -2  -2   7 314.323 10.1166   2
  -2  -2   7 310.452 9.89452   1
   1   2  -7 37.7725 2.48925   2
   1   2  -7 37.8252 2.86768   2
  -1  -2   7 35.1652 2.76511   2
  -1  -2   7 43.7618 2.47393   2
  -1  -2   7 36.4686 2.23389   1
   0   2  -7 528.465 13.8176   2
   0   2  -7 533.350 13.9377   2
   0  -2   7 513.489 13.5641   1
   0  -2   7 515.728 13.8755   2
   0  -2   7 526.468 13.6531   2
  -1   2  -7 422.772 11.3829   2
  -1   2  -7 438.830 11.5191   2
   1  -2   7 406.543 11.4305   2
  -2   2  -7 561.033 14.5102   2
  -2   2  -7 565.399 14.4172   2
   2  -2   7 539.920 14.5019   2
  -3   2  -7 11.7113 1.52153   2
   3  -2   7 11.2697 1.70122   2
  -4   2  -7 481.368 13.5444   1
  -4   2  -7 497.208 13.5525   2
  -5   2  -7 94.4258 4.52666   2
  -5   2  -7 92.8577 4.39915   1
   5  -2   7 94.8700 5.04256   2
  -6   2  -7 636.789 18.1143   2
  -6   2  -7 646.276 18.7895   1
   6  -2   7 666.279 18.5421   2
  -7   2  -7 566.392 16.8488   2
  -7   2  -7 558.569 17.3531   1
   7  -2   7 540.593 17.2023   2
   7  -2   7 587.414 17.1923   2
  -8   2  -7 371.313 13.6977   1
  -8   2  -7 366.878 12.7596   2
   8  -2   7 356.663 12.9398   2
  -9   2  -7 25.9575 3.96179   2
   9  -2   7 20.8750 4.12751   2
  10  -2   7 0.91833 4.51523   2
   8   1  -7 455.434 17.9688   2
  -8  -1   7 417.248 16.4011   2
   7   1  -7 87.7674 7.28687   2
  -7  -1   7 98.5741 7.52913   2
   6   1  -7 3.31355 4.40394   2
   6   1  -7 2.47249 2.60163   2
  -6  -1   7 1.58265 2.49755   2
  -6  -1   7 6.23511 4.14891   1
  -6  -1   7 3.08265 5.05058   2
   5   1  -7 40.2707 5.51381   2
   5   1  -7 39.5456 4.05429   2
  -5  -1   7 38.0213 4.08901   2
  -5  -1   7 38.6840 5.04221   1
  -5  -1   7 41.4259 5.01052   2
   4   1  -7 1280.57 33.3448   2
   4   1  -7 1321.98 33.0739   2
  -4  -1   7 1317.72 33.0945   2
  -4  -1   7 1313.97 35.1577   1
  -4  -1   7 1247.52 33.1544   2
   3   1  -7 371.717 11.4482   2
   3   1  -7 371.272 11.5701   2
  -3  -1   7 374.152 11.7127   2
  -3  -1   7 371.858 11.3264   2
  -3  -1   7 367.287 11.6156   1
   2   1  -7 22.7000 2.74399   2
   2   1  -7 21.1151 2.10803   2
  -2  -1   7 24.7576 2.29265   1
  -2  -1   7 24.4858 2.21397   2
   1   1  -7 14.8018 1.66790   2
   1   1  -7 11.1398 1.85755   2
  -1  -1   7 17.9813 2.36793   2
  -1  -1   7 15.8177 1.64372   1
  -1  -1   7 13.2463 1.65333   2
   0   1  -7 52.3261 2.99538   2
   0   1  -7 57.7476 2.83722   2
   0  -1   7 50.1009 3.01926   2
   0  -1   7 50.8329 2.64823   2
  -1   1  -7 287.788 8.57810   2
  -1   1  -7 301.044 8.71015   2
   1  -1   7 299.410 8.78792   2
   1  -1   7 306.811 8.03207   1
  -2   1  -7 2145.62 49.5568   2
  -2   1  -7 2101.26 49.3542   2
   2  -1   7 2116.72 49.5742   2
   2  -1   7 2054.20 54.2830   1
  -3   1  -7 40.0653 2.37898   2
  -3   1  -7 39.2234 2.11974   1
   3  -1   7 40.9070 1.96971   1
   3  -1   7 42.1834 2.90717   2
  -4   1  -7 131.228 5.05607   2
  -4   1  -7 129.663 4.85944   1
   4  -1   7 125.820 4.76337   1
   4  -1   7 134.469 5.47120   2
  -5   1  -7 352.577 10.5710   2
  -5   1  -7 336.255 10.5541   1
   5  -1   7 340.259 10.5676   1
   5  -1   7 321.433 10.5698   2
  -6   1  -7 1512.36 37.5204   2
   6  -1   7 1579.20 40.1101   1
   6  -1   7 1403.74 37.4130   2
  -7   1  -7 200.816 8.62388   1
  -7   1  -7 195.785 8.21691   2
   7  -1   7 201.046 9.06685   2
  -8   1  -7 167.930 9.02907   1
  -8   1  -7 169.553 7.79580   2
   8  -1   7 131.679 8.90562   2
  -9   1  -7 294.572 11.7986   2
   9  -1   7 302.300 12.4546   2
 -10   1  -7 46.9980 5.43919   2
  10  -1   7 37.9520 5.36562   2
   8   0  -7 240.469 12.5222   2
  -8   0   7 250.691 12.2319   2
   7   0  -7 102.992 7.68321   2
  -7   0   7 106.349 7.27506   2
   6   0  -7 278.755 12.4791   2
   6   0  -7 288.197 11.3062   2
  -6   0   7 274.293 11.8777   1
  -6   0   7 269.809 10.6445   2
  -6   0   7 253.082 12.8691   2
   5   0  -7 -0.7882 2.97729   2
  -5   0   7 -1.2441 1.68541   2
  -5   0   7 -0.2977 2.67882   1
  -5   0   7 3.50528 3.43719   2
   4   0  -7 531.271 15.8488   2
   4   0  -7 520.188 15.6050   2
  -4   0   7 521.734 15.4880   2
  -4   0   7 516.170 15.9777   1
  -4   0   7 528.156 15.9409   2
   3   0  -7 82.4073 4.48446   2
   3   0  -7 95.8866 5.14091   2
  -3   0   7 93.5389 4.65192   1
  -3   0   7 90.1990 4.55918   2
  -3   0   7 95.1029 5.24275   2
   2   0  -7 223.346 7.65063   2
   2   0  -7 215.063 7.55002   2
  -2   0   7 224.615 7.53245   2
  -2   0   7 226.306 7.85906   2
   1   0  -7 40.5552 2.88074   2
   1   0  -7 39.2017 2.53368   2
  -1   0   7 38.1601 2.39977   2
  -1   0   7 39.5010 2.99899   2
   0   0  -7 767.557 19.0241   2
   0   0  -7 741.754 19.0675   2
   0   0   7 712.381 19.0054   2
   0   0   7 756.429 18.9022   2
  -1   0  -7 268.920 7.98107   2
  -1   0  -7 262.160 7.94180   2
   1   0   7 265.918 8.10372   2
  -2   0  -7 1908.81 44.4939   2
  -2   0  -7 1930.05 44.6808   2
   2   0   7 1816.02 48.1742   1
   2   0   7 1878.16 44.6876   2
  -3   0  -7 655.075 17.0786   2
  -3   0  -7 681.868 17.7438   1
   3   0   7 632.748 17.1374   2
   3   0   7 656.049 17.5458   1
  -4   0  -7 670.946 18.0361   2
  -4   0  -7 703.309 18.9124   1
   4   0   7 674.930 18.6786   1
   4   0   7 698.898 18.2804   2
  -5   0  -7 314.377 9.88385   2
  -5   0  -7 306.779 10.0672   1
   5   0   7 317.487 9.83592   1
   5   0   7 298.668 10.0016   2
  -6   0  -7 1644.49 40.1018   2
  -6   0  -7 1634.95 42.9148   1
   6   0   7 1626.85 42.7473   1
   6   0   7 1537.46 40.0751   2
  -7   0  -7 9.34014 2.38682   2
  -7   0  -7 8.59416 3.15520   1
   7   0   7 12.0523 3.40879   2
   7   0   7 11.0656 2.28654   1
  -8   0  -7 10.0251 4.28126   1
  -8   0  -7 8.97534 2.33092   2
   8   0   7 2.86690 4.10447   2
   8   0   7 7.71371 2.32491   1
   8   0   7 0.91205 2.31521   2
  -9   0  -7 353.019 13.0153   2
   9   0   7 353.923 13.5885   2
 -10   0  -7 -2.9040 3.67095   2
  10   0   7 0.12935 3.95261   2
   8  -1  -7 39.4091 6.39036   2
  -8   1   7 34.5038 5.75661   2
   7  -1  -7 33.8631 4.88210   2
  -7   1   7 22.1928 4.12394   2
   6  -1  -7 280.223 12.5489   2
   6  -1  -7 294.969 11.7268   2
  -6   1   7 284.190 13.3926   2
  -6   1   7 309.946 11.5206   2
  -6   1   7 269.026 11.8428   1
   5  -1  -7 9.92032 3.46430   2
   5  -1  -7 4.79780 2.06823   2
  -5   1   7 6.50332 3.82662   2
  -5   1   7 6.90519 2.98537   1
   4  -1  -7 -1.8231 2.15520   2
   4  -1  -7 1.27534 1.55690   2
  -4   1   7 1.99718 2.76415   2
  -4   1   7 1.61002 1.98710   1
  -4   1   7 -0.9836 1.29998   2
   3  -1  -7 608.421 17.0706   2
   3  -1  -7 604.584 16.8493   2
  -3   1   7 593.066 16.7889   2
  -3   1   7 601.659 17.0925   2
   2  -1  -7 104.744 4.67288   2
   2  -1  -7 96.9758 4.78871   2
  -2   1   7 104.518 5.13033   2
  -2   1   7 102.165 4.54901   2
   1  -1  -7 354.244 10.2016   2
   1  -1  -7 333.446 10.1397   2
  -1   1   7 333.759 9.98513   2
  -1   1   7 347.552 10.3807   2
   0  -1  -7 601.064 15.8880   2
   0  -1  -7 600.667 15.7940   2
   0   1   7 591.837 15.6400   2
   0   1   7 606.510 15.9783   2
  -1  -1  -7 1068.87 26.0641   2
  -1  -1  -7 1062.37 26.1365   2
   1   1   7 1047.69 26.2093   2
  -2  -1  -7 1055.91 25.5459   2
  -2  -1  -7 1022.44 25.5686   2
   2   1   7 1034.35 25.7304   2
   2   1   7 1033.54 27.0860   1
  -3  -1  -7 138.031 5.08078   2
   3   1   7 135.605 5.39604   2
   3   1   7 131.786 4.75635   1
  -4  -1  -7 1908.79 48.7868   1
  -4  -1  -7 1921.89 45.2766   2
   4   1   7 1865.80 48.4790   1
   4   1   7 1843.65 45.3119   2
  -5  -1  -7 233.003 7.89776   2
  -5  -1  -7 224.283 8.17354   1
   5   1   7 216.487 7.59123   1
   5   1   7 221.905 8.25015   2
  -6  -1  -7 714.619 19.9570   2
  -6  -1  -7 741.102 21.4025   1
   6   1   7 734.845 20.4662   2
   6   1   7 726.144 20.8409   1
  -7  -1  -7 8.51189 2.00083   2
  -7  -1  -7 8.23360 3.41257   1
   7   1   7 9.37764 3.44757   2
   7   1   7 10.3429 2.08909   1
  -8  -1  -7 154.950 7.58455   2
  -8  -1  -7 148.382 9.30526   1
   8   1   7 148.292 9.71870   2
   8   1   7 163.072 7.26923   1
   8   1   7 151.802 7.81835   2
  -9  -1  -7 301.071 11.8766   2
   9   1   7 304.168 12.3760   2
   9   1   7 305.164 11.8627   1
 -10  -1  -7 1.45835 3.88615   2
  10   1   7 4.11416 4.08720   2
   8  -2  -7 -0.3579 5.44283   2
   7  -2  -7 31.1369 5.10022   2
  -7   2   7 34.4435 4.82073   2
   6  -2  -7 283.921 11.5226   2
  -6   2   7 261.017 13.2079   2
  -6   2   7 261.023 10.7093   2
   5  -2  -7 141.810 7.05134   2
   5  -2  -7 137.731 7.86873   2
  -5   2   7 141.973 8.99774   2
  -5   2   7 141.052 7.81543   1
  -5   2   7 142.312 7.05631   2
   4  -2  -7 -2.9991 2.12073   2
   4  -2  -7 1.36937 1.63282   2
  -4   2   7 -1.4904 1.33835   2
  -4   2   7 3.64752 2.90325   2
   3  -2  -7 407.565 12.4854   2
   3  -2  -7 379.435 12.1725   2
  -3   2   7 412.122 12.3914   2
  -3   2   7 398.656 12.7554   2
   2  -2  -7 57.1962 3.51526   2
  -2   2   7 59.7839 4.19149   2
  -2   2   7 57.3061 3.40479   2
   1  -2  -7 210.075 7.08545   2
   1  -2  -7 209.674 7.10520   2
  -1   2   7 195.766 7.22697   2
  -1   2   7 202.157 6.89335   2
   0  -2  -7 2378.73 55.9967   2
   0  -2  -7 2448.48 56.2481   2
   0   2   7 2426.27 56.2593   2
   0   2   7 2264.58 55.8186   2
  -1  -2  -7 900.413 22.9898   2
  -1  -2  -7 916.165 22.9518   2
   1   2   7 939.627 23.2445   2
  -2  -2  -7 44.3118 2.86942   2
  -2  -2  -7 41.3478 2.45649   2
   2   2   7 42.2103 2.35970   1
   2   2   7 41.8725 3.07418   2
  -3  -2  -7 30.9783 2.22395   2
   3   2   7 28.7768 2.80262   2
   3   2   7 29.7853 2.07098   1
  -4  -2  -7 2562.15 64.8190   1
  -4  -2  -7 2555.88 59.6383   2
   4   2   7 2538.69 59.8537   2
   4   2   7 2422.30 64.3814   1
  -5  -2  -7 2.09083 1.16157   2
   5   2   7 2.53082 1.14686   1
  -6  -2  -7 3.48782 2.38413   1
  -6  -2  -7 3.80469 1.56002   2
   6   2   7 1.49189 1.33228   1
   6   2   7 0.85725 2.53698   2
  -7  -2  -7 91.3625 5.19602   2
  -7  -2  -7 85.1948 6.44169   1
   7   2   7 91.8232 6.94533   2
   7   2   7 85.0466 4.77810   1
  -8  -2  -7 73.5435 5.14021   2
  -8  -2  -7 64.8172 7.37468   1
   8   2   7 66.7429 4.94662   1
   8   2   7 67.6417 7.89325   2
   8   2   7 59.4454 5.08373   2
  -9  -2  -7 116.420 7.06339   2
   9   2   7 101.755 6.94467   2
   9   2   7 119.168 7.05067   1
 -10  -2  -7 113.127 8.34460   2
  10   2   7 115.976 8.98127   2
  10   2   7 114.383 7.53235   1
   8  -3  -7 37.3320 7.04104   2
   7  -3  -7 16.0018 4.60455   2
  -7   3   7 11.1190 3.72673   2
   6  -3  -7 44.9592 5.42180   2
  -6   3   7 52.6467 7.54698   2
  -6   3   7 41.5834 5.02347   2
   5  -3  -7 580.416 17.9090   2
   5  -3  -7 549.016 17.6153   2
  -5   3   7 587.592 18.7482   2
  -5   3   7 564.362 17.5141   2
  -5   3   7 561.967 18.3425   1
   4  -3  -7 17.6267 2.92220   2
   4  -3  -7 18.5516 3.38959   2
  -4   3   7 19.8992 3.90561   2
   3  -3  -7 0.62883 1.82548   2
   3  -3  -7 3.58863 1.61698   2
  -3   3   7 0.48991 1.21537   2
   2  -3  -7 264.544 8.90996   2
   2  -3  -7 253.053 8.75252   2
  -2   3   7 268.485 9.20079   2
  -2   3   7 272.468 8.84510   2
   1  -3  -7 2118.67 50.1606   2
  -1   3   7 2083.34 50.1995   2
  -1   3   7 2080.62 49.9636   2
   0  -3  -7 803.976 19.9414   2
   0  -3  -7 769.131 19.9179   2
   0   3   7 754.285 19.6759   2
   0   3   7 752.135 20.0170   2
  -1  -3  -7 311.468 9.33623   2
  -1  -3  -7 313.471 9.40166   2
   1   3   7 311.768 9.60064   2
  -2  -3  -7 825.680 21.0075   2
  -2  -3  -7 827.440 21.0436   2
   2   3   7 820.715 21.2980   2
   2   3   7 837.952 22.7361   1
  -3  -3  -7 21.4652 1.93553   2
   3   3   7 19.9309 2.72087   2
   3   3   7 21.1221 1.96755   1
  -4  -3  -7 1056.37 27.3309   2
   4   3   7 1091.75 27.7562   2
   4   3   7 1123.63 29.5502   1
  -5  -3  -7 47.3837 3.29415   2
  -5  -3  -7 49.9217 4.33755   1
   5   3   7 47.5188 4.43381   2
   5   3   7 49.3795 3.25910   1
  -6  -3  -7 25.5735 2.94530   2
  -6  -3  -7 30.7065 4.43744   1
   6   3   7 32.6222 2.84889   1
   6   3   7 31.0014 4.03141   2
  -7  -3  -7 85.2351 7.22734   1
  -7  -3  -7 85.5979 5.17655   2
   7   3   7 86.1515 7.07196   2
   7   3   7 88.5711 5.09055   1
  -8  -3  -7 50.0799 7.33801   1
  -8  -3  -7 52.4756 4.93923   2
   8   3   7 48.0100 4.32966   1
   8   3   7 66.7140 8.34539   2
  -9  -3  -7 121.194 7.66109   2
   9   3   7 112.299 7.66677   2
   9   3   7 111.473 6.82381   1
 -10  -3  -7 188.922 10.4489   2
  10   3   7 200.716 10.2635   1
  10   3   7 182.306 11.9223   2
   8  -4  -7 7.31404 6.96014   2
   7  -4  -7 19.8560 5.34990   2
  -7   4   7 17.9601 4.26403   2
   6  -4  -7 81.5373 7.16141   2
  -6   4   7 89.8141 11.5283   2
  -6   4   7 97.4886 6.67366   2
   5  -4  -7 574.440 18.0908   2
  -5   4   7 581.113 17.9721   2
  -5   4   7 591.747 19.3044   2
   4  -4  -7 5.28336 3.00206   2
   4  -4  -7 7.04637 2.26710   2
  -4   4   7 3.81361 1.80764   2
  -4   4   7 9.20401 3.62752   2
   3  -4  -7 110.458 6.05500   2
   3  -4  -7 117.352 5.75290   2
  -3   4   7 115.652 5.45859   2
   2  -4  -7 373.595 11.5586   2
   2  -4  -7 386.009 11.7286   2
  -2   4   7 366.087 11.4223   2
  -2   4   7 386.529 12.1074   2
   1  -4  -7 1691.01 40.1708   2
   1  -4  -7 1701.60 40.3604   2
  -1   4   7 1610.13 40.0441   2
  -1   4   7 1608.45 40.3431   2
   0  -4  -7 44.4850 3.29963   2
   0  -4  -7 38.4376 2.68946   2
   0   4   7 43.7936 3.48688   2
   0   4   7 38.9454 2.48668   2
  -1  -4  -7 39.4610 2.60700   2
   1   4   7 40.9916 3.47823   2
  -2  -4  -7 2101.90 50.2501   2
   2   4   7 2144.93 50.5976   2
   2   4   7 2107.21 55.0218   1
  -3  -4  -7 25.7569 2.87527   2
  -3  -4  -7 29.2195 2.35974   2
   3   4   7 26.0918 3.27837   2
   3   4   7 24.8589 2.25218   1
  -4  -4  -7 405.549 11.9640   2
   4   4   7 408.368 12.5343   2
   4   4   7 410.192 12.8393   1
  -5  -4  -7 18.4878 2.57701   2
  -5  -4  -7 17.2816 3.17154   1
   5   4   7 19.0543 3.08719   2
   5   4   7 19.7083 2.48756   1
  -6  -4  -7 217.852 9.92320   1
  -6  -4  -7 217.150 8.27462   2
   6   4   7 210.922 8.54839   1
   6   4   7 222.422 9.49049   2
  -7  -4  -7 39.9542 4.21440   2
  -7  -4  -7 32.8492 5.33390   1
   7   4   7 30.7332 4.96054   2
   7   4   7 30.9846 3.41121   1
  -8  -4  -7 113.435 7.21860   2
   8   4   7 111.188 6.33810   1
   8   4   7 117.294 10.0695   2
  -9  -4  -7 141.235 8.51002   2
   9   4   7 150.626 8.37729   1
   9   4   7 126.259 8.32403   2
 -10  -4  -7 63.1002 8.58689   2
   7  -5  -7 276.768 14.0637   2
   6  -5  -7 123.607 7.99368   2
  -6   5   7 95.5983 14.0159   2
  -6   5   7 97.8226 7.46836   2
   5  -5  -7 200.610 9.18696   2
  -5   5   7 206.121 12.1244   2
  -5   5   7 187.456 8.76456   2
   4  -5  -7 136.378 7.02905   2
   4  -5  -7 126.323 7.64220   2
  -4   5   7 135.779 8.60720   2
  -4   5   7 119.032 6.47287   2
   3  -5  -7 950.182 24.6043   2
   3  -5  -7 900.639 24.2565   2
  -3   5   7 899.611 24.3470   2
  -3   5   7 883.159 24.7308   2
   2  -5  -7 579.659 16.5152   2
   2  -5  -7 605.096 16.6933   2
  -2   5   7 589.944 17.0235   2
  -2   5   7 578.350 16.4431   2
   1  -5  -7 747.253 20.0158   2
   1  -5  -7 757.364 19.9491   2
  -1   5   7 747.747 19.8345   2
  -1   5   7 763.401 20.3721   2
   0  -5  -7 74.1849 4.32646   2
   0  -5  -7 77.0702 3.80045   2
   0   5   7 77.7322 3.68965   2
   0   5   7 74.4949 4.73261   2
  -1  -5  -7 159.832 5.92042   2
  -1  -5  -7 165.504 6.29305   2
   1   5   7 161.197 6.63333   2
  -2  -5  -7 705.407 18.9613   2
  -2  -5  -7 756.803 19.2263   2
   2   5   7 727.527 19.4891   2
   2   5   7 736.098 21.1303   1
  -3  -5  -7 4.28475 1.32626   2
  -3  -5  -7 5.34012 1.80961   2
   3   5   7 3.60981 1.41494   1
   3   5   7 2.61887 2.02587   2
  -4  -5  -7 8.93798 1.61687   2
   4   5   7 12.2164 2.10505   1
   4   5   7 15.2462 2.85202   2
  -5  -5  -7 19.0992 2.72740   2
   5   5   7 14.7879 3.30104   2
   5   5   7 20.0788 2.57692   1
  -6  -5  -7 64.2876 6.49323   1
  -6  -5  -7 67.3317 4.53737   2
   6   5   7 66.0170 4.58296   1
   6   5   7 70.8274 6.76132   2
  -7  -5  -7 317.266 11.4075   2
   7   5   7 325.872 11.8583   1
   7   5   7 332.540 13.6988   2
   8   5   7 218.355 9.63864   1
   8   5   7 202.538 13.3313   2
   8   5   7 217.605 9.48904   2
  -9  -5  -7 172.579 9.61897   2
   9   5   7 152.407 8.64526   2
   9   5   7 172.383 8.81086   1
 -10  -5  -7 2.25180 5.31751   2
   6  -6  -7 92.5793 8.58347   2
  -6   6   7 95.9887 7.68646   2
   5  -6  -7 7.15250 3.31243   2
  -5   6   7 10.4191 6.34993   2
  -5   6   7 8.07003 3.07064   2
   4  -6  -7 95.8899 6.03754   2
  -4   6   7 89.1990 8.53357   2
  -4   6   7 80.0882 5.40318   2
   3  -6  -7 1106.03 28.8062   2
   3  -6  -7 1066.11 28.6322   2
  -3   6   7 1110.93 28.7643   2
  -3   6   7 1107.65 29.3830   2
   2  -6  -7 21.1611 3.13812   2
   2  -6  -7 23.9938 2.87027   2
  -2   6   7 24.5757 3.82327   2
   1  -6  -7 146.261 6.41481   2
   1  -6  -7 146.387 5.98156   2
  -1   6   7 143.114 5.66415   2
  -1   6   7 141.125 6.86741   2
   0  -6  -7 243.480 7.87770   2
   0  -6  -7 211.546 7.87061   2
   0   6   7 225.271 8.40239   2
  -1  -6  -7 170.318 6.65485   2
  -1  -6  -7 175.371 6.21866   2
   1   6   7 167.058 7.24639   1
   1   6   7 166.210 6.99875   2
  -2  -6  -7 466.530 13.1230   2
  -2  -6  -7 469.587 13.4084   2
   2   6   7 479.435 13.8884   2
   2   6   7 461.554 14.8795   1
  -3  -6  -7 153.487 5.91044   2
  -3  -6  -7 167.195 6.59975   2
   3   6   7 144.872 6.76664   2
   3   6   7 143.427 6.57951   1
  -4  -6  -7 13.4993 2.61655   2
  -4  -6  -7 18.2301 2.64012   2
   4   6   7 14.4328 3.18104   2
  -5  -6  -7 60.8720 4.11006   2
   5   6   7 54.9264 5.93221   2
   5   6   7 64.5732 4.38725   1
  -6  -6  -7 41.0598 3.95529   2
   6   6   7 36.9738 3.96574   1
   6   6   7 40.8642 5.35184   2
  -7  -6  -7 447.878 14.5214   2
   7   6   7 455.472 17.0453   2
   7   6   7 431.263 15.1563   1
  -8  -6  -7 184.648 9.46896   2
   8   6   7 175.199 8.99989   1
   8   6   7 178.986 14.0576   2
   8   6   7 197.131 9.28197   2
  -9  -6  -7 97.1458 8.71245   2
   5  -7  -7 222.888 10.5812   2
  -5   7   7 213.838 9.86070   2
   4  -7  -7 8.85938 3.15816   2
  -4   7   7 9.02334 5.41186   2
  -4   7   7 6.63396 2.39949   2
   3  -7  -7 705.595 19.7103   2
   3  -7  -7 675.980 20.4508   2
  -3   7   7 692.009 19.5461   2
  -3   7   7 691.976 20.7330   2
   2  -7  -7 -1.8395 2.85606   2
   2  -7  -7 0.02327 1.81254   2
  -2   7   7 1.77123 3.30848   2
  -2   7   7 4.10085 1.73650   2
   1  -7  -7 104.954 6.04839   2
   1  -7  -7 115.352 5.31797   2
  -1   7   7 115.230 5.13923   2
  -1   7   7 121.334 6.73914   2
   0  -7  -7 144.554 5.81052   2
   0  -7  -7 134.753 6.40772   2
   0   7   7 146.469 6.93259   2
  -1  -7  -7 11.8412 1.79899   2
  -1  -7  -7 13.1367 2.52134   2
   1   7   7 15.4324 2.73039   1
   1   7   7 16.2076 3.04757   2
  -2  -7  -7 229.219 7.48048   2
  -2  -7  -7 217.002 7.98114   2
   2   7   7 200.358 8.25525   2
   2   7   7 212.056 8.87180   1
  -3  -7  -7 374.914 11.6309   2
  -3  -7  -7 367.482 11.1385   2
   3   7   7 370.955 12.8128   1
   3   7   7 378.572 12.1790   2
  -4  -7  -7 0.86205 2.46898   2
  -4  -7  -7 1.03408 1.59254   2
   4   7   7 0.79269 1.62229   1
   4   7   7 -0.6236 2.87216   2
  -5  -7  -7 89.6156 6.54613   2
  -5  -7  -7 101.557 5.38606   2
   5   7   7 103.329 7.67914   2
   5   7   7 95.7055 5.55509   1
  -6  -7  -7 193.014 8.24641   2
   6   7   7 184.251 8.38552   1
  -7  -7  -7 679.540 20.0851   2
   7   7   7 651.266 21.4549   1
   7   7   7 701.992 22.9475   2
  -8  -7  -7 4.24714 3.84122   2
   8   7   7 5.66791 3.53810   2
   8   7   7 -0.0419 3.37774   1
  -4   8   7 -1.3871 2.79191   2
   3  -8  -7 185.927 8.14373   2
  -3   8   7 178.765 7.54736   2
  -3   8   7 180.738 10.8795   2
   2  -8  -7 -0.8990 2.15467   2
   2  -8  -7 -2.2945 3.33957   2
  -2   8   7 -0.6122 1.65671   2
  -2   8   7 1.43773 3.93427   2
   1  -8  -7 172.823 6.87511   2
  -1   8   7 174.234 8.62299   2
   0  -8  -7 109.916 4.94757   2
   0  -8  -7 93.7934 5.92726   2
   0   8   7 102.012 6.63583   2
  -1  -8  -7 55.1012 3.63039   2
  -1  -8  -7 41.0414 4.79350   2
   1   8   7 47.8964 5.34988   2
   1   8   7 50.3429 4.33899   1
  -2  -8  -7 11.1918 2.77098   2
  -2  -8  -7 20.5328 2.79697   2
   2   8   7 11.6838 3.18236   2
   2   8   7 15.2238 2.77532   1
  -3  -8  -7 179.386 6.95847   2
  -3  -8  -7 180.129 7.87507   2
   3   8   7 190.926 8.38733   1
   3   8   7 191.125 8.60892   2
  -4  -8  -7 17.4008 2.71447   2
  -4  -8  -7 20.8801 3.71545   2
   4   8   7 21.4845 3.22511   1
   4   8   7 15.0554 3.95253   2
  -5  -8  -7 477.699 14.4249   2
   5   8   7 476.925 16.1269   1
   5   8   7 474.272 16.1480   2
  -6  -8  -7 34.1159 4.92729   2
   6   8   7 23.8539 3.93172   1
   7   8   7 349.861 13.5351   1
  -4   9   7 7.75675 3.63850   2
  -3   9   7 -4.8597 2.38218   2
   1  -9  -7 35.9419 4.76545   2
   1  -9  -7 49.7571 4.48932   2
  -1   9   7 41.0209 5.36689   2
   0  -9  -7 118.528 7.22521   2
   0   9   7 113.988 7.55804   2
   0   9   7 127.740 7.11103   1
   1   9   7 280.915 10.7293   2
   1   9   7 285.500 11.4361   1
  -2  -9  -7 194.305 8.47600   2
   2   9   7 216.766 9.51697   1
   2   9   7 211.008 9.21074   2
  -3  -9  -7 0.29809 3.34456   2
   3   9   7 -1.2447 2.39656   1
   3   9   7 -0.1109 3.67603   2
  -4  -9  -7 15.2961 4.25419   2
  -4  -9  -7 19.2951 3.14594   2
   5   9   7 679.679 21.7824   1
   6   9   7 1.24462 3.58971   1
  -1  10   7 24.1432 4.39019   1
   0 -10  -7 284.785 11.0100   2
   0  10   7 307.184 12.8486   1
  -1 -10  -7 144.191 7.99942   2
   1  10   7 157.439 8.93959   1
  -2 -10  -7 81.4683 7.01982   2
   2  10   7 84.1047 6.85448   1
  -3 -10  -7 174.637 8.86353   2
   3  10   7 183.365 9.13933   1
   4  10   7 0.80324 3.33931   1
   6  10   7 7.68367 4.34626   2
   5  11   7 93.6708 8.06709   2
   4   9  -8 10.9708 2.97035   2
   3   9  -8 -3.5315 1.87742   2
   2   9  -8 392.016 9.53123   2
  -5   9  -8 -2.6128 1.76920   2
  -6   9  -8 34.2093 3.68207   2
   5   8  -8 298.557 11.6871   2
   4   8  -8 38.6629 4.70771   2
   3   8  -8 60.1617 4.13001   2
   1   8  -8 97.4663 3.50696   2
   1   8  -8 94.3374 3.83855   2
   0   8  -8 1.16230 0.70141   2
   0   8  -8 1.74710 0.72264   2
  -3   8  -8 157.908 4.71498   1
  -3   8  -8 154.378 4.52409   2
  -3   8  -8 145.548 4.66319   2
  -4   8  -8 8.69382 2.30711   1
  -4   8  -8 8.90027 1.59670   2
  -4   8  -8 7.76720 1.68170   2
  -4   8  -8 9.36772 1.49765   1
  -5   8  -8 8.81778 2.14571   2
  -6   8  -8 36.4408 4.63378   2
   5   7  -8 22.0421 3.97661   2
   4   7  -8 167.586 7.41284   2
  -4  -7   8 150.429 9.44960   1
   3   7  -8 210.068 9.17397   2
   3   7  -8 232.204 8.03111   2
   2   7  -8 498.091 13.2002   2
   2   7  -8 442.689 13.4304   2
   1   7  -8 17.6325 2.15721   2
   1   7  -8 21.2323 2.53625   2
   0   7  -8 106.936 3.80205   2
  -1   7  -8 6.53537 1.05533   2
  -2   7  -8 246.678 7.06620   2
  -3   7  -8 92.8231 4.38538   2
  -3   7  -8 86.7588 3.87663   2
   3  -7   8 96.2663 3.98405   2
  -4   7  -8 68.2806 3.63253   1
  -4   7  -8 69.7990 3.84655   2
  -4   7  -8 65.6132 4.31573   2
   4  -7   8 74.5006 4.83583   2
   4  -7   8 62.6096 4.31383   2
  -5   7  -8 25.8897 4.01650   1
  -5   7  -8 14.0287 2.27401   2
   5  -7   8 18.6989 3.25973   2
  -6   7  -8 94.7864 5.53870   2
   6  -7   8 84.4070 7.46971   2
  -7   7  -8 28.2833 3.75980   2
   6   6  -8 -4.5422 3.88294   2
   5   6  -8 9.55342 3.27223   2
  -5  -6   8 16.1547 3.31574   2
  -5  -6   8 11.3059 5.98468   1
   4   6  -8 400.160 12.8429   2
   4   6  -8 377.888 13.5730   2
  -4  -6   8 362.005 13.7741   1
  -4  -6   8 408.037 12.2856   2
   3   6  -8 385.852 11.8003   2
   3   6  -8 380.086 12.3106   2
  -3  -6   8 378.107 12.5466   2
  -3  -6   8 356.237 12.1803   1
  -3  -6   8 388.970 11.3229   2
   2   6  -8 36.4400 2.95685   2
   2   6  -8 42.4915 4.12298   2
  -2  -6   8 41.8055 4.68041   2
   1   6  -8 2.18512 1.80676   2
   1   6  -8 3.40447 1.19067   2
  -1  -6   8 6.94551 2.14074   2
   0   6  -8 247.367 7.32027   2
   0   6  -8 242.527 7.50783   2
  -1   6  -8 22.1348 1.83356   2
  -1   6  -8 21.0130 2.44486   2
   1  -6   8 23.4096 2.54792   2
  -2   6  -8 0.08902 1.36406   2
  -2   6  -8 0.73981 0.85226   2
  -3   6  -8 480.165 13.1117   2
  -3   6  -8 493.208 13.1963   2
   3  -6   8 499.330 13.0881   2
  -4   6  -8 131.166 5.25157   2
  -4   6  -8 128.094 4.63144   1
   4  -6   8 125.898 5.69756   2
  -5   6  -8 3.67191 1.71863   2
  -5   6  -8 2.29900 2.07368   1
   5  -6   8 3.36623 2.70604   2
   5  -6   8 2.38087 1.81802   2
  -6   6  -8 458.434 14.2502   2
   6  -6   8 483.925 14.4925   2
  -7   6  -8 149.974 7.48485   2
  -7   6  -8 159.880 8.79933   1
   7  -6   8 138.884 7.75501   2
  -8   6  -8 137.635 7.94660   2
   6   5  -8 28.4488 4.63577   2
  -6  -5   8 16.5396 7.54702   1
  -6  -5   8 28.1377 4.43305   2
   5   5  -8 328.367 11.9617   2
   5   5  -8 290.422 12.9090   2
  -5  -5   8 311.889 11.1262   2
  -5  -5   8 266.655 13.2111   1
   4   5  -8 294.216 10.5445   2
   4   5  -8 304.501 11.4408   2
  -4  -5   8 286.060 11.5129   1
  -4  -5   8 295.802 11.6868   2
  -4  -5   8 302.690 10.1879   2
   3   5  -8 114.829 6.37694   2
  -3  -5   8 121.012 5.33230   2
  -3  -5   8 114.817 6.78559   2
  -3  -5   8 118.971 6.01346   1
   2   5  -8 42.2203 3.95692   2
   2   5  -8 46.4459 3.17143   2
  -2  -5   8 46.0445 3.27767   1
  -2  -5   8 51.5451 4.40494   2
  -2  -5   8 50.2427 2.99057   2
   1   5  -8 122.990 5.28203   2
   1   5  -8 126.910 4.94176   2
  -1  -5   8 121.521 5.35549   2
   0   5  -8 274.078 8.34298   2
   0   5  -8 282.501 8.26093   2
   0  -5   8 275.184 8.34510   2
  -1   5  -8 213.972 6.83095   2
  -1   5  -8 216.131 6.63355   2
  -2   5  -8 8.36423 1.23660   2
  -2   5  -8 7.78099 1.68170   2
  -3   5  -8 384.104 11.0480   2
  -3   5  -8 389.489 11.0390   2
   3  -5   8 411.458 11.2475   2
  -4   5  -8 2.95464 1.23260   1
  -4   5  -8 1.80960 1.27158   2
   4  -5   8 0.48704 1.90949   2
  -5   5  -8 132.622 5.39325   1
   5  -5   8 135.009 6.48909   2
  -6   5  -8 798.565 22.1149   1
  -6   5  -8 796.290 21.5947   2
   6  -5   8 789.756 21.6625   2
   6  -5   8 769.555 21.8125   2
  -7   5  -8 167.037 7.66247   2
   7  -5   8 162.180 7.85317   2
  -8   5  -8 5.89729 5.17387   1
  -8   5  -8 5.87419 3.09477   2
   8  -5   8 2.57480 3.40970   2
  -7  -4   8 10.3867 4.99367   2
   6   4  -8 79.4351 8.54327   2
   6   4  -8 91.9871 6.96266   2
  -6  -4   8 87.4622 10.8439   1
  -6  -4   8 106.497 7.51739   2
   5   4  -8 425.217 15.2042   2
   5   4  -8 447.212 14.6251   2
  -5  -4   8 436.656 14.1703   2
  -5  -4   8 384.607 15.4086   1
   4   4  -8 150.844 7.79171   2
   4   4  -8 134.415 6.38406   2
  -4  -4   8 120.174 7.40851   1
  -4  -4   8 124.978 7.80026   2
  -4  -4   8 138.277 6.28733   2
   3   4  -8 0.60101 2.17926   2
   3   4  -8 2.13471 1.43560   2
  -3  -4   8 0.45637 2.68328   2
  -3  -4   8 1.54541 2.10048   1
  -3  -4   8 1.86893 1.34185   2
   2   4  -8 89.9488 4.31390   2
   2   4  -8 84.7078 4.81458   2
  -2  -4   8 77.0746 4.03504   1
  -2  -4   8 83.2034 4.01817   2
  -2  -4   8 85.6262 5.04907   2
   1   4  -8 63.1273 3.88566   2
   1   4  -8 67.3666 3.51041   2
  -1  -4   8 61.9457 3.95509   2
  -1  -4   8 65.2357 2.66860   1
  -1  -4   8 67.5132 3.25044   2
   0   4  -8 28.6059 2.23812   2
   0   4  -8 32.7171 2.82353   2
  -1   4  -8 1194.34 28.5329   2
  -1   4  -8 1172.22 28.4539   2
   1  -4   8 1145.38 28.5552   2
  -2   4  -8 55.5780 3.24977   2
  -2   4  -8 51.5784 2.75283   2
  -3   4  -8 145.209 5.33847   2
  -3   4  -8 150.313 5.58706   2
   3  -4   8 153.133 5.78399   2
  -4   4  -8 772.158 20.3506   1
  -4   4  -8 754.840 20.1952   2
   4  -4   8 811.217 20.4082   2
  -5   4  -8 767.453 20.3154   2
  -5   4  -8 739.063 20.5200   1
   5  -4   8 769.991 20.4276   2
  -6   4  -8 463.190 13.9746   1
  -6   4  -8 452.848 13.9335   2
   6  -4   8 455.530 14.4065   2
   6  -4   8 460.183 14.0534   2
  -7   4  -8 143.107 7.34693   1
  -7   4  -8 128.904 6.53901   2
   7  -4   8 125.199 8.58040   2
   7  -4   8 135.748 6.95050   2
  -8   4  -8 184.915 10.0984   1
  -8   4  -8 180.940 8.44170   2
   8  -4   8 175.332 8.79494   2
  -9   4  -8 -0.7101 3.36142   2
   9  -4   8 -9.4190 4.13770   2
  -8  -3   8 21.9185 6.90575   2
   7   3  -8 84.5953 8.01097   2
  -7  -3   8 88.7979 8.63074   2
   6   3  -8 30.4679 4.21703   2
   6   3  -8 26.3323 6.38362   2
  -6  -3   8 24.6743 5.93558   1
   5   3  -8 365.706 13.5978   2
   5   3  -8 335.733 12.3524   2
  -5  -3   8 370.107 12.5356   2
  -5  -3   8 354.181 13.5793   1
  -5  -3   8 336.134 13.5405   2
   4   3  -8 189.828 7.79456   2
  -4  -3   8 171.583 7.13132   2
  -4  -3   8 174.278 8.60266   2
  -4  -3   8 167.145 8.05142   1
   3   3  -8 255.556 9.23925   2
   3   3  -8 266.496 9.21636   2
  -3  -3   8 262.611 9.54670   2
  -3  -3   8 250.816 9.23543   1
  -3  -3   8 272.420 8.99380   2
   2   3  -8 9.64041 2.18773   2
   2   3  -8 11.1095 1.79080   2
  -2  -3   8 9.44692 1.59623   2
  -2  -3   8 10.7301 1.93179   1
  -2  -3   8 7.37494 2.29726   2
   1   3  -8 191.892 6.88406   2
   1   3  -8 195.340 6.70754   2
  -1  -3   8 200.159 6.02448   1
  -1  -3   8 188.702 6.93025   2
  -1  -3   8 199.281 6.55873   2
   0   3  -8 179.173 6.19999   2
   0   3  -8 175.351 6.03371   2
   0  -3   8 171.925 6.37599   2
  -1   3  -8 1873.57 44.6463   2
  -1   3  -8 1867.74 44.5160   2
   1  -3   8 1901.53 44.6686   2
  -2   3  -8 125.190 4.64516   2
  -2   3  -8 118.306 4.73800   2
   2  -3   8 119.616 4.91547   2
  -3   3  -8 97.4736 4.13126   2
   3  -3   8 93.5650 4.52908   2
  -4   3  -8 401.835 11.4430   1
  -4   3  -8 421.694 11.9893   2
   4  -3   8 420.631 12.1773   2
  -5   3  -8 1218.26 32.5136   1
  -5   3  -8 1241.54 31.2589   2
   5  -3   8 1266.04 31.4115   2
  -6   3  -8 114.753 5.65192   1
   6  -3   8 109.708 6.44194   2
  -7   3  -8 20.0442 3.65543   1
  -7   3  -8 15.6134 2.62762   2
   7  -3   8 14.4476 4.09215   2
   7  -3   8 9.48195 2.45503   2
  -8   3  -8 503.157 16.1113   2
   8  -3   8 498.753 16.3479   2
  -9   3  -8 12.2591 3.61108   2
   9  -3   8 7.49552 3.93672   2
  10  -3   8 109.296 10.1575   2
  -8  -2   8 -11.083 5.63472   2
   7   2  -8 183.093 9.99412   2
  -7  -2   8 186.111 9.98486   2
   6   2  -8 30.4154 6.23875   2
   6   2  -8 26.6275 4.16195   2
  -6  -2   8 37.0189 5.23963   2
  -6  -2   8 27.0299 5.47716   1
   5   2  -8 16.5016 3.02192   2
   5   2  -8 17.2962 4.29619   2
  -5  -2   8 15.7993 4.31600   2
  -5  -2   8 14.8667 2.88572   2
  -5  -2   8 27.1042 4.46226   1
   4   2  -8 212.875 8.96907   2
  -4  -2   8 217.238 8.66861   1
  -4  -2   8 204.614 8.15112   2
  -4  -2   8 197.332 9.09272   2
   3   2  -8 115.144 5.95710   2
   3   2  -8 105.209 5.15759   2
  -3  -2   8 116.273 5.54524   1
  -3  -2   8 112.882 5.24034   2
  -3  -2   8 107.097 5.98047   2
   2   2  -8 2.07284 1.69353   2
   2   2  -8 1.68758 1.09683   2
  -2  -2   8 0.05801 1.74369   2
  -2  -2   8 4.33803 1.28611   2
  -2  -2   8 2.26221 1.52225   1
   1   2  -8 1263.51 30.5050   2
   1   2  -8 1271.90 30.3550   2
  -1  -2   8 1182.71 30.8020   2
  -1  -2   8 1135.16 31.6246   1
  -1  -2   8 1281.28 30.2469   2
   0   2  -8 40.9625 3.09157   2
   0   2  -8 43.5144 2.70529   2
   0  -2   8 41.4594 2.49448   2
   0  -2   8 42.1518 1.86559   1
   0  -2   8 39.3848 3.09137   2
  -1   2  -8 1058.21 26.1241   2
  -1   2  -8 1047.02 25.9988   2
   1  -2   8 1060.48 26.1742   2
  -2   2  -8 415.666 11.5489   2
  -2   2  -8 418.557 11.6042   2
   2  -2   8 410.596 11.7027   2
  -3   2  -8 1426.05 34.6148   2
  -4   2  -8 634.869 16.9031   2
  -4   2  -8 635.312 16.9545   1
   4  -2   8 614.989 16.9701   2
  -5   2  -8 768.604 20.2472   2
  -5   2  -8 746.385 20.6143   1
   5  -2   8 744.831 20.2896   2
  -6   2  -8 50.8085 3.62325   2
  -6   2  -8 54.5648 4.30685   1
   6  -2   8 53.8547 5.01549   2
  -7   2  -8 110.833 6.64775   1
  -7   2  -8 121.743 6.12317   2
   7  -2   8 110.762 7.55246   2
  -8   2  -8 370.022 13.0532   2
  -8   2  -8 387.482 14.2233   1
   8  -2   8 391.711 13.5627   2
  -9   2  -8 38.7738 4.96621   2
   9  -2   8 30.4203 4.56086   2
  10  -2   8 17.4339 5.03541   2
  -8  -1   8 6.92948 5.42662   2
   7   1  -8 160.826 9.56815   2
  -7  -1   8 161.560 9.51503   2
   6   1  -8 161.952 8.60877   2
   6   1  -8 171.753 11.3075   2
  -6  -1   8 157.443 8.21739   2
  -6  -1   8 154.764 9.74156   1
   5   1  -8 156.422 8.68020   2
   5   1  -8 132.814 7.08814   2
  -5  -1   8 150.036 8.92286   2
  -5  -1   8 146.188 7.97607   1
  -5  -1   8 141.966 7.27058   2
   4   1  -8 328.923 11.7725   2
   4   1  -8 343.761 11.8788   2
  -4  -1   8 348.695 11.7270   1
  -4  -1   8 320.710 11.1743   2
  -4  -1   8 338.823 12.0222   2
   3   1  -8 8.80485 1.74772   2
  -3  -1   8 10.2892 2.28209   1
  -3  -1   8 8.79280 2.54229   2
  -3  -1   8 9.81836 1.82512   2
   2   1  -8 281.509 9.11619   2
   2   1  -8 271.720 9.00325   2
  -2  -1   8 267.134 8.72976   2
  -2  -1   8 261.866 9.14632   2
  -2  -1   8 261.647 8.62448   1
   1   1  -8 1857.97 45.0809   2
   1   1  -8 1946.78 45.4313   2
  -1  -1   8 1861.44 47.9563   1
  -1  -1   8 1865.31 45.0339   2
   0   1  -8 673.725 17.4795   2
   0   1  -8 650.676 17.4960   2
   0  -1   8 652.361 17.5293   2
   0  -1   8 690.080 17.3428   2
  -1   1  -8 69.7653 3.39635   2
  -1   1  -8 69.8182 3.60571   2
   1  -1   8 71.1127 2.46387   1
   1  -1   8 69.3840 3.73787   2
  -2   1  -8 232.758 7.43446   2
  -2   1  -8 235.695 7.44980   2
   2  -1   8 232.936 6.53869   1
   2  -1   8 236.971 7.66338   2
  -3   1  -8 2262.29 53.9052   2
   3  -1   8 2314.71 54.0567   2
   3  -1   8 2260.66 57.4586   1
  -4   1  -8 286.423 8.63886   1
  -4   1  -8 275.996 8.85716   2
   4  -1   8 279.044 8.59586   1
   4  -1   8 286.664 9.22274   2
  -5   1  -8 31.6930 3.01099   1
  -5   1  -8 29.2369 2.63663   2
   5  -1   8 29.2518 2.36346   1
   5  -1   8 29.0906 3.61443   2
  -6   1  -8 12.0715 2.17725   2
   6  -1   8 12.1554 2.04934   1
   6  -1   8 11.9947 2.86215   2
  -7   1  -8 56.3012 4.34315   2
  -7   1  -8 54.2642 5.23046   1
   7  -1   8 61.6800 6.09430   2
  -8   1  -8 148.899 8.95769   1
  -8   1  -8 153.401 7.48085   2
  -9   1  -8 186.253 8.79632   2
   9  -1   8 179.227 9.56142   2
 -10   1  -8 2.64858 4.07155   2
  10  -1   8 1.16704 4.56049   2
  -8   0   8 15.4899 5.67786   2
   7   0  -8 63.5946 7.42800   2
  -7   0   8 41.1327 5.43217   2
   6   0  -8 279.651 13.2987   2
   6   0  -8 294.919 11.8379   2
  -6   0   8 267.308 11.0697   2
  -6   0   8 260.456 13.0253   1
   5   0  -8 3.26084 2.13372   2
   5   0  -8 2.39906 3.63373   2
  -5   0   8 5.00339 3.25136   1
  -5   0   8 1.53627 3.89750   2
   4   0  -8 139.807 6.83881   2
   4   0  -8 131.630 7.13008   2
  -4   0   8 137.563 6.43545   2
  -4   0   8 141.925 6.88939   1
  -4   0   8 131.995 7.49525   2
   3   0  -8 413.479 12.8909   2
   3   0  -8 424.219 12.8708   2
  -3   0   8 407.594 12.5779   2
  -3   0   8 392.226 12.8481   2
   2   0  -8 499.486 14.6967   2
   2   0  -8 506.312 14.6063   2
  -2   0   8 515.112 14.8742   2
  -2   0   8 532.943 14.6554   2
   1   0  -8 1382.10 35.0058   2
   1   0  -8 1479.83 34.9883   2
  -1   0   8 1447.95 34.8923   2
  -1   0   8 1390.24 35.0263   2
   0   0  -8 379.872 11.3905   2
   0   0  -8 405.959 11.4991   2
   0   0   8 403.944 11.2904   2
   0   0   8 402.632 11.6154   2
  -1   0  -8 542.525 14.9265   2
  -1   0  -8 566.668 14.9695   2
   1   0   8 562.317 15.1179   2
  -2   0  -8 49.7167 3.16924   2
  -2   0  -8 50.8037 2.87362   2
   2   0   8 51.1446 2.26604   1
   2   0   8 56.1403 3.39494   2
  -3   0  -8 1719.70 40.6296   2
   3   0   8 1663.15 42.9680   1
   3   0   8 1672.36 40.6974   2
  -4   0  -8 8.39343 1.65166   1
  -4   0  -8 6.65722 1.33901   2
   4   0   8 7.27867 1.22326   1
  -5   0  -8 86.2164 4.55126   1
  -5   0  -8 85.5979 4.38733   2
   5   0   8 88.3503 4.03567   1
   5   0   8 83.9175 4.97552   2
  -6   0  -8 178.326 7.60413   1
  -6   0  -8 178.596 7.21819   2
   6   0   8 170.805 6.80586   1
   6   0   8 180.336 7.94714   2
  -7   0  -8 0.27195 1.60881   2
  -7   0  -8 -0.1524 2.91021   1
   7   0   8 3.98036 3.16151   2
   7   0   8 1.84814 1.62848   1
  -8   0  -8 71.1355 7.62415   1
  -8   0  -8 72.7733 5.19455   2
   8   0   8 70.4288 8.08106   2
   8   0   8 81.8736 5.29826   1
  -9   0  -8 330.424 12.7044   2
   9   0   8 331.191 13.1387   2
 -10   0  -8 5.79516 4.07704   2
  10   0   8 9.97434 4.64805   2
   7  -1  -8 -2.4844 4.04741   2
   6  -1  -8 690.298 21.7275   2
  -6   1   8 701.328 21.4090   2
   5  -1  -8 2.69630 2.25946   2
   5  -1  -8 5.86912 3.88603   2
  -5   1   8 1.65713 3.37414   1
  -5   1   8 2.28689 4.19964   2
  -5   1   8 0.47292 2.21461   2
   4  -1  -8 147.432 7.61259   2
   4  -1  -8 140.511 6.89994   2
  -4   1   8 156.548 7.22017   1
  -4   1   8 145.739 6.76850   2
  -4   1   8 155.523 8.23963   2
   3  -1  -8 718.924 19.2786   2
   3  -1  -8 668.175 19.2326   2
  -3   1   8 667.963 18.9953   2
  -3   1   8 689.803 19.4738   2
   2  -1  -8 1288.57 32.4701   2
   2  -1  -8 1298.59 32.2704   2
  -2   1   8 1262.13 32.1545   2
  -2   1   8 1289.28 32.4629   2
   1  -1  -8 421.598 12.4647   2
   1  -1  -8 436.393 12.4476   2
  -1   1   8 420.687 12.6445   2
  -1   1   8 425.697 12.2768   2
   0  -1  -8 0.47284 1.33669   2
   0  -1  -8 0.61978 0.97106   2
   0   1   8 -0.5260 1.37918   2
   0   1   8 0.73507 0.80065   2
  -1  -1  -8 2096.25 49.1240   2
  -1  -1  -8 2100.34 49.2596   2
   1   1   8 2005.78 49.2156   2
  -2  -1  -8 3.10517 1.29865   2
  -2  -1  -8 5.82577 1.22060   2
   2   1   8 8.74405 1.81734   2
   2   1   8 3.00826 0.78698   1
  -3  -1  -8 182.358 6.32072   2
   3   1   8 174.602 5.93991   1
   3   1   8 178.349 6.64738   2
  -4  -1  -8 139.669 5.45648   2
  -4  -1  -8 133.730 5.46005   1
   4   1   8 130.965 5.97727   2
   4   1   8 132.205 5.02088   1
  -5  -1  -8 272.149 9.40415   1
  -5  -1  -8 276.118 9.11469   2
   5   1   8 265.939 8.83139   1
   5   1   8 269.647 9.57489   2
  -6  -1  -8 145.636 6.92596   1
  -6  -1  -8 145.692 6.30176   2
   6   1   8 143.227 6.01165   1
   6   1   8 142.918 7.24235   2
  -7  -1  -8 90.8481 6.66962   1
   7   1   8 80.0477 6.80850   2
   7   1   8 88.2443 4.97361   1
  -8  -1  -8 87.8672 5.95163   2
  -8  -1  -8 86.9636 8.11363   1
   8   1   8 101.342 5.74424   1
   8   1   8 97.8750 8.79777   2
  -9  -1  -8 260.559 10.8362   2
   9   1   8 251.023 11.0385   2
   9   1   8 259.681 10.6716   1
 -10  -1  -8 3.37928 3.90957   2
  10   1   8 -2.2932 4.16801   2
   7  -2  -8 28.5083 5.28533   2
  -7   2   8 31.5027 5.18474   2
   6  -2  -8 345.492 13.7252   2
  -6   2   8 346.833 13.1101   2
   5  -2  -8 71.7716 5.54622   2
   5  -2  -8 70.0401 7.13214   2
  -5   2   8 75.6490 8.22155   2
  -5   2   8 70.3573 5.42222   2
  -5   2   8 73.6249 6.66571   1
   4  -2  -8 361.141 12.5447   2
   4  -2  -8 354.628 12.3340   2
  -4   2   8 374.112 13.1538   2
   3  -2  -8 571.341 17.1657   2
   3  -2  -8 610.671 17.2659   2
  -3   2   8 601.635 17.1767   2
  -3   2   8 597.706 17.5111   2
   2  -2  -8 691.646 18.9572   2
   2  -2  -8 697.688 19.1454   2
  -2   2   8 698.770 18.9831   2
   1  -2  -8 35.2708 2.80126   2
  -1   2   8 32.6701 3.52805   2
  -1   2   8 30.5322 2.43880   2
   0  -2  -8 27.7123 2.40266   2
   0  -2  -8 32.3841 3.00103   2
   0   2   8 28.8790 3.22685   2
   0   2   8 30.7386 2.26972   2
  -1  -2  -8 1515.88 38.3256   2
  -1  -2  -8 1645.80 38.4845   2
   1   2   8 1594.87 38.6197   2
  -2  -2  -8 40.2607 3.08304   2
  -2  -2  -8 40.8976 2.55557   2
   2   2   8 40.6379 2.46772   1
   2   2   8 37.7180 3.24178   2
  -3  -2  -8 29.9954 2.27863   2
  -3  -2  -8 25.7739 2.61730   2
   3   2   8 23.8693 2.97521   2
   3   2   8 28.2427 2.12135   1
  -4  -2  -8 61.9837 3.53939   2
   4   2   8 70.5387 3.40930   1
   4   2   8 59.2752 4.40889   2
  -5  -2  -8 24.5712 2.66960   2
  -5  -2  -8 31.4348 3.72972   1
   5   2   8 27.1079 2.40191   1
   5   2   8 24.4102 3.27403   2
  -6  -2  -8 54.3613 5.10644   1
  -6  -2  -8 59.4650 4.01171   2
   6   2   8 52.2215 5.36814   2
   6   2   8 53.2347 3.63969   1
  -7  -2  -8 570.427 17.0560   2
  -7  -2  -8 557.665 18.4469   1
   7   2   8 585.960 18.0979   2
  -8  -2  -8 112.781 6.62110   2
  -8  -2  -8 109.703 8.68408   1
   8   2   8 114.694 6.36234   1
   8   2   8 108.570 9.11271   2
  -9  -2  -8 9.91276 3.18487   2
   9   2   8 16.7834 3.22563   1
   9   2   8 2.56806 3.13723   2
 -10  -2  -8 42.3541 5.65373   2
  10   2   8 41.9462 6.50086   1
  10   2   8 40.7417 5.91311   2
   7  -3  -8 37.1769 6.02620   2
  -7   3   8 49.2439 6.10520   2
   6  -3  -8 -3.4804 3.51212   2
  -6   3   8 4.63663 3.23547   2
   5  -3  -8 206.606 9.79982   2
  -5   3   8 222.050 9.52042   2
  -5   3   8 228.596 11.7258   2
  -5   3   8 215.042 10.4206   1
   4  -3  -8 1176.73 31.2476   2
   4  -3  -8 1115.09 30.6744   2
  -4   3   8 1208.70 31.1438   2
  -4   3   8 1180.70 31.4841   2
   3  -3  -8 550.996 16.3512   2
   3  -3  -8 518.734 15.9993   2
  -3   3   8 555.716 16.6443   2
  -3   3   8 561.807 16.2470   2
   2  -3  -8 200.210 7.56344   2
   2  -3  -8 204.002 7.83404   2
  -2   3   8 197.833 7.44081   2
   1  -3  -8 366.734 11.2298   2
   1  -3  -8 373.791 11.3127   2
  -1   3   8 364.457 11.5962   2
  -1   3   8 353.997 10.9877   2
   0  -3  -8 210.549 7.45960   2
   0  -3  -8 213.091 7.37542   2
   0   3   8 207.372 7.70682   2
   0   3   8 206.593 7.10429   2
  -1  -3  -8 541.227 14.9329   2
   1   3   8 544.019 15.2278   2
  -2  -3  -8 371.240 10.8958   2
   2   3   8 363.098 11.2408   2
   2   3   8 374.326 11.4783   1
  -3  -3  -8 31.4132 2.49534   2
  -3  -3  -8 31.0368 2.97055   2
   3   3   8 31.1282 3.42529   2
   3   3   8 35.3597 2.55446   1
  -4  -3  -8 1.10225 1.16757   2
   4   3   8 5.69896 2.17206   2
   4   3   8 1.86806 1.02711   1
  -5  -3  -8 13.9892 2.86385   1
  -5  -3  -8 12.0763 1.99276   2
   5   3   8 15.8812 3.07667   2
  -6  -3  -8 951.662 27.8953   1
  -6  -3  -8 997.797 25.8406   2
   6   3   8 996.012 26.4053   2
   6   3   8 920.628 26.9883   1
  -7  -3  -8 565.067 17.0189   2
  -7  -3  -8 574.500 19.0805   1
   7   3   8 559.013 18.0992   2
   7   3   8 566.570 17.5862   1
  -8  -3  -8 172.238 8.26100   2
   8   3   8 175.138 7.99069   1
   8   3   8 153.438 10.6950   2
  -9  -3  -8 161.067 9.08217   2
   9   3   8 165.624 8.85351   2
   9   3   8 182.248 8.97562   1
 -10  -3  -8 -0.9930 4.42129   2
   7  -4  -8 45.1772 6.81486   2
   6  -4  -8 72.0206 7.18459   2
  -6   4   8 61.4592 6.14809   2
  -5   4   8 74.1918 5.79674   2
  -5   4   8 90.8421 9.66529   2
   4  -4  -8 688.521 20.4625   2
   4  -4  -8 682.342 20.4088   2
  -4   4   8 727.914 21.4430   2
  -4   4   8 691.045 20.2627   2
   3  -4  -8 20.0520 3.48438   2
   3  -4  -8 17.1587 2.61109   2
  -3   4   8 20.5585 2.76078   2
  -3   4   8 20.1039 3.82575   2
   2  -4  -8 24.6471 2.86253   2
   2  -4  -8 23.8306 3.12113   2
  -2   4   8 19.4293 3.28476   2
  -2   4   8 19.6130 2.58994   2
   1  -4  -8 235.792 8.52815   2
   1  -4  -8 242.739 8.43053   2
  -1   4   8 236.789 8.09835   2
  -1   4   8 239.200 8.88459   2
   0  -4  -8 2.52723 1.16248   2
   0  -4  -8 2.77156 1.77885   2
   0   4   8 2.73108 2.15007   2
   0   4   8 3.32327 1.12248   2
  -1  -4  -8 205.341 7.34321   2
  -1  -4  -8 200.281 7.05248   2
   1   4   8 191.900 7.52032   2
  -2  -4  -8 510.180 14.2303   2
  -2  -4  -8 517.479 14.4045   2
   2   4   8 496.452 15.2963   1
   2   4   8 520.921 14.7569   2
  -3  -4  -8 37.1721 3.47530   2
  -3  -4  -8 35.2847 2.77426   2
   3   4   8 38.8231 3.91767   2
   3   4   8 36.4141 2.79463   1
  -4  -4  -8 10.1729 1.85004   2
   4   4   8 10.0860 2.63562   2
   4   4   8 13.0415 1.92802   1
  -5  -4  -8 399.470 12.3558   2
   5   4   8 398.609 12.9307   1
  -6  -4  -8 479.584 16.4322   1
  -6  -4  -8 486.060 14.6510   2
   6   4   8 463.168 15.4698   2
  -7  -4  -8 102.756 6.08437   2
  -7  -4  -8 106.376 8.68428   1
   7   4   8 108.497 8.73125   2
   7   4   8 100.568 5.55838   1
  -8  -4  -8 69.8819 5.63021   2
   8   4   8 70.4984 5.46866   1
   8   4   8 58.5074 7.48091   2
  -9  -4  -8 544.571 18.1729   2
   9   4   8 593.743 19.1928   1
   9   4   8 533.151 18.3854   2
 -10  -4  -8 -0.3967 4.80917   2
   7  -5  -8 28.5475 6.72453   2
   6  -5  -8 351.082 14.5612   2
  -6   5   8 331.820 13.5559   2
  -5   5   8 93.1541 11.3611   2
  -5   5   8 78.4943 5.98810   2
   4  -5  -8 199.622 8.67805   2
  -4   5   8 197.284 10.8357   2
  -4   5   8 185.590 8.37792   2
   3  -5  -8 -1.6415 2.67763   2
   3  -5  -8 8.17562 2.05300   2
  -3   5   8 4.80182 1.83316   2
  -3   5   8 3.19414 3.45095   2
   2  -5  -8 175.339 7.24497   2
   2  -5  -8 170.278 7.66697   2
  -2   5   8 181.290 8.18044   2
   1  -5  -8 197.148 7.53958   2
   1  -5  -8 188.871 7.60023   2
  -1   5   8 202.584 8.35636   2
  -1   5   8 202.465 7.30273   2
   0  -5  -8 207.115 7.42673   2
   0  -5  -8 215.213 7.85365   2
   0   5   8 208.520 8.24660   2
   0   5   8 210.234 7.25614   2
  -1  -5  -8 36.5799 3.78119   2
  -1  -5  -8 31.4230 2.79914   2
   1   5   8 40.0359 4.23477   2
  -2  -5  -8 674.988 18.4084   2
  -2  -5  -8 719.090 18.4327   2
   2   5   8 677.565 20.0619   1
   2   5   8 660.751 18.7261   2
  -3  -5  -8 57.7385 4.26339   2
  -3  -5  -8 62.0320 3.51593   2
   3   5   8 60.0404 4.85840   2
   3   5   8 59.1725 3.79534   1
  -4  -5  -8 508.148 14.6907   2
  -4  -5  -8 488.833 14.3954   2
   4   5   8 512.851 15.3584   2
   4   5   8 503.873 15.6767   1
  -5  -5  -8 785.283 21.3498   2
  -6  -5  -8 823.094 22.8418   2
   6   5   8 835.197 24.4347   1
   6   5   8 833.601 23.9836   2
  -7  -5  -8 19.8288 3.29448   2
   7   5   8 23.2386 3.35174   1
   7   5   8 22.6127 5.44437   2
  -8  -5  -8 38.6065 5.39854   2
   8   5   8 24.2379 7.21957   2
   8   5   8 33.9189 4.33290   1
  -9  -5  -8 416.643 15.3878   2
   9   5   8 386.646 15.2532   2
   9   5   8 431.263 15.6501   1
 -10  -5  -8 0.57491 5.92592   2
   6  -6  -8 516.407 19.2980   2
  -5   6   8 15.8213 7.81336   2
  -5   6   8 5.17471 3.08238   2
   4  -6  -8 16.2661 3.32622   2
  -4   6   8 22.2566 5.93973   2
  -4   6   8 19.7020 3.04115   2
   3  -6  -8 7.81124 2.45076   2
   3  -6  -8 0.41427 3.47279   2
  -3   6   8 9.56238 4.29731   2
  -3   6   8 10.5729 2.14970   2
   2  -6  -8 114.955 6.89749   2
   2  -6  -8 111.237 5.77621   2
  -2   6   8 115.666 5.44771   2
  -2   6   8 122.137 7.59287   2
   1  -6  -8 122.083 5.59597   2
   1  -6  -8 107.333 6.08602   2
  -1   6   8 121.396 7.01080   2
   0  -6  -8 536.646 15.8871   2
   0  -6  -8 586.586 15.9913   2
   0   6   8 570.655 16.5795   2
  -1  -6  -8 80.3143 5.16422   2
  -1  -6  -8 76.6196 4.19001   2
   1   6   8 80.0384 4.85730   1
   1   6   8 76.9965 5.40578   2
  -2  -6  -8 41.2503 3.11045   2
  -2  -6  -8 30.4540 4.02538   2
   2   6   8 41.5105 4.47649   2
   2   6   8 29.5183 3.15118   1
  -3  -6  -8 95.2189 5.55301   2
  -3  -6  -8 101.654 4.78273   2
   3   6   8 96.4400 6.07204   2
   3   6   8 95.7961 5.28913   1
  -4  -6  -8 1290.16 33.5340   2
  -4  -6  -8 1389.46 33.7235   2
   4   6   8 1316.99 34.2366   2
   4   6   8 1353.15 36.9977   1
  -5  -6  -8 22.3448 3.54312   2
  -5  -6  -8 20.0803 2.71038   2
   5   6   8 30.3110 3.42061   1
   5   6   8 26.2087 4.27941   2
  -6  -6  -8 223.430 8.82447   2
   6   6   8 234.684 11.3928   2
   6   6   8 223.768 9.41294   1
  -7  -6  -8 212.673 9.38615   2
   7   6   8 216.262 9.54139   1
   7   6   8 229.273 13.1992   2
  -8  -6  -8 48.0234 6.33794   2
   8   6   8 28.4979 4.28796   1
   8   6   8 29.8318 8.20381   2
  -9  -6  -8 354.128 14.6842   2
  -5   7   8 47.9426 6.38334   2
   4  -7  -8 104.982 7.56806   2
  -4   7   8 104.388 12.3119   2
  -4   7   8 96.1210 6.54943   2
   3  -7  -8 0.47220 2.58447   2
  -3   7   8 3.50610 2.21200   2
  -3   7   8 0.38269 4.85505   2
   2  -7  -8 35.7775 3.91350   2
   2  -7  -8 21.9977 4.11891   2
  -2   7   8 28.5510 4.72207   2
  -2   7   8 24.6631 3.30808   2
   1  -7  -8 206.963 8.74949   2
   1  -7  -8 212.882 8.13338   2
  -1   7   8 229.478 9.58598   2
  -1   7   8 217.020 7.82386   2
   0  -7  -8 506.389 15.3874   2
   0  -7  -8 537.838 15.1828   2
   0   7   8 543.070 16.1614   2
  -1  -7  -8 77.4650 5.54477   2
  -1  -7  -8 75.0573 4.27439   2
   1   7   8 74.9527 6.07058   2
   1   7   8 82.5134 5.14980   1
  -2  -7  -8 198.495 8.08245   2
  -2  -7  -8 208.645 7.34603   2
   2   7   8 197.147 8.49996   1
   2   7   8 196.616 8.64012   2
  -3  -7  -8 102.255 6.18191   2
  -3  -7  -8 106.738 5.13294   2
   3   7   8 107.855 5.93746   1
   3   7   8 113.155 6.93211   2
  -4  -7  -8 1048.04 26.3782   2
  -4  -7  -8 986.524 26.4140   2
   4   7   8 956.278 26.9687   2
   4   7   8 1033.51 29.2021   1
  -5  -7  -8 3.08366 3.09796   2
  -5  -7  -8 -2.5126 1.97128   2
   5   7   8 -1.2217 3.93408   2
   5   7   8 1.43342 2.05998   1
  -6  -7  -8 33.3269 4.72914   2
   6   7   8 33.8411 4.28159   1
   6   7   8 38.5985 6.29294   2
  -7  -7  -8 238.216 10.0055   2
   7   7   8 212.399 14.5325   2
   7   7   8 236.364 10.3941   1
   8   7   8 85.2676 6.76514   1
  -4   8   8 15.1982 3.32046   2
   3  -8  -8 14.3761 3.47327   2
  -3   8   8 14.0916 2.63794   2
   2  -8  -8 226.575 8.93483   2
  -2   8   8 235.447 11.5013   2
  -2   8   8 225.582 8.57583   2
   1  -8  -8 417.084 13.0176   2
  -1   8   8 418.682 14.5148   2
   0  -8  -8 199.342 7.48628   2
   0  -8  -8 185.106 8.45528   2
   0   8   8 187.744 9.21836   2
  -1  -8  -8 150.496 7.63597   2
  -1  -8  -8 148.375 6.32273   2
   1   8   8 165.394 7.79182   1
   1   8   8 158.598 8.26386   2
  -2  -8  -8 641.361 18.3014   2
  -2  -8  -8 655.110 17.8336   2
   2   8   8 657.301 19.0174   2
   2   8   8 656.318 20.6135   1
  -3  -8  -8 -1.0110 1.87066   2
  -3  -8  -8 -7.2423 3.07077   2
   3   8   8 2.42964 3.41591   2
  -4  -8  -8 450.499 15.0222   2
  -4  -8  -8 477.987 14.3960   2
   4   8   8 497.062 16.5407   1
   4   8   8 508.939 16.2469   2
  -5  -8  -8 11.1814 2.57496   2
   5   8   8 11.1761 5.15021   2
   5   8   8 18.3462 3.19535   1
  -6  -8  -8 96.3516 6.64751   2
   6   8   8 79.0974 6.03057   1
   7   8   8 126.492 8.47577   1
  -3   9   8 134.851 7.45441   2
   0  -9  -8 14.5782 2.84549   2
   0   9   8 13.2170 3.55491   1
  -1  -9  -8 -0.7155 3.49215   2
  -1  -9  -8 5.29956 2.26242   2
   1   9   8 4.47385 2.70392   1
   1   9   8 4.12328 4.02348   2
  -2  -9  -8 876.012 24.4085   2
  -2  -9  -8 982.010 24.1766   2
   2   9   8 900.701 25.2970   2
   2   9   8 943.160 28.0693   1
  -3  -9  -8 0.93712 2.39452   2
   3   9   8 0.62735 2.70924   1
   4   9   8 13.9842 3.04080   1
   5   9   8 33.0476 4.75038   1
   0  10   8 124.224 8.59094   1
   1  10   8 26.6718 4.52112   1
   2  10   8 398.355 15.3648   1
   3  10   8 6.53851 3.67872   1
   4   9  -9 64.2313 6.44330   2
   3   9  -9 68.3587 4.72370   2
   4   8  -9 21.9996 3.58612   2
   3   8  -9 7.29141 2.36531   2
   2   8  -9 1.36760 1.76674   2
   1   8  -9 74.6167 3.47652   2
   1   8  -9 72.0200 3.91528   2
   0   8  -9 158.251 4.80817   2
   0   8  -9 151.670 4.97032   2
  -1   8  -9 58.6465 2.43776   2
  -1   8  -9 59.2535 2.61589   2
  -2   8  -9 248.076 6.72272   2
  -2   8  -9 237.772 6.48873   2
  -3   8  -9 7.86425 1.33774   2
  -3   8  -9 11.1202 1.63286   2
  -5   8  -9 692.731 18.5568   2
  -6   8  -9 49.9407 5.28057   2
  -7   8  -9 11.6203 3.95215   2
   5   7  -9 120.161 7.99136   2
   4   7  -9 0.16255 2.52439   2
   3   7  -9 2.14645 3.92428   2
   3   7  -9 3.53464 2.12633   2
   2   7  -9 19.2120 2.43541   2
   2   7  -9 18.9847 3.41127   2
   1   7  -9 16.3020 2.69029   2
   1   7  -9 14.7643 1.94919   2
  -1  -7   9 19.0932 2.92730   2
   0   7  -9 370.661 10.7753   2
   0   7  -9 382.533 10.5038   2
   0  -7   9 399.985 10.5204   2
  -1   7  -9 55.1066 2.81622   2
  -2   7  -9 88.0788 3.74238   2
  -3   7  -9 236.528 7.86865   2
  -3   7  -9 246.006 7.67659   2
   3  -7   9 256.356 7.84615   2
   3  -7   9 249.087 7.43869   2
  -4   7  -9 210.045 7.79316   2
   4  -7   9 229.611 8.15979   2
   4  -7   9 210.876 7.61861   2
  -5   7  -9 479.588 13.1837   1
  -5   7  -9 482.340 13.8336   2
  -5   7  -9 446.768 13.8664   2
   5  -7   9 472.890 13.9749   2
  -6   7  -9 63.9693 5.12999   2
  -7   7  -9 47.6847 5.71235   2
   5   6  -9 81.7618 6.85238   2
   4   6  -9 97.0028 6.05459   2
   4   6  -9 87.1642 8.66592   2
  -4  -6   9 92.2379 5.78770   2
  -4  -6   9 94.2235 7.80013   1
   3   6  -9 16.7596 3.86101   2
   3   6  -9 18.8153 2.81378   2
  -3  -6   9 14.3952 2.37940   2
  -3  -6   9 14.5384 3.24332   1
  -3  -6   9 18.8027 4.39979   2
   2   6  -9 7.19303 2.68843   2
   2   6  -9 3.18228 1.75006   2
  -2  -6   9 3.36006 1.43645   2
  -2  -6   9 7.15998 3.24121   2
   1   6  -9 0.29276 2.14570   2
   1   6  -9 -0.1221 1.20439   2
  -1  -6   9 2.08673 2.35171   2
   0   6  -9 890.608 22.9697   2
   0   6  -9 947.618 23.0525   2
   0  -6   9 921.749 22.9452   2
  -1   6  -9 15.9869 2.19209   2
  -1   6  -9 11.8265 1.55208   2
   1  -6   9 15.0380 2.16307   2
  -2   6  -9 0.08186 0.99375   2
  -2   6  -9 1.24136 1.67185   2
   2  -6   9 0.54153 1.76939   2
  -3   6  -9 698.841 18.5172   2
  -3   6  -9 716.725 18.5049   2
   3  -6   9 732.539 18.4866   2
  -4   6  -9 427.093 12.7534   2
  -4   6  -9 431.819 12.6924   2
   4  -6   9 452.371 12.7709   2
  -5   6  -9 180.318 6.26728   1
  -5   6  -9 186.565 7.18580   2
   5  -6   9 184.532 8.10822   2
   5  -6   9 179.237 7.17480   2
  -6   6  -9 17.2189 3.25164   1
  -6   6  -9 14.8155 2.55766   2
   6  -6   9 12.0752 4.09229   2
   6  -6   9 14.4081 3.09590   2
  -7   6  -9 299.027 11.1732   2
  -8   6  -9 -1.1980 3.43362   2
   6   5  -9 0.95852 4.10697   2
   5   5  -9 87.4565 9.95848   2
   5   5  -9 107.817 7.16396   2
  -5  -5   9 106.719 6.87577   2
  -5  -5   9 77.2935 10.0615   1
   4   5  -9 130.358 6.80769   2
   4   5  -9 131.633 8.53315   2
  -4  -5   9 117.515 8.13077   1
  -4  -5   9 134.083 6.49697   2
   3   5  -9 2.19554 1.70873   2
   3   5  -9 5.19989 3.05614   2
  -3  -5   9 1.48214 1.66546   2
  -3  -5   9 3.10951 2.56797   1
  -3  -5   9 8.49908 3.72203   2
   2   5  -9 856.147 22.5719   2
  -2  -5   9 888.619 22.1926   2
  -2  -5   9 855.024 22.9028   1
  -2  -5   9 835.856 22.6811   2
   1   5  -9 0.15529 1.17363   2
   1   5  -9 0.11082 1.92572   2
  -1  -5   9 3.56287 2.13031   2
   0   5  -9 823.871 21.3151   2
   0   5  -9 825.643 21.2960   2
   0  -5   9 860.941 21.3803   2
  -1   5  -9 231.752 7.48406   2
  -1   5  -9 219.850 7.08710   2
   1  -5   9 216.495 7.40269   2
  -2   5  -9 347.503 10.0678   2
  -2   5  -9 360.698 10.3789   2
   2  -5   9 346.874 10.3112   2
  -3   5  -9 687.027 18.1809   2
  -3   5  -9 707.772 18.1781   2
   3  -5   9 692.434 18.2451   2
  -4   5  -9 358.756 10.7792   2
   4  -5   9 354.457 11.0577   2
  -5   5  -9 2.07603 1.51741   2
  -5   5  -9 0.43050 1.57828   1
   5  -5   9 1.65295 2.72055   2
  -6   5  -9 6.09248 2.10238   2
  -6   5  -9 7.83583 2.61730   1
   6  -5   9 5.97308 2.30770   2
   6  -5   9 5.24296 3.60615   2
  -7   5  -9 416.674 13.8524   1
  -7   5  -9 395.497 13.4640   2
   7  -5   9 417.141 13.8920   2
  -8   5  -9 23.8645 4.02271   2
   8  -5   9 12.2163 4.00026   2
   6   4  -9 20.6317 4.30062   2
   5   4  -9 94.5001 9.52763   2
   5   4  -9 99.2324 6.65461   2
  -5  -4   9 76.3906 8.89489   1
  -5  -4   9 88.3848 6.41880   2
   4   4  -9 1.97564 1.98177   2
   4   4  -9 3.57988 3.75891   2
  -4  -4   9 -1.7813 3.40676   1
  -4  -4   9 2.46253 2.02696   2
  -4  -4   9 4.02924 3.88995   2
   3   4  -9 9.33259 2.13084   2
   3   4  -9 6.53069 2.84374   2
  -3  -4   9 8.48048 3.35886   2
  -3  -4   9 6.41748 2.60563   1
  -3  -4   9 7.85274 1.81522   2
   2   4  -9 1204.10 30.7542   2
   2   4  -9 1259.97 31.0514   2
  -2  -4   9 1224.79 30.4949   2
  -2  -4   9 1166.74 31.9203   1
  -2  -4   9 1252.42 31.0207   2
   1   4  -9 51.2290 3.27870   2
   1   4  -9 53.8997 4.04555   2
  -1  -4   9 51.1616 3.06975   2
  -1  -4   9 52.3709 2.34007   1
  -1  -4   9 52.7534 4.14058   2
   0   4  -9 126.118 5.47478   2
   0   4  -9 134.525 5.26535   2
   0  -4   9 136.957 5.72095   2
  -1   4  -9 383.661 11.0859   2
  -1   4  -9 401.486 11.2898   2
   1  -4   9 381.210 11.2359   2
  -2   4  -9 1268.16 31.4048   2
  -2   4  -9 1299.06 31.4776   2
   2  -4   9 1293.68 31.5452   2
  -3   4  -9 348.962 10.2965   2
  -3   4  -9 334.512 10.0330   2
   3  -4   9 332.563 10.3173   2
  -4   4  -9 179.815 5.18189   1
  -4   4  -9 177.256 6.52742   2
   4  -4   9 177.488 7.13422   2
  -5   4  -9 153.554 5.63725   1
   5  -4   9 160.798 7.18531   2
  -6   4  -9 57.7071 4.45746   1
  -6   4  -9 54.8267 4.21908   2
   6  -4   9 57.5406 5.98014   2
  -7   4  -9 149.443 7.78702   1
  -7   4  -9 167.172 7.54447   2
   7  -4   9 159.816 7.78110   2
  -8   4  -9 127.007 9.26226   1
  -8   4  -9 136.220 7.59438   2
   8  -4   9 144.048 8.35039   2
  -9   4  -9 34.1864 5.38650   2
   9  -4   9 32.3532 5.39400   2
  -7  -3   9 191.005 11.8388   2
   6   3  -9 228.587 10.9168   2
   6   3  -9 197.782 14.2655   2
  -6  -3   9 214.212 10.2820   2
   5   3  -9 128.087 7.42083   2
   5   3  -9 140.901 10.1831   2
  -5  -3   9 132.250 9.12004   1
  -5  -3   9 139.870 7.49999   2
   4   3  -9 164.983 7.62316   2
   4   3  -9 163.788 8.56821   2
  -4  -3   9 156.706 8.11817   1
  -4  -3   9 157.692 8.77345   2
  -4  -3   9 166.249 7.30645   2
   3   3  -9 127.211 6.80155   2
  -3  -3   9 117.449 6.82161   2
  -3  -3   9 111.105 6.01307   1
  -3  -3   9 126.882 5.71779   2
   2   3  -9 1375.81 33.4768   2
   2   3  -9 1358.05 33.2239   2
  -2  -3   9 1194.57 34.5854   1
  -2  -3   9 1316.60 33.2618   2
  -2  -3   9 1376.81 33.0613   2
   1   3  -9 183.986 6.75511   2
   1   3  -9 180.052 6.95001   2
  -1  -3   9 173.813 6.94440   2
  -1  -3   9 177.672 5.71787   1
  -1  -3   9 191.018 6.53217   2
   0   3  -9 135.569 5.62158   2
   0   3  -9 144.172 5.49844   2
   0  -3   9 138.324 5.86741   2
  -1   3  -9 189.448 6.58131   2
  -1   3  -9 195.274 6.86158   2
   1  -3   9 195.140 6.93661   2
  -2   3  -9 1186.24 29.8336   2
  -2   3  -9 1238.23 29.9908   2
   2  -3   9 1221.84 30.0601   2
  -3   3  -9 163.286 5.99580   2
  -3   3  -9 162.767 6.23141   2
   3  -3   9 167.373 6.48633   2
  -4   3  -9 201.040 6.14458   1
  -4   3  -9 211.785 7.31202   2
   4  -3   9 205.535 7.71794   2
  -5   3  -9 40.9338 3.35386   2
  -5   3  -9 41.2786 3.17320   1
   5  -3   9 40.0524 4.55994   2
  -6   3  -9 4.39616 1.70841   2
  -6   3  -9 2.75055 2.17538   1
   6  -3   9 1.79346 2.93376   2
  -7   3  -9 23.3662 3.25573   2
  -7   3  -9 23.7398 3.78757   1
   7  -3   9 17.0804 4.40569   2
  -8   3  -9 461.805 15.1223   2
  -8   3  -9 443.669 15.8225   1
   8  -3   9 444.657 15.3640   2
  -9   3  -9 4.62905 3.23084   2
   9  -3   9 1.96525 3.93795   2
  -8  -2   9 -11.993 6.66109   2
  -7  -2   9 382.361 15.3733   2
   6   2  -9 2.10913 3.38158   2
   6   2  -9 4.21908 6.62318   2
  -6  -2   9 -0.3732 3.24220   2
   5   2  -9 5.89930 2.70999   2
   5   2  -9 6.31082 4.54539   2
  -5  -2   9 4.74927 3.97038   1
  -5  -2   9 2.02209 2.52758   2
   4   2  -9 929.797 25.6718   2
   4   2  -9 894.628 25.6962   2
  -4  -2   9 889.548 25.8083   2
  -4  -2   9 977.847 25.6306   2
  -4  -2   9 994.499 26.9119   1
   3   2  -9 366.610 12.1831   2
  -3  -2   9 358.675 11.8748   1
  -3  -2   9 374.337 11.7843   2
  -3  -2   9 362.005 12.3446   2
   2   2  -9 525.497 15.2972   2
   2   2  -9 553.624 15.4261   2
  -2  -2   9 539.590 15.0569   2
  -2  -2   9 507.863 15.2358   1
  -2  -2   9 525.006 15.4265   2
   1   2  -9 50.1108 3.15862   2
   1   2  -9 44.9617 3.81384   2
  -1  -2   9 41.6229 2.74992   1
  -1  -2   9 50.8428 3.12997   2
  -1  -2   9 45.4574 3.73066   2
   0   2  -9 816.853 20.7780   2
   0   2  -9 832.802 20.7313   2
   0  -2   9 802.670 20.7687   2
   0  -2   9 695.478 20.3891   1
   0  -2   9 823.805 20.4246   2
  -1   2  -9 203.070 6.94360   2
  -1   2  -9 202.256 7.10020   2
   1  -2   9 201.527 7.13455   2
  -2   2  -9 234.911 7.47534   2
  -2   2  -9 209.767 7.37858   2
   2  -2   9 224.290 7.65058   2
  -3   2  -9 44.6978 2.74328   2
  -3   2  -9 46.0498 3.45420   2
   3  -2   9 41.2074 3.49451   2
  -4   2  -9 125.352 4.51550   1
  -4   2  -9 126.752 5.27512   2
   4  -2   9 127.073 5.84662   2
  -5   2  -9 126.124 5.19134   1
  -5   2  -9 133.801 5.71603   2
   5  -2   9 122.866 6.28249   2
  -6   2  -9 246.704 8.75132   1
   6  -2   9 227.526 9.36448   2
  -7   2  -9 2.43142 3.15377   1
  -7   2  -9 5.57484 1.95569   2
   7  -2   9 1.95317 3.44652   2
  -8   2  -9 327.505 13.2298   1
  -8   2  -9 354.924 12.5339   2
   8  -2   9 339.706 13.0186   2
  -9   2  -9 34.3825 4.52561   2
   9  -2   9 34.5429 5.07926   2
  10  -2   9 101.627 9.80635   2
   7   1  -9 249.098 12.4242   2
  -7  -1   9 248.391 12.5769   2
   6   1  -9 56.9626 6.43048   2
  -6  -1   9 53.1433 5.99213   2
   5   1  -9 292.349 11.4508   2
   5   1  -9 305.807 12.8598   2
  -5  -1   9 284.905 11.7738   1
   4   1  -9 592.358 18.1233   2
   4   1  -9 608.522 18.2363   2
  -4  -1   9 611.816 18.6170   2
  -4  -1   9 613.172 18.4979   1
  -4  -1   9 587.210 17.7282   2
   3   1  -9 355.073 11.8595   2
   3   1  -9 373.619 12.1418   2
  -3  -1   9 364.009 12.2360   2
  -3  -1   9 355.510 11.6186   2
   2   1  -9 14.0405 2.64234   2
   2   1  -9 13.4021 2.15904   2
  -2  -1   9 10.9199 1.86273   2
  -2  -1   9 17.7123 2.30933   1
  -2  -1   9 14.1730 2.73247   2
   1   1  -9 7.43404 2.10470   2
   1   1  -9 6.44540 1.49159   2
  -1  -1   9 8.12982 1.58802   2
  -1  -1   9 9.08144 1.58197   1
  -1  -1   9 7.36187 2.20439   2
   0   1  -9 1729.85 40.9698   2
   0   1  -9 1634.06 40.9935   2
   0  -1   9 1714.25 41.1388   2
   0  -1   9 1684.39 40.7177   2
  -1   1  -9 44.5899 3.45905   2
  -1   1  -9 44.9238 2.92409   2
   1  -1   9 47.9853 1.96289   1
  -2   1  -9 14.3197 2.19111   2
  -2   1  -9 14.1983 1.84334   2
   2  -1   9 18.3719 1.13238   1
  -3   1  -9 60.0267 3.79365   2
  -3   1  -9 62.5282 3.46106   2
   3  -1   9 63.3022 2.60487   1
   3  -1   9 74.3014 4.28513   2
  -4   1  -9 100.942 4.65098   2
  -4   1  -9 101.029 4.21184   1
   4  -1   9 105.410 4.06832   1
   4  -1   9 103.064 5.24081   2
  -5   1  -9 104.286 5.07116   2
  -5   1  -9 106.641 4.88210   1
   5  -1   9 108.120 4.55683   1
   5  -1   9 104.326 5.75110   2
  -6   1  -9 671.214 19.6177   2
  -6   1  -9 696.407 20.2248   1
   6  -1   9 713.159 19.9522   1
   6  -1   9 685.895 19.8401   2
  -7   1  -9 103.734 6.73950   1
  -7   1  -9 99.2310 5.73609   2
   7  -1   9 100.285 7.29152   2
   7  -1   9 113.390 5.61270   1
  -8   1  -9 80.3478 7.91953   1
  -8   1  -9 109.802 6.38672   2
  -9   1  -9 45.3323 5.77256   2
   9  -1   9 39.3980 4.88207   2
  10  -1   9 454.975 17.4891   2
   7   0  -9 108.248 9.69286   2
  -7   0   9 118.659 9.43497   2
   6   0  -9 92.1622 7.62387   2
  -6   0   9 88.3587 6.89924   2
   5   0  -9 423.708 14.7507   2
   5   0  -9 418.275 15.1690   2
  -5   0   9 416.494 14.3409   2
  -5   0   9 406.653 16.1655   2
  -5   0   9 430.928 15.1687   1
   4   0  -9 481.425 15.3860   2
   4   0  -9 480.421 15.3015   2
  -4   0   9 464.390 15.6439   2
  -4   0   9 464.540 14.7569   2
  -4   0   9 457.623 15.1337   1
   3   0  -9 92.1313 6.00734   2
   3   0  -9 78.7459 4.87794   2
  -3   0   9 82.5003 4.82772   2
  -3   0   9 85.5509 4.97019   1
  -3   0   9 82.7247 5.86004   2
   2   0  -9 277.469 9.61056   2
   2   0  -9 273.416 9.44717   2
  -2   0   9 281.249 9.86814   2
  -2   0   9 269.334 9.20317   2
   1   0  -9 15.6211 2.17689   2
   1   0  -9 14.2133 2.51853   2
  -1   0   9 17.1895 2.03006   2
  -1   0   9 14.2460 2.54053   2
   0   0  -9 552.124 15.3669   2
   0   0  -9 549.023 15.4292   2
   0   0   9 566.790 15.2202   2
  -1   0  -9 354.273 10.6162   2
  -1   0  -9 368.157 10.7451   2
   1   0   9 337.650 10.7518   2
  -2   0  -9 91.6439 4.22111   2
  -2   0  -9 98.2944 4.66638   2
   2   0   9 90.4262 3.43557   1
   2   0   9 93.3279 4.66413   2
  -3   0  -9 73.5203 4.07735   2
  -3   0  -9 64.5434 3.47488   2
   3   0   9 69.3843 2.91373   1
  -4   0  -9 82.6816 4.16217   2
   4   0   9 78.7309 4.74599   2
   4   0   9 81.7344 3.53352   1
  -5   0  -9 217.077 7.84643   2
  -5   0  -9 209.319 7.72186   1
   5   0   9 217.892 7.32877   1
   5   0   9 195.012 8.13636   2
  -6   0  -9 878.388 24.8645   1
  -6   0  -9 857.968 23.6528   2
   6   0   9 900.731 24.6128   1
   6   0   9 880.272 24.2088   2
  -7   0  -9 31.6453 3.46411   2
  -7   0  -9 29.6810 4.18058   1
   7   0   9 32.8644 4.73703   2
   7   0   9 38.0238 3.50366   1
  -8   0  -9 90.8180 6.05094   2
  -8   0  -9 90.0404 7.92343   1
   8   0   9 88.7013 5.47422   1
  -9   0  -9 84.9409 6.71047   2
   9   0   9 71.9033 6.62637   2
 -10   0  -9 475.474 17.2100   2
  10   0   9 466.587 17.6797   2
   7  -1  -9 44.5923 6.17010   2
  -7   1   9 48.3831 6.15853   2
   6  -1  -9 344.445 13.7313   2
  -6   1   9 315.661 13.0077   2
   5  -1  -9 504.113 17.3568   2
   5  -1  -9 499.912 16.6527   2
  -5   1   9 502.280 17.2853   1
  -5   1   9 513.953 18.0648   2
  -5   1   9 503.800 16.3665   2
   4  -1  -9 263.046 10.7065   2
  -4   1   9 275.472 10.5305   1
  -4   1   9 262.366 11.2699   2
   3  -1  -9 1.03837 2.53874   2
   3  -1  -9 -0.6700 1.53386   2
  -3   1   9 -1.3286 2.72928   2
  -3   1   9 -2.3286 1.43521   2
   2  -1  -9 325.207 10.7681   2
   2  -1  -9 323.732 10.6769   2
  -2   1   9 318.603 10.9897   2
  -2   1   9 310.910 10.3557   2
   1  -1  -9 19.8117 2.44149   2
   1  -1  -9 24.3369 3.14324   2
  -1   1   9 23.0581 2.33191   2
  -1   1   9 21.4003 3.06812   2
   0  -1  -9 44.9294 3.57841   2
   0  -1  -9 39.1450 2.88817   2
   0   1   9 39.2767 2.76496   2
   0   1   9 43.9173 3.76768   2
  -1  -1  -9 826.304 21.1494   2
  -1  -1  -9 804.391 21.1174   2
   1   1   9 795.306 21.2796   2
  -2  -1  -9 50.4849 3.53234   2
  -2  -1  -9 49.4162 3.04135   2
   2   1   9 51.2534 3.75735   2
   2   1   9 50.1528 2.61662   1
  -3  -1  -9 93.7600 4.31189   2
  -3  -1  -9 92.1304 4.64635   2
   3   1   9 91.2755 3.80439   1
  -4  -1  -9 527.190 15.1082   2
   4   1   9 534.708 15.2769   1
   4   1   9 553.647 15.6044   2
  -5  -1  -9 670.603 19.6489   1
  -5  -1  -9 671.839 18.7603   2
   5   1   9 690.287 19.2464   1
   5   1   9 699.119 19.3224   2
  -6  -1  -9 623.767 17.7223   2
  -6  -1  -9 601.243 18.4502   1
   6   1   9 613.262 18.2417   2
   6   1   9 602.980 17.8470   1
  -7  -1  -9 166.831 7.53676   2
  -7  -1  -9 162.410 8.28181   1
   7   1   9 170.753 9.13558   2
   7   1   9 172.986 7.26189   1
  -8  -1  -9 624.800 18.8266   2
  -8  -1  -9 597.149 20.3041   1
   8   1   9 642.015 19.1836   1
   8   1   9 573.936 20.2174   2
  -9  -1  -9 31.4912 4.26089   2
   9   1   9 19.7926 3.78212   1
   9   1   9 25.2996 4.19960   2
 -10  -1  -9 247.415 11.9264   2
  10   1   9 243.863 12.5531   2
   7  -2  -9 163.185 11.0623   2
  -7   2   9 147.583 10.5455   2
   6  -2  -9 101.292 7.75977   2
  -6   2   9 88.3991 7.11490   2
   5  -2  -9 235.376 10.1096   2
  -5   2   9 204.143 10.3872   1
  -5   2   9 227.033 9.81445   2
  -5   2   9 222.001 12.6243   2
   4  -2  -9 0.25765 3.35739   2
  -4   2   9 2.23248 1.90468   2
  -4   2   9 1.32337 2.84391   1
  -4   2   9 5.03580 3.94265   2
   3  -2  -9 51.0297 5.12668   2
   3  -2  -9 60.8138 4.44371   2
  -3   2   9 56.4488 5.85967   2
  -3   2   9 53.5310 4.12662   2
   2  -2  -9 258.641 9.13655   2
   2  -2  -9 258.835 9.29854   2
  -2   2   9 247.287 9.57246   2
  -2   2   9 234.784 8.65823   2
   1  -2  -9 99.7733 4.93529   2
   1  -2  -9 92.1385 5.14446   2
  -1   2   9 95.6876 5.71549   2
  -1   2   9 96.5283 4.69883   2
   0  -2  -9 33.5055 2.78693   2
   0  -2  -9 39.5126 3.61682   2
   0   2   9 37.1458 3.83238   2
   0   2   9 36.1738 2.69914   2
  -1  -2  -9 767.948 20.7011   2
   1   2   9 809.542 21.1143   2
  -2  -2  -9 15.6579 2.04424   2
   2   2   9 15.6399 1.76151   1
   2   2   9 17.8107 2.61299   2
  -3  -2  -9 217.562 7.50398   2
  -3  -2  -9 215.786 7.71607   2
   3   2   9 210.670 7.30145   1
   3   2   9 222.650 8.13365   2
  -4  -2  -9 1167.45 29.0773   2
   4   2   9 1145.73 30.6382   1
   4   2   9 1117.17 29.2950   2
  -5  -2  -9 701.708 20.6071   1
  -5  -2  -9 689.890 19.3289   2
   5   2   9 700.469 19.9008   2
   5   2   9 731.716 20.1749   1
  -6  -2  -9 -0.8752 2.67199   1
  -6  -2  -9 -0.1449 1.57813   2
   6   2   9 0.64787 1.24123   1
   6   2   9 3.41460 3.08794   2
  -7  -2  -9 26.2980 4.59053   1
   7   2   9 36.0499 5.17248   2
  -8  -2  -9 752.007 25.0428   1
  -8  -2  -9 818.384 23.2708   2
   8   2   9 810.363 24.8173   2
   8   2   9 818.945 23.9638   1
  -9  -2  -9 3.50254 3.26138   2
   9   2   9 4.06456 3.28091   2
   9   2   9 4.73578 2.81088   1
 -10  -2  -9 33.6822 5.18434   2
  10   2   9 33.3985 5.37206   2
  10   2   9 35.7221 5.23785   1
   7  -3  -9 268.544 13.9114   2
   6  -3  -9 96.1215 7.97480   2
  -6   3   9 90.5558 7.44232   2
   5  -3  -9 -1.7926 2.88122   2
  -5   3   9 6.50880 2.72939   2
  -5   3   9 2.78607 5.79790   2
   4  -3  -9 2.91751 2.43874   2
   4  -3  -9 -1.0965 3.44692   2
  -4   3   9 2.75968 2.10493   2
  -4   3   9 0.66226 4.22402   2
   3  -3  -9 138.907 6.68773   2
   3  -3  -9 148.468 7.60704   2
  -3   3   9 137.157 8.00649   2
  -3   3   9 135.319 6.65388   2
   2  -3  -9 91.4002 5.11753   2
   2  -3  -9 89.8818 5.58787   2
  -2   3   9 88.6862 4.77816   2
  -2   3   9 89.7027 6.31048   2
   1  -3  -9 1125.11 29.5803   2
   1  -3  -9 1188.93 29.6484   2
  -1   3   9 1150.53 29.4084   2
   0  -3  -9 2.16643 1.81856   2
   0  -3  -9 -0.5684 1.05275   2
   0   3   9 -0.6674 1.93080   2
   0   3   9 0.04608 0.98906   2
  -1  -3  -9 185.346 6.92343   2
  -1  -3  -9 185.712 7.20016   2
   1   3   9 200.253 7.68678   2
  -2  -3  -9 289.534 9.43596   2
  -2  -3  -9 280.312 9.11967   2
   2   3   9 275.385 9.61323   2
   2   3   9 289.031 9.46905   1
  -3  -3  -9 1222.20 31.2847   2
  -3  -3  -9 1275.47 31.4223   2
   3   3   9 1269.43 31.8303   2
   3   3   9 1242.08 33.5705   1
  -4  -3  -9 1103.10 28.0005   2
  -4  -3  -9 1088.54 27.9353   2
   4   3   9 1082.96 29.7190   1
  -5  -3  -9 311.697 10.3579   2
   5   3   9 306.377 11.2208   2
   5   3   9 314.507 10.4624   1
  -6  -3  -9 268.023 9.74361   2
  -6  -3  -9 262.740 10.8844   1
   6   3   9 278.270 10.9936   2
   6   3   9 258.160 9.57325   1
  -7  -3  -9 52.0571 7.28833   1
   7   3   9 55.4961 6.16528   2
   7   3   9 53.5619 4.06045   1
  -8  -3  -9 494.431 16.3292   2
   8   3   9 483.290 18.5317   2
   8   3   9 537.336 16.8957   1
  -9  -3  -9 9.49619 3.59106   2
   9   3   9 10.5972 3.35984   1
 -10  -3  -9 11.8507 4.80386   2
   6  -4  -9 70.0629 8.41423   2
  -6   4   9 52.7613 6.93637   2
   5  -4  -9 28.6253 4.48020   2
  -5   4   9 29.9581 4.25309   2
  -5   4   9 27.3977 7.38670   2
   4  -4  -9 4.62544 2.48140   2
  -4   4   9 2.82229 4.74912   2
  -4   4   9 6.64290 2.25479   2
   3  -4  -9 20.7187 3.88010   2
   3  -4  -9 20.0188 3.07890   2
  -3   4   9 19.3515 2.82472   2
  -3   4   9 21.6744 4.50298   2
   2  -4  -9 69.4965 4.51078   2
   2  -4  -9 63.7190 5.05781   2
  -2   4   9 71.4838 6.00296   2
   1  -4  -9 1163.14 29.9747   2
   1  -4  -9 1194.42 30.1849   2
  -1   4   9 1144.90 29.7624   2
   0  -4  -9 57.5114 4.47480   2
   0  -4  -9 58.7519 3.82330   2
   0   4   9 56.7435 5.08488   2
   0   4   9 60.7839 3.52222   2
  -1  -4  -9 27.3871 2.68510   2
  -1  -4  -9 26.0502 3.16036   2
   1   4   9 28.9546 3.50286   2
  -2  -4  -9 425.432 12.4546   2
  -2  -4  -9 421.198 12.6392   2
   2   4   9 415.101 12.9735   2
   2   4   9 406.810 13.1145   1
  -3  -4  -9 1489.91 36.7418   2
  -3  -4  -9 1514.14 36.8457   2
   3   4   9 1473.03 37.2173   2
   3   4   9 1463.50 39.7438   1
  -4  -4  -9 5.71265 2.25913   2
  -4  -4  -9 7.37710 1.74475   2
   4   4   9 8.75145 1.73956   1
  -5  -4  -9 52.9744 3.79728   2
   5   4   9 54.1946 3.71508   1
   5   4   9 60.2753 5.62150   2
  -6  -4  -9 449.825 14.2454   2
   6   4   9 472.341 15.7099   2
   6   4   9 458.705 14.9141   1
  -7  -4  -9 10.1431 5.10280   1
  -7  -4  -9 12.4866 2.79665   2
   7   4   9 15.5400 5.11611   2
   7   4   9 12.6021 2.47268   1
  -8  -4  -9 125.549 7.70089   2
   8   4   9 146.341 7.40534   1
   8   4   9 136.659 11.8114   2
  -9  -4  -9 53.6692 7.03434   2
   9   4   9 59.4827 5.74617   1
 -10  -4  -9 55.0574 6.97150   2
   6  -5  -9 93.9342 9.53184   2
   5  -5  -9 79.7175 7.15807   2
  -5   5   9 93.0438 6.70724   2
  -5   5   9 73.5913 9.43871   2
   4  -5  -9 16.7263 3.38416   2
  -4   5   9 15.0703 2.74526   2
  -4   5   9 18.7603 5.81350   2
   3  -5  -9 379.651 12.4910   2
   3  -5  -9 310.137 12.4412   2
  -3   5   9 349.542 13.4430   2
  -3   5   9 348.963 11.9803   2
   2  -5  -9 247.883 9.24772   2
   2  -5  -9 246.364 9.81279   2
  -2   5   9 239.643 9.03740   2
  -2   5   9 250.462 10.4414   2
   1  -5  -9 378.416 11.8268   2
   1  -5  -9 341.237 11.6766   2
   0  -5  -9 156.117 6.49164   2
   0  -5  -9 155.631 6.97753   2
   0   5   9 156.350 7.72443   2
  -1  -5  -9 962.304 24.9206   2
  -1  -5  -9 919.635 24.8469   2
   1   5   9 982.983 25.5329   2
  -2  -5  -9 241.625 8.83327   2
  -2  -5  -9 248.608 8.48471   2
   2   5   9 245.942 9.40895   2
   2   5   9 237.270 9.01775   1
  -3  -5  -9 889.429 23.0938   2
  -3  -5  -9 860.454 23.1920   2
   3   5   9 862.022 25.0071   1
   3   5   9 885.029 23.7659   2
  -4  -5  -9 5.46537 2.43526   2
  -4  -5  -9 6.46206 1.85423   2
   4   5   9 8.00126 1.94437   1
  -5  -5  -9 228.518 8.58505   2
   5   5   9 229.833 9.00089   1
   5   5   9 238.351 10.2748   2
  -6  -5  -9 354.015 12.0496   2
   6   5   9 361.203 12.5363   1
   6   5   9 361.036 13.8754   2
  -7  -5  -9 -2.2241 2.38297   2
   7   5   9 2.59474 2.31024   1
   7   5   9 4.99962 5.23452   2
  -8  -5  -9 17.4967 3.82431   2
   8   5   9 13.2332 7.67478   2
   8   5   9 12.4237 3.49775   1
  -9  -5  -9 104.740 8.48243   2
   9   5   9 102.144 7.73301   1
 -10  -5  -9 10.4620 5.90543   2
   5  -6  -9 4.87424 4.38153   2
  -5   6   9 3.19282 3.44303   2
   4  -6  -9 97.8501 7.23317   2
  -4   6   9 95.1784 6.49790   2
  -4   6   9 104.266 11.8508   2
   3  -6  -9 598.852 18.3071   2
  -3   6   9 585.096 19.4288   2
  -3   6   9 612.448 18.1697   2
   2  -6  -9 300.414 11.6637   2
   2  -6  -9 328.052 11.3039   2
  -2   6   9 331.805 11.1077   2
  -2   6   9 332.334 12.6207   2
   1  -6  -9 45.2759 5.40504   2
   1  -6  -9 41.6177 3.91132   2
  -1   6   9 36.1196 3.49005   2
  -1   6   9 40.3580 4.91005   2
   0  -6  -9 86.3792 4.90801   2
   0  -6  -9 77.9144 5.65556   2
   0   6   9 78.8686 6.37251   2
  -1  -6  -9 1380.38 35.3332   2
  -1  -6  -9 1457.46 35.3872   2
   1   6   9 1393.26 35.8119   2
  -2  -6  -9 7.05093 2.74995   2
  -2  -6  -9 2.49235 1.59976   2
   2   6   9 3.96506 2.97550   2
  -3  -6  -9 118.612 5.61948   2
  -3  -6  -9 111.275 6.48381   2
   3   6   9 117.300 6.04088   1
   3   6   9 122.830 7.24743   2
  -4  -6  -9 43.8186 5.47123   2
  -4  -6  -9 52.0000 3.84595   2
   4   6   9 52.0072 3.96313   1
   4   6   9 50.6012 6.46294   2
  -5  -6  -9 142.473 6.78383   2
  -5  -6  -9 141.036 7.73389   2
   5   6   9 150.184 6.97770   1
   5   6   9 139.663 8.78539   2
  -6  -6  -9 153.978 7.48988   2
   6   6   9 170.810 7.78411   1
   6   6   9 177.730 10.8490   2
  -7  -6  -9 83.2961 6.31518   2
   7   6   9 65.3580 8.51446   2
   7   6   9 84.9501 5.87048   1
  -8  -6  -9 1.94783 3.61740   2
   8   6   9 -2.2695 8.03665   2
   8   6   9 -0.2430 3.19129   1
  -9  -6  -9 8.67999 5.02720   2
   4  -7  -9 246.968 11.4803   2
  -4   7   9 249.164 10.7252   2
   3  -7  -9 373.168 13.6305   2
  -3   7   9 398.574 16.4708   2
  -3   7   9 391.567 13.2349   2
   2  -7  -9 252.495 9.85725   2
  -2   7   9 252.096 9.36147   2
  -2   7   9 250.593 12.2472   2
   1  -7  -9 277.343 9.91807   2
   1  -7  -9 265.865 10.5985   2
  -1   7   9 280.787 11.5502   2
   0  -7  -9 -3.9126 2.94788   2
   0   7   9 3.25361 3.60240   2
  -1  -7  -9 713.094 20.0768   2
  -1  -7  -9 722.162 19.6939   2
   1   7   9 731.527 22.2359   1
   1   7   9 706.871 20.6303   2
  -2  -7  -9 5.17453 3.05912   2
  -2  -7  -9 10.0720 2.06418   2
   2   7   9 2.47691 3.41402   2
   2   7   9 6.26510 2.38941   1
  -3  -7  -9 62.8870 4.42680   2
  -3  -7  -9 62.1095 6.00097   2
   3   7   9 52.2318 6.54868   2
   3   7   9 58.7754 4.48855   1
  -4  -7  -9 65.5748 6.23126   2
  -4  -7  -9 59.5933 4.47964   2
   4   7   9 65.3694 7.33628   2
   4   7   9 55.2463 4.43869   1
  -5  -7  -9 -1.4368 2.13531   2
   5   7   9 4.46384 4.76233   2
   5   7   9 3.63850 2.24519   1
  -6  -7  -9 162.683 8.01686   2
   6   7   9 161.148 8.14971   1
   6   7   9 154.422 11.6690   2
  -7  -7  -9 199.357 9.51506   2
   7   7   9 196.849 9.30235   1
  -3   8   9 69.5587 5.82379   2
   2  -8  -9 9.92679 3.24463   2
  -2   8   9 12.2571 2.61388   2
   1  -8  -9 301.483 10.8022   2
  -1   8   9 297.406 12.9683   2
   0  -8  -9 3.37950 2.29312   2
   0   8   9 0.44391 4.02132   2
  -1  -8  -9 345.016 12.4250   2
  -1  -8  -9 356.258 11.3809   2
   1   8   9 359.905 13.4109   1
   1   8   9 347.359 13.1056   2
  -2  -8  -9 22.1624 4.06018   2
   2   8   9 23.6129 3.79132   1
   2   8   9 35.3514 5.31911   2
  -3  -8  -9 61.9550 4.57880   2
   3   8   9 47.3595 4.81727   1
   3   8   9 39.2259 5.36278   2
  -4  -8  -9 19.3128 3.08052   2
   4   8   9 26.7222 4.13722   1
   4   8   9 24.7300 5.28395   2
  -5  -8  -9 16.8336 3.07084   2
   5   8   9 20.8055 3.50399   1
  -6  -8  -9 80.6951 7.57658   2
   6   8   9 75.6246 6.45110   1
   0   9   9 -3.7878 3.11841   1
   1   9   9 -0.5171 2.97262   1
   2   9   9 40.9369 4.67285   1
   3   9   9 18.0912 3.66692   1
   4   9   9 106.598 7.20667   1
   5   9   9 176.281 9.06632   1
   4   8 -10 3.71651 3.65337   2
   3   8 -10 150.297 7.16208   2
   2   8 -10 11.3379 2.36825   2
   1   8 -10 324.166 9.50129   2
   0   8 -10 11.6738 1.88529   2
  -1   8 -10 56.4788 3.11001   2
  -1   8 -10 56.0134 3.10788   2
  -2   8 -10 488.005 12.6992   2
  -2   8 -10 505.075 12.9400   2
  -3   8 -10 136.054 4.92634   2
  -4   8 -10 10.1346 2.20400   2
  -5   8 -10 6.10498 2.56944   2
  -6   8 -10 189.672 8.37989   2
  -7   8 -10 11.5497 4.19293   2
   4   7 -10 8.30509 3.19652   2
   3   7 -10 588.209 17.1477   2
   2   7 -10 6.43370 1.89959   2
   2   7 -10 6.17344 3.49416   2
  -2  -7  10 5.07028 4.31116   2
   1   7 -10 186.520 6.67220   2
   1   7 -10 163.880 7.45016   2
  -1  -7  10 196.443 8.18992   2
   0   7 -10 240.515 8.48767   2
   0  -7  10 268.139 8.60979   2
  -1   7 -10 228.777 7.29636   2
  -1   7 -10 227.531 7.86111   2
   1  -7  10 250.014 7.65095   2
  -2   7 -10 341.155 10.2171   2
  -2   7 -10 347.798 9.96020   2
   2  -7  10 352.289 9.81018   2
  -3   7 -10 37.9064 4.27015   2
   3  -7  10 42.2380 4.27855   2
  -4   7 -10 83.0976 4.53132   2
  -4   7 -10 76.8061 5.60153   2
   4  -7  10 80.3578 5.79550   2
   4  -7  10 86.0095 6.48245   2
  -5   7 -10 27.0780 3.84874   2
   5  -7  10 15.0356 4.13355   2
  -6   7 -10 140.480 7.07806   2
  -7   7 -10 79.1372 6.80067   2
   4   6 -10 2.03837 2.67728   2
   3   6 -10 1022.93 27.1393   2
   3   6 -10 1022.60 27.4950   2
  -3  -6  10 1012.16 27.7083   1
   2   6 -10 17.9006 3.45023   2
   2   6 -10 11.7408 2.33601   2
   1   6 -10 8.38989 2.81006   2
   1   6 -10 11.2238 2.03118   2
  -1  -6  10 12.3310 3.24169   2
   0   6 -10 315.647 10.0402   2
   0   6 -10 315.159 9.68165   2
   0  -6  10 320.194 10.0709   2
  -1   6 -10 607.798 16.0398   2
  -1   6 -10 589.006 16.1852   2
   1  -6  10 616.735 16.1606   2
  -2   6 -10 154.615 5.65557   2
  -2   6 -10 145.647 6.23768   2
   2  -6  10 154.305 6.35109   2
  -3   6 -10 14.0251 2.62822   2
  -3   6 -10 17.2863 2.52998   2
   3  -6  10 19.5095 2.99558   2
  -4   6 -10 102.566 5.96759   2
  -4   6 -10 107.820 5.04767   2
   4  -6  10 109.031 6.27549   2
  -5   6 -10 -3.9648 1.72385   2
  -5   6 -10 -0.3608 3.03574   2
   5  -6  10 4.21255 3.53307   2
  -6   6 -10 7.95130 2.48683   2
  -6   6 -10 1.80496 2.89419   1
   6  -6  10 3.46773 2.77831   2
  -7   6 -10 296.487 11.1433   2
  -8   6 -10 40.8811 5.69961   2
   5   5 -10 388.892 14.4923   2
   4   5 -10 52.4285 6.35033   2
   4   5 -10 62.0329 5.39194   2
  -4  -5  10 56.7366 5.18123   2
  -4  -5  10 51.4590 7.32442   1
   3   5 -10 254.727 9.71835   2
   3   5 -10 259.194 10.6512   2
  -3  -5  10 257.325 9.49987   1
  -3  -5  10 276.428 9.44286   2
  -3  -5  10 254.744 11.2123   2
   2   5 -10 73.9469 5.84018   2
   2   5 -10 77.1020 4.69828   2
  -2  -5  10 89.2514 6.62215   2
  -2  -5  10 82.6556 4.50921   2
  -2  -5  10 91.1521 4.16523   1
   1   5 -10 306.069 10.2519   2
  -1  -5  10 305.350 10.3818   2
   0   5 -10 223.848 7.62796   2
   0   5 -10 222.421 8.02089   2
   0  -5  10 220.216 8.07324   2
  -1   5 -10 160.112 6.47105   2
  -1   5 -10 159.595 5.90602   2
   1  -5  10 159.438 6.62134   2
  -2   5 -10 27.5334 3.65742   2
  -2   5 -10 25.9484 2.48456   2
   2  -5  10 26.9262 3.92394   2
  -3   5 -10 135.805 5.36001   2
  -3   5 -10 129.954 6.00199   2
   3  -5  10 130.031 6.24222   2
  -4   5 -10 42.9938 4.50325   2
   4  -5  10 46.2513 4.95573   2
  -5   5 -10 189.311 7.42014   2
  -5   5 -10 188.092 5.68067   1
   5  -5  10 186.699 8.69466   2
  -6   5 -10 15.8795 2.73692   2
  -6   5 -10 11.7267 2.69139   1
   6  -5  10 11.7247 4.12762   2
  -7   5 -10 339.588 11.8750   2
   7  -5  10 321.924 11.9628   2
  -8   5 -10 38.0136 5.48156   2
  -6  -4  10 10.8204 4.53325   2
   5   4 -10 705.389 22.6766   2
   5   4 -10 705.397 21.1856   2
  -5  -4  10 599.018 22.1675   1
  -5  -4  10 685.398 20.5671   2
   4   4 -10 86.4953 5.92085   2
   4   4 -10 90.0309 8.37156   2
  -4  -4  10 67.3287 7.23522   1
  -4  -4  10 81.1890 5.65786   2
   3   4 -10 93.1044 6.96732   2
   3   4 -10 88.5821 5.32417   2
  -3  -4  10 82.6384 5.77948   1
  -3  -4  10 96.2563 5.27408   2
  -3  -4  10 95.3501 7.23602   2
   2   4 -10 0.28531 1.54225   2
   2   4 -10 4.10967 2.90565   2
  -2  -4  10 2.44408 1.53602   2
  -2  -4  10 1.83064 1.78996   1
  -2  -4  10 2.01418 2.75022   2
   1   4 -10 610.338 17.1543   2
   1   4 -10 619.009 17.1198   2
  -1  -4  10 620.626 17.2948   2
  -1  -4  10 602.276 16.5870   2
  -1  -4  10 622.304 15.8735   1
   0   4 -10 164.622 6.74523   2
   0   4 -10 157.136 6.16270   2
   0  -4  10 170.902 6.96188   2
  -1   4 -10 14.2867 2.42241   2
  -1   4 -10 13.0303 1.91882   2
   1  -4  10 13.2962 2.45780   2
  -2   4 -10 22.4313 2.71632   2
  -2   4 -10 19.0198 2.18407   2
   2  -4  10 20.2437 2.72849   2
  -3   4 -10 128.418 5.28645   2
  -3   4 -10 128.408 5.89302   2
   3  -4  10 121.867 5.93515   2
  -4   4 -10 34.4231 2.81926   2
  -4   4 -10 31.1780 4.08405   2
   4  -4  10 43.1935 4.53214   2
  -5   4 -10 696.601 18.2455   1
  -5   4 -10 690.050 19.0085   2
   5  -4  10 671.033 19.2658   2
  -6   4 -10 0.61198 1.79637   2
  -6   4 -10 2.67102 2.30106   1
   6  -4  10 2.82105 3.35268   2
  -7   4 -10 163.411 7.62857   2
  -7   4 -10 144.367 7.86984   1
  -8   4 -10 86.6024 9.27601   1
  -8   4 -10 93.4951 6.50227   2
   8  -4  10 88.0738 7.02957   2
   6   3 -10 236.626 11.7626   2
  -6  -3  10 228.430 11.3231   2
   5   3 -10 381.882 15.9716   2
   5   3 -10 405.964 14.6234   2
  -5  -3  10 422.141 14.5774   2
  -5  -3  10 414.835 15.7651   1
   4   3 -10 40.0225 5.39176   2
   4   3 -10 48.7678 4.77416   2
  -4  -3  10 48.1002 4.55726   2
  -4  -3  10 43.5589 6.24143   1
   3   3 -10 50.9787 5.70777   2
   3   3 -10 60.5000 4.53150   2
  -3  -3  10 62.1977 5.20922   1
  -3  -3  10 62.7030 4.38990   2
  -3  -3  10 59.3411 6.47667   2
   2   3 -10 13.4939 3.10958   2
  -2  -3  10 12.1629 3.17505   2
  -2  -3  10 8.27951 2.11595   1
  -2  -3  10 11.6381 1.95860   2
   1   3 -10 334.100 10.8001   2
   1   3 -10 333.420 10.6180   2
  -1  -3  10 338.367 10.2963   2
  -1  -3  10 330.813 10.9352   2
  -1  -3  10 325.833 9.47691   1
   0   3 -10 191.448 6.97275   2
   0   3 -10 192.661 7.30463   2
   0  -3  10 182.697 7.32288   2
  -1   3 -10 309.827 9.89429   2
  -1   3 -10 306.134 9.69515   2
   1  -3  10 323.936 10.1656   2
  -2   3 -10 39.0047 3.58176   2
  -2   3 -10 37.4351 2.80051   2
   2  -3  10 36.5284 3.90856   2
  -3   3 -10 94.9324 5.03603   2
  -3   3 -10 97.9575 4.56531   2
   3  -3  10 97.3480 5.18868   2
  -4   3 -10 36.4177 2.87635   2
  -4   3 -10 36.3460 4.02812   2
   4  -3  10 33.6690 4.38825   2
  -5   3 -10 988.328 25.9832   1
   5  -3  10 988.539 26.2126   2
  -6   3 -10 28.4569 3.82734   1
  -6   3 -10 22.5150 3.04749   2
   6  -3  10 23.8711 4.26403   2
  -7   3 -10 0.77042 1.92389   2
  -7   3 -10 5.18266 3.35858   1
  -8   3 -10 150.252 9.55987   1
  -8   3 -10 179.410 8.47223   2
   8  -3  10 172.339 8.63070   2
  -9   3 -10 302.562 12.4129   2
   9  -3  10 289.159 12.7734   2
  -7  -2  10 180.149 11.6951   2
   6   2 -10 172.839 9.87933   2
  -6  -2  10 176.924 10.0621   2
   5   2 -10 139.288 10.4687   2
   5   2 -10 129.017 7.52210   2
  -5  -2  10 139.805 9.42945   1
  -5  -2  10 128.700 7.50508   2
   4   2 -10 3.58554 2.29876   2
   4   2 -10 0.70793 3.92368   2
  -4  -2  10 6.48153 3.43491   1
  -4  -2  10 -0.4563 4.03971   2
  -4  -2  10 3.20423 2.29243   2
   3   2 -10 359.148 12.2245   2
   3   2 -10 374.866 12.7922   2
  -3  -2  10 348.158 12.7475   2
  -3  -2  10 380.268 12.1283   2
   2   2 -10 26.6310 3.00606   2
  -2  -2  10 18.6155 2.64043   2
  -2  -2  10 19.2802 3.45093   2
  -2  -2  10 23.8330 3.23762   1
   1   2 -10 46.9340 4.44632   2
   1   2 -10 45.8821 3.27130   2
  -1  -2  10 40.8902 2.96926   1
  -1  -2  10 52.4676 3.38814   2
  -1  -2  10 35.7210 4.03558   2
   0   2 -10 461.993 13.1605   2
   0   2 -10 461.013 13.1209   2
   0  -2  10 384.495 11.8225   1
   0  -2  10 465.769 13.3133   2
  -1   2 -10 64.2510 3.66555   2
  -1   2 -10 63.6781 4.29111   2
   1  -2  10 75.6701 4.62828   2
  -2   2 -10 3.81356 1.79083   2
  -2   2 -10 2.47275 1.12633   2
   2  -2  10 5.97172 1.98212   2
  -3   2 -10 681.261 18.0179   2
  -3   2 -10 649.829 17.8856   2
   3  -2  10 661.065 18.1836   2
  -4   2 -10 196.133 7.15805   2
   4  -2  10 187.299 7.55874   2
  -5   2 -10 764.594 20.3613   1
  -5   2 -10 734.016 20.3036   2
   5  -2  10 734.616 20.6498   2
  -6   2 -10 59.4504 4.49409   1
  -6   2 -10 60.2721 4.33673   2
   6  -2  10 53.0931 5.91970   2
  -7   2 -10 362.422 12.5375   2
  -7   2 -10 368.914 12.7494   1
   7  -2  10 368.532 14.0832   2
  -8   2 -10 126.805 9.15560   1
  -8   2 -10 131.680 7.15127   2
  -9   2 -10 317.816 12.5945   2
  -9   2 -10 308.921 15.4576   1
   9  -2  10 329.145 13.4545   2
  10  -2  10 3.03626 5.24054   2
  -7  -1  10 168.260 11.7698   2
   6   1 -10 96.2667 8.04512   2
  -6  -1  10 104.879 7.84570   2
   5   1 -10 68.4879 5.65448   2
   5   1 -10 67.9815 9.02369   2
  -5  -1  10 60.0662 5.73618   2
  -5  -1  10 53.6055 7.74192   1
   4   1 -10 38.5483 4.05160   2
   4   1 -10 29.1587 4.94183   2
  -4  -1  10 31.3429 5.04441   2
  -4  -1  10 29.5513 4.23866   1
  -4  -1  10 31.4646 4.04831   2
   3   1 -10 118.239 7.09712   2
   3   1 -10 108.382 5.73637   2
  -3  -1  10 106.920 5.59886   2
  -3  -1  10 93.5042 6.82983   2
  -3  -1  10 105.098 5.98838   1
   2   1 -10 144.571 7.12022   2
   2   1 -10 148.858 6.53803   2
  -2  -1  10 145.741 7.26083   2
  -2  -1  10 143.580 6.07506   1
  -2  -1  10 146.341 6.27534   2
   1   1 -10 28.1849 3.93535   2
   1   1 -10 28.9659 2.92915   2
  -1  -1  10 28.1581 4.02395   2
  -1  -1  10 33.1550 2.82485   2
  -1  -1  10 29.9137 2.69822   1
   0   1 -10 691.751 18.2796   2
   0   1 -10 656.553 18.1589   2
   0  -1  10 648.443 17.7647   2
   0  -1  10 661.012 18.3241   2
  -1   1 -10 0.46303 1.11460   2
  -1   1 -10 -2.7077 1.58192   2
   1  -1  10 -0.1369 0.51543   1
   1  -1  10 -0.6326 1.57860   2
  -2   1 -10 302.029 9.44809   2
  -2   1 -10 289.901 9.54203   2
   2  -1  10 288.704 9.67790   2
   2  -1  10 292.174 8.13022   1
  -3   1 -10 1102.62 27.6875   2
  -3   1 -10 1095.04 27.5973   2
   3  -1  10 1088.35 28.0267   1
   3  -1  10 1062.57 27.7675   2
  -4   1 -10 430.732 12.9940   2
   4  -1  10 446.220 12.5533   1
   4  -1  10 448.178 13.4964   2
  -5   1 -10 99.8392 4.96876   2
  -5   1 -10 102.118 4.87309   1
   5  -1  10 98.6362 4.40162   1
   5  -1  10 102.035 5.90890   2
  -6   1 -10 123.003 5.97092   2
  -6   1 -10 106.650 5.81501   1
   6  -1  10 115.905 5.26023   1
   6  -1  10 111.755 6.93409   2
  -7   1 -10 1021.48 28.0562   2
   7  -1  10 1009.22 28.7499   2
   7  -1  10 1084.33 29.1427   1
  -8   1 -10 49.8482 6.18755   1
  -8   1 -10 44.6256 4.69630   2
  -9   1 -10 28.5272 3.98834   2
   9  -1  10 20.5488 4.26343   2
  10  -1  10 14.9536 5.14969   2
  -7   0  10 143.726 11.0169   2
   6   0 -10 -6.8178 3.80225   2
  -6   0  10 -3.9100 3.55170   2
   5   0 -10 6.22953 2.93999   2
   5   0 -10 2.85919 4.94121   2
  -5   0  10 3.05164 4.29339   1
  -5   0  10 7.75188 2.85628   2
   4   0 -10 6.01140 4.00292   2
   4   0 -10 14.7107 2.78922   2
  -4   0  10 18.6773 4.81537   2
  -4   0  10 15.1200 3.72775   1
   3   0 -10 114.915 7.06084   2
  -3   0  10 110.969 5.80691   2
  -3   0  10 109.189 7.36712   2
  -3   0  10 111.721 6.07769   1
   2   0 -10 706.301 19.6417   2
   2   0 -10 706.371 19.7735   2
  -2   0  10 704.784 19.9746   2
  -2   0  10 669.747 19.2356   2
   1   0 -10 32.8493 3.96183   2
   1   0 -10 30.2653 3.02382   2
  -1   0  10 38.4447 3.09277   2
  -1   0  10 34.9425 4.07839   2
   0   0 -10 406.047 12.1345   2
   0   0 -10 371.748 11.9741   2
   0   0  10 401.599 11.8058   2
   0   0  10 402.417 12.3920   2
  -1   0 -10 296.437 9.47695   2
  -1   0 -10 290.399 9.61298   2
   1   0  10 284.833 9.72408   2
   1   0  10 285.023 8.61977   1
  -2   0 -10 437.903 12.8703   2
  -2   0 -10 440.496 12.9426   2
   2   0  10 431.203 13.0566   2
   2   0  10 440.509 12.2390   1
  -3   0 -10 1782.17 43.0811   2
  -3   0 -10 1798.25 43.0047   2
   3   0  10 1735.61 45.1076   1
   3   0  10 1748.87 43.2178   2
  -4   0 -10 276.047 9.03116   2
   4   0  10 257.745 8.17461   1
   4   0  10 250.769 9.30074   2
  -5   0 -10 217.537 8.02980   2
  -5   0 -10 219.104 7.89686   1
   5   0  10 205.080 7.28585   1
   5   0  10 210.889 8.73688   2
  -6   0 -10 18.2917 3.12105   1
   6   0  10 22.7356 2.67908   1
   6   0  10 15.8868 3.62360   2
  -7   0 -10 628.712 18.5467   2
  -7   0 -10 619.394 19.2537   1
   7   0  10 628.238 18.6102   1
   7   0  10 587.455 19.2549   2
  -8   0 -10 19.2877 3.30312   2
  -8   0 -10 33.3518 5.75149   1
   8   0  10 26.6691 4.21775   1
  -9   0 -10 21.5024 3.96610   2
   9   0  10 19.0746 4.01376   2
  10   0  10 6.75422 4.79932   2
   6  -1 -10 64.0373 7.18011   2
  -6   1  10 54.6647 6.73176   2
   5  -1 -10 6.12553 3.02536   2
  -5   1  10 5.27231 2.81413   2
  -5   1  10 0.51719 4.45237   1
   4  -1 -10 -3.6705 3.59578   2
   4  -1 -10 -1.7165 2.19519   2
  -4   1  10 -2.2999 1.99137   2
  -4   1  10 6.07219 4.50181   2
  -4   1  10 1.47601 3.26899   1
   3  -1 -10 4.53785 3.08374   2
  -3   1  10 0.64145 1.72898   2
  -3   1  10 0.58736 3.28687   2
   2  -1 -10 1398.48 36.8746   2
   2  -1 -10 1503.81 36.9393   2
  -2   1  10 1445.86 36.6758   2
  -2   1  10 1464.19 37.1470   2
   1  -1 -10 43.4824 4.19435   2
   1  -1 -10 47.8719 3.53548   2
  -1   1  10 43.9175 3.28523   2
  -1   1  10 41.7279 4.53759   2
   0  -1 -10 6.22684 2.26478   2
   0  -1 -10 4.39029 1.41212   2
   0   1  10 6.64459 1.55068   2
   0   1  10 7.53267 2.47365   2
  -1  -1 -10 925.167 23.8095   2
   1   1  10 890.233 23.8941   2
  -2  -1 -10 1237.95 30.3095   2
   2   1  10 1184.44 31.3602   1
   2   1  10 1154.91 30.2493   2
  -3  -1 -10 522.415 15.0074   2
  -3  -1 -10 513.281 15.0385   2
   3   1  10 544.049 15.0112   1
   3   1  10 534.217 15.4663   2
  -4  -1 -10 110.466 5.63699   2
  -4  -1 -10 104.092 4.98651   2
   4   1  10 114.301 6.04160   2
   4   1  10 110.460 4.56405   1
  -5  -1 -10 501.401 14.9507   2
   5   1  10 518.493 15.6072   2
   5   1  10 491.692 14.7590   1
  -6  -1 -10 0.89880 2.55845   1
  -6  -1 -10 -1.9414 1.53340   2
   6   1  10 2.80134 1.50238   1
   6   1  10 4.49190 3.13599   2
  -7  -1 -10 206.597 8.66409   2
  -7  -1 -10 216.284 10.0061   1
   7   1  10 212.845 10.7164   2
   7   1  10 214.736 8.34324   1
  -8  -1 -10 45.5822 6.22188   1
  -8  -1 -10 56.5989 5.47088   2
   8   1  10 61.9638 4.84164   1
  -9  -1 -10 43.4108 5.82301   2
   9   1  10 38.1317 5.15392   1
  10   1  10 17.1222 4.48307   1
  10   1  10 19.7246 5.15903   2
   6  -2 -10 64.4897 7.57149   2
  -6   2  10 55.4879 7.22617   2
   5  -2 -10 -1.1243 3.27378   2
  -5   2  10 3.81591 2.79954   2
   4  -2 -10 295.107 12.5312   2
   4  -2 -10 318.045 12.1512   2
  -4   2  10 323.948 12.5353   1
  -4   2  10 320.769 11.8016   2
  -4   2  10 320.154 13.8569   2
   3  -2 -10 41.0055 5.59218   2
   3  -2 -10 43.1317 4.21903   2
  -3   2  10 36.7621 4.95601   2
  -3   2  10 37.2972 3.77532   2
   2  -2 -10 765.243 21.4134   2
   2  -2 -10 760.656 21.4913   2
  -2   2  10 778.010 21.9560   2
  -2   2  10 766.821 21.2698   2
   1  -2 -10 6.37351 2.48977   2
   1  -2 -10 10.9146 2.08454   2
  -1   2  10 8.28353 2.84265   2
  -1   2  10 10.1123 1.83715   2
   0  -2 -10 380.061 12.0691   2
   0  -2 -10 390.651 12.2627   2
   0   2  10 391.697 11.8554   2
   0   2  10 391.979 12.5335   2
  -1  -2 -10 641.947 17.6000   2
  -1  -2 -10 636.361 17.6432   2
   1   2  10 616.874 17.8120   2
  -2  -2 -10 957.676 25.1205   2
  -2  -2 -10 977.628 25.1883   2
   2   2  10 955.036 25.4177   2
   2   2  10 982.843 26.3149   1
  -3  -2 -10 9.40807 2.43934   2
  -3  -2 -10 9.97625 1.83875   2
   3   2  10 8.65226 1.61181   1
   3   2  10 12.0104 2.83516   2
  -4  -2 -10 19.2711 2.96591   2
  -4  -2 -10 16.0286 2.25216   2
   4   2  10 12.7193 1.92887   1
   4   2  10 14.0067 2.92057   2
  -5  -2 -10 885.963 23.8247   2
   5   2  10 882.417 24.3124   2
   5   2  10 892.518 24.6680   1
  -6  -2 -10 4.26218 3.11925   1
  -6  -2 -10 4.07612 1.86444   2
   6   2  10 3.56558 1.58476   1
   6   2  10 2.72679 3.27245   2
  -7  -2 -10 13.2720 4.32372   1
   7   2  10 13.3436 4.71821   2
  -8  -2 -10 143.594 7.83658   2
  -8  -2 -10 136.654 10.1382   1
   8   2  10 156.492 7.53977   1
  -9  -2 -10 63.4269 6.59896   2
   9   2  10 66.7281 6.05102   1
 -10  -2 -10 20.4108 5.28318   2
  10   2  10 20.9077 5.17115   1
   6  -3 -10 23.5388 5.24918   2
  -6   3  10 24.6295 4.71192   2
   5  -3 -10 20.9606 4.24471   2
  -5   3  10 14.0354 3.47228   2
   4  -3 -10 827.832 24.1063   2
  -4   3  10 822.357 23.8314   2
  -4   3  10 829.023 25.3269   2
   3  -3 -10 92.7778 5.83298   2
   3  -3 -10 81.5711 7.05996   2
  -3   3  10 82.8711 7.72030   2
  -3   3  10 84.7782 5.20362   2
   2  -3 -10 108.988 5.81923   2
   2  -3 -10 108.880 6.65873   2
  -2   3  10 115.126 7.42781   2
   1  -3 -10 325.276 11.3939   2
   1  -3 -10 331.482 11.2195   2
  -1   3  10 346.727 11.0846   2
  -1   3  10 348.164 11.9922   2
   0  -3 -10 1499.00 36.7898   2
   0  -3 -10 1450.32 36.5491   2
   0   3  10 1479.37 36.9946   2
   0   3  10 1408.79 36.2313   2
  -1  -3 -10 264.811 9.39917   2
  -1  -3 -10 253.837 9.00095   2
   1   3  10 272.118 9.93700   2
  -2  -3 -10 126.332 5.68592   2
  -2  -3 -10 133.799 6.33737   2
   2   3  10 130.010 5.62495   1
   2   3  10 136.965 6.78975   2
  -3  -3 -10 75.7175 4.97203   2
  -3  -3 -10 77.7369 4.34008   2
   3   3  10 75.1979 3.96929   1
   3   3  10 80.4823 5.50479   2
  -4  -3 -10 332.204 11.3670   2
  -4  -3 -10 353.835 11.2414   2
   4   3  10 347.451 11.9687   2
   4   3  10 361.131 11.4261   1
  -5  -3 -10 102.277 5.38504   2
   5   3  10 106.099 5.17304   1
   5   3  10 105.797 6.90318   2
  -6  -3 -10 256.088 9.56943   2
   6   3  10 263.208 11.3597   2
   6   3  10 252.794 9.45703   1
  -7  -3 -10 16.1891 4.97571   1
  -7  -3 -10 13.0779 2.59441   2
   7   3  10 19.6305 5.27948   2
   7   3  10 12.2450 2.63987   1
  -8  -3 -10 40.3704 5.45355   2
   8   3  10 52.9827 4.86245   1
  -9  -3 -10 31.7953 4.82412   2
   9   3  10 29.4760 4.47525   1
 -10  -3 -10 123.819 10.0682   2
   6  -4 -10 98.6808 9.68452   2
   5  -4 -10 153.168 9.04956   2
  -5   4  10 153.867 8.55949   2
   4  -4 -10 669.846 20.2720   2
  -4   4  10 610.582 21.5326   2
  -4   4  10 667.281 19.9829   2
   3  -4 -10 228.808 10.4217   2
   3  -4 -10 257.937 10.0187   2
  -3   4  10 241.519 11.5630   2
  -3   4  10 244.136 9.56058   2
   2  -4 -10 74.4125 5.91147   2
   2  -4 -10 92.6926 5.51565   2
  -2   4  10 85.4517 7.11584   2
  -2   4  10 81.7537 5.02321   2
   1  -4 -10 74.2886 5.62270   2
   1  -4 -10 81.6537 5.02201   2
  -1   4  10 80.8553 6.31377   2
   0  -4 -10 1115.77 29.3500   2
   0  -4 -10 1132.72 29.3718   2
   0   4  10 1149.59 29.8536   2
   0   4  10 1136.69 29.1063   2
  -1  -4 -10 50.7228 3.63949   2
  -1  -4 -10 43.9484 4.57849   2
  -2  -4 -10 -0.1894 2.02754   2
  -2  -4 -10 0.59261 1.34853   2
   2   4  10 0.54866 1.21203   1
  -3  -4 -10 72.6939 4.34999   2
  -3  -4 -10 70.7687 5.17603   2
   3   4  10 75.2901 4.13351   1
   3   4  10 73.2607 5.67784   2
  -4  -4 -10 1.91922 2.33818   2
  -4  -4 -10 5.83932 1.76281   2
   4   4  10 5.16117 1.43073   1
   4   4  10 7.53963 3.16118   2
  -5  -4 -10 168.200 7.86420   2
  -5  -4 -10 182.828 7.56683   2
   5   4  10 178.655 7.48272   1
   5   4  10 181.262 8.97130   2
  -6  -4 -10 353.779 12.0105   2
   6   4  10 347.231 13.6730   2
   6   4  10 339.171 12.0033   1
  -7  -4 -10 3.89110 2.57002   2
   7   4  10 2.85681 5.12538   2
   7   4  10 1.34006 2.08032   1
  -8  -4 -10 -1.5777 2.88201   2
   8   4  10 -1.7153 2.71206   1
  -9  -4 -10 141.328 8.87194   2
   9   4  10 135.621 8.52114   1
   6  -5 -10 254.965 14.4670   2
   5  -5 -10 261.794 12.6221   2
  -5   5  10 269.901 11.7351   2
   4  -5 -10 250.655 11.0082   2
  -4   5  10 238.283 14.8484   2
  -4   5  10 251.166 10.6308   2
   3  -5 -10 80.2185 6.19917   2
  -3   5  10 60.2001 5.13884   2
  -3   5  10 59.8126 8.55957   2
   2  -5 -10 537.393 17.2997   2
   2  -5 -10 565.761 17.1917   2
  -2   5  10 597.131 17.1732   2
  -2   5  10 554.983 18.1051   2
   1  -5 -10 -0.0085 2.85237   2
   1  -5 -10 1.19666 1.87021   2
  -1   5  10 6.00528 3.69941   2
  -1   5  10 5.85813 1.81004   2
   0  -5 -10 406.715 13.2246   2
   0  -5 -10 406.287 12.9378   2
   0   5  10 413.069 13.7509   2
  -1  -5 -10 9.92704 2.07278   2
  -1  -5 -10 8.91282 2.82142   2
   1   5  10 12.7263 2.28583   1
  -2  -5 -10 330.857 11.3321   2
  -2  -5 -10 335.149 10.8232   2
   2   5  10 323.423 11.4660   1
  -3  -5 -10 128.124 6.70185   2
  -3  -5 -10 134.188 6.08921   2
   3   5  10 130.262 6.31955   1
   3   5  10 143.067 7.82833   2
  -4  -5 -10 117.848 5.71278   2
  -4  -5 -10 102.806 6.39589   2
   4   5  10 102.723 7.41686   2
  -5  -5 -10 94.2339 6.65922   2
  -5  -5 -10 110.921 5.95222   2
   5   5  10 101.751 8.15677   2
   5   5  10 100.732 5.73764   1
  -6  -5 -10 368.581 12.6812   2
   6   5  10 382.160 13.1228   1
   6   5  10 351.587 14.2684   2
   7   5  10 43.6562 4.66245   1
   7   5  10 35.6716 7.01300   2
  -8  -5 -10 233.336 10.6488   2
   8   5  10 206.878 9.86335   1
  -9  -5 -10 121.111 9.34780   2
 -10  -5 -10 264.397 15.3185   2
   5  -6 -10 230.750 12.4825   2
   4  -6 -10 8.55529 4.12535   2
  -4   6  10 3.45079 3.08730   2
  -4   6  10 10.5613 8.13717   2
   3  -6 -10 4.01264 3.14536   2
  -3   6  10 10.1000 5.86092   2
  -3   6  10 5.35425 2.47502   2
   2  -6 -10 420.928 14.0392   2
  -2   6  10 428.599 13.7201   2
  -2   6  10 414.581 15.5643   2
   1  -6 -10 39.2543 4.80304   2
   1  -6 -10 44.6344 4.25195   2
  -1   6  10 45.3665 3.66531   2
  -1   6  10 43.0973 5.51595   2
   0  -6 -10 10.5944 2.36967   2
   0  -6 -10 9.56747 3.39250   2
   0   6  10 14.6903 4.27028   2
  -1  -6 -10 108.993 5.69450   2
  -1  -6 -10 109.938 6.76523   2
   1   6  10 110.561 6.13141   1
  -2  -6 -10 17.2886 2.45562   2
  -2  -6 -10 20.4846 3.65958   2
   2   6  10 16.6558 2.93015   1
  -3  -6 -10 59.8476 4.25818   2
  -3  -6 -10 55.2879 5.60012   2
   3   6  10 47.7826 4.24298   1
  -4  -6 -10 412.548 14.2658   2
  -4  -6 -10 449.415 13.8241   2
   4   6  10 446.354 14.8140   1
   4   6  10 450.335 15.4066   2
  -5  -6 -10 73.9120 5.26263   2
   5   6  10 78.6858 8.31435   2
   5   6  10 80.4063 5.27466   1
  -6  -6 -10 66.6868 5.69871   2
   6   6  10 66.3034 7.72408   2
   6   6  10 71.6282 5.46238   1
   7   6  10 43.8046 5.16972   1
   7   6  10 52.8684 8.21928   2
  -8  -6 -10 441.231 16.2154   2
   8   6  10 444.502 16.2877   1
   3  -7 -10 6.44707 3.87078   2
  -3   7  10 7.76055 3.08200   2
   2  -7 -10 238.334 9.87918   2
  -2   7  10 231.640 13.1823   2
  -2   7  10 232.578 9.19074   2
   1  -7 -10 87.5435 5.94609   2
  -1   7  10 87.2472 9.06899   2
   0  -7 -10 25.7075 3.33378   2
  -1  -7 -10 41.7812 4.12342   2
  -1  -7 -10 30.8116 4.31875   2
   1   7  10 38.6798 5.59778   2
   1   7  10 39.5077 4.09410   1
  -2  -7 -10 21.9862 4.27662   2
  -2  -7 -10 29.4594 3.68348   2
   2   7  10 26.0589 3.63333   1
   2   7  10 24.5164 4.93557   2
  -3  -7 -10 227.661 8.61056   2
  -3  -7 -10 211.578 9.99896   2
   3   7  10 217.557 9.27069   1
  -4  -7 -10 512.527 15.6663   2
   4   7  10 514.335 17.4479   2
   4   7  10 518.669 17.1483   1
  -5  -7 -10 194.423 8.85658   2
   5   7  10 215.181 9.37125   1
   5   7  10 216.823 11.9998   2
  -6  -7 -10 28.5018 4.09337   2
   6   7  10 39.4807 4.69359   1
   6   7  10 37.6279 7.51366   2
   7   7  10 29.0205 4.60618   1
   1  -8 -10 153.555 7.95931   2
   0  -8 -10 13.1528 3.07619   2
   0   8  10 13.7324 3.27917   1
  -1  -8 -10 7.46500 2.50703   2
   1   8  10 8.28026 5.01037   2
   1   8  10 8.55844 2.91724   1
  -2  -8 -10 97.2485 5.80557   2
   2   8  10 84.3327 5.93471   1
   2   8  10 86.1476 9.28222   2
  -3  -8 -10 402.987 13.0299   2
   3   8  10 396.524 14.6304   1
   3   8  10 397.024 15.8556   2
  -4  -8 -10 169.278 8.10475   2
   4   8  10 182.636 11.5393   2
   4   8  10 158.500 8.29320   1
  -5  -8 -10 27.3426 4.15370   2
   5   8  10 33.2550 4.43792   1
   6   8  10 241.131 10.7908   1
   0   9  10 -3.1602 3.61407   1
   1   9  10 35.5892 5.59540   1
   2   9  10 299.023 12.3548   1
   3   9  10 298.634 12.4145   1
   4   9  10 3.01686 3.41638   1
   3   8 -11 15.5740 3.41147   2
   2   8 -11 72.7804 5.28175   2
   1   8 -11 153.590 6.23211   2
   0   8 -11 96.5377 4.62581   2
  -1   8 -11 11.2479 1.89331   2
  -2   8 -11 74.4026 4.13842   2
  -3   8 -11 42.8460 3.82428   2
  -4   8 -11 51.9510 4.56676   2
  -5   8 -11 18.7568 3.19129   2
  -6   8 -11 228.507 9.62283   2
   4   7 -11 21.5360 4.32823   2
   3   7 -11 26.7801 3.99723   2
   2   7 -11 176.407 7.45791   2
   1   7 -11 134.151 6.04976   2
  -1  -7  11 151.188 8.67901   2
   0   7 -11 8.83447 3.05003   2
   0   7 -11 7.56945 1.96373   2
   0  -7  11 11.2263 3.50690   2
  -1   7 -11 9.55394 2.86971   2
  -1   7 -11 12.5282 1.91989   2
   1  -7  11 9.18190 2.96273   2
  -2   7 -11 54.2564 4.91542   2
  -2   7 -11 56.2382 3.60994   2
   2  -7  11 60.3807 5.07821   2
  -3   7 -11 1.67375 2.77172   2
  -3   7 -11 2.03208 1.81501   2
   3  -7  11 4.52650 3.03688   2
  -4   7 -11 407.902 12.4191   2
   4  -7  11 430.907 13.1025   2
  -5   7 -11 75.6036 5.21515   2
   5  -7  11 60.1802 7.61600   2
  -6   7 -11 159.585 7.79531   2
  -7   7 -11 132.330 8.14981   2
   4   6 -11 5.36300 3.22264   2
   3   6 -11 18.1991 3.11437   2
   2   6 -11 163.054 7.43506   2
   2   6 -11 167.758 8.89470   2
  -2  -6  11 191.810 10.6274   2
   1   6 -11 135.118 7.35412   2
   1   6 -11 129.804 5.99164   2
  -1  -6  11 135.174 7.89907   2
   0   6 -11 175.095 7.64018   2
   0   6 -11 172.233 6.69482   2
   0  -6  11 183.943 7.93387   2
  -1   6 -11 -0.2189 1.46582   2
  -1   6 -11 0.93833 2.48717   2
   1  -6  11 4.11973 2.70523   2
  -2   6 -11 9.45271 1.76365   2
  -2   6 -11 7.80782 2.69711   2
   2  -6  11 9.92414 2.95810   2
  -3   6 -11 6.01608 1.75180   2
  -3   6 -11 0.33850 2.65728   2
   3  -6  11 3.70425 2.88808   2
  -4   6 -11 842.211 22.0387   2
  -4   6 -11 836.712 22.3580   2
   4  -6  11 816.961 22.3158   2
  -5   6 -11 5.58721 2.12366   2
  -5   6 -11 9.04845 3.91794   2
   5  -6  11 7.77198 3.94226   2
  -6   6 -11 4.38041 2.56728   2
  -7   6 -11 250.404 10.3722   2
   4   5 -11 100.379 7.13869   2
  -4  -5  11 116.510 7.20392   2
   3   5 -11 -4.8337 2.40561   2
   3   5 -11 -2.9724 4.24750   2
  -3  -5  11 2.10250 3.11164   1
  -3  -5  11 7.78121 2.56663   2
   2   5 -11 -2.0109 3.38420   2
   2   5 -11 -2.0072 2.03573   2
  -2  -5  11 1.08237 3.89020   2
  -2  -5  11 0.53805 1.89509   2
   1   5 -11 124.773 6.91547   2
   1   5 -11 125.876 5.74119   2
  -1  -5  11 115.394 7.22344   2
   0   5 -11 213.911 7.77128   2
   0   5 -11 217.470 8.49953   2
   0  -5  11 212.357 8.58325   2
  -1   5 -11 37.5794 4.39315   2
   1  -5  11 27.8398 3.45659   2
  -2   5 -11 408.415 12.6004   2
   2  -5  11 421.479 12.7753   2
  -3   5 -11 28.4879 2.94628   2
  -3   5 -11 20.6135 3.28759   2
   3  -5  11 16.6640 3.22890   2
  -4   5 -11 446.887 13.3405   2
  -4   5 -11 461.726 14.0055   2
   4  -5  11 444.245 14.0373   2
  -5   5 -11 31.6431 3.51611   2
  -5   5 -11 35.0721 4.56715   2
   5  -5  11 45.1525 6.55526   2
  -6   5 -11 114.715 4.92805   1
  -6   5 -11 115.642 6.08662   2
  -7   5 -11 172.425 8.38542   2
   7  -5  11 167.487 8.65209   2
  -8   5 -11 114.402 7.80255   2
   5   4 -11 60.2183 6.78352   2
   4   4 -11 118.944 10.0404   2
   4   4 -11 120.085 7.05234   2
  -4  -4  11 135.577 7.21714   2
  -4  -4  11 101.738 8.72748   1
   3   4 -11 196.154 8.39268   2
   3   4 -11 205.452 10.1683   2
  -3  -4  11 214.122 8.47516   2
  -3  -4  11 186.225 8.44843   1
   2   4 -11 27.8635 3.52189   2
   2   4 -11 39.3756 4.72082   2
  -2  -4  11 36.5721 3.60220   2
  -2  -4  11 27.6441 3.31435   1
  -2  -4  11 31.3430 4.46802   2
   1   4 -11 335.108 10.9312   2
   1   4 -11 323.352 11.2497   2
  -1  -4  11 329.579 11.4797   2
   0   4 -11 8.13783 2.67356   2
   0  -4  11 8.45221 2.73729   2
  -1   4 -11 5.65444 1.53204   2
  -1   4 -11 9.89419 2.59664   2
   1  -4  11 7.97618 2.61511   2
  -2   4 -11 1194.36 30.2303   2
  -2   4 -11 1198.09 30.1014   2
   2  -4  11 1197.45 30.3274   2
  -3   4 -11 20.1602 3.18459   2
   3  -4  11 15.6779 3.22192   2
  -4   4 -11 334.716 11.2152   2
  -4   4 -11 332.065 10.6496   2
   4  -4  11 327.541 11.4595   2
  -5   4 -11 42.2189 5.41108   2
  -5   4 -11 40.5651 3.72798   2
   5  -4  11 49.7034 6.18548   2
  -6   4 -11 587.120 17.5233   2
  -6   4 -11 594.549 16.5712   1
  -7   4 -11 179.645 8.37722   2
  -7   4 -11 196.808 8.98553   1
  -8   4 -11 44.4324 5.80481   2
   8  -4  11 30.6462 4.83871   2
  -6  -3  11 10.0782 5.04184   2
   5   3 -11 -7.7889 6.56165   2
   5   3 -11 7.85331 3.49155   2
  -5  -3  11 4.87582 6.07410   1
  -5  -3  11 -4.2693 3.39838   2
   4   3 -11 11.5519 5.20202   2
   4   3 -11 18.8480 3.27408   2
  -4  -3  11 14.3657 3.00539   2
  -4  -3  11 12.8495 4.40255   1
   3   3 -11 242.569 9.68100   2
   3   3 -11 241.014 10.7584   2
  -3  -3  11 246.843 9.24210   2
   2   3 -11 119.818 6.06138   2
  -2  -3  11 136.812 6.15087   2
  -2  -3  11 126.220 5.77820   1
  -2  -3  11 131.229 7.73134   2
   1   3 -11 330.156 11.0220   2
   1   3 -11 284.061 10.5013   2
  -1  -3  11 332.484 10.2367   2
  -1  -3  11 311.548 11.0832   2
  -1  -3  11 303.563 8.99736   1
   0   3 -11 255.162 8.84638   2
   0   3 -11 254.883 9.27957   2
   0  -3  11 248.669 9.44192   2
  -1   3 -11 248.170 8.94103   2
  -1   3 -11 237.103 8.35690   2
   1  -3  11 251.477 9.15892   2
  -2   3 -11 1045.97 27.5325   2
  -2   3 -11 1109.39 27.6406   2
   2  -3  11 1083.92 27.8111   2
  -3   3 -11 300.478 10.3058   2
  -3   3 -11 327.745 10.1422   2
   3  -3  11 303.452 10.5470   2
  -4   3 -11 67.6091 5.26572   2
   4  -3  11 68.8440 5.60015   2
  -5   3 -11 170.761 7.05634   2
   5  -3  11 162.247 8.10870   2
  -6   3 -11 521.583 15.1499   1
  -6   3 -11 529.390 15.9415   2
   6  -3  11 502.899 16.5823   2
  -7   3 -11 36.3037 4.48918   2
  -8   3 -11 14.6282 5.14600   1
  -8   3 -11 15.9014 3.38346   2
   9  -3  11 16.1724 4.87507   2
  -7  -2  11 58.8237 8.66443   2
  -6  -2  11 3.60435 4.61850   2
   5   2 -11 10.0793 6.85101   2
   5   2 -11 11.6851 3.60909   2
  -5  -2  11 2.35135 5.54868   1
  -5  -2  11 6.49074 3.38054   2
   4   2 -11 -4.1501 4.56152   2
   4   2 -11 1.51286 2.47191   2
  -4  -2  11 2.40583 2.44510   2
  -4  -2  11 -1.1329 3.69783   1
   3   2 -11 789.706 22.4346   2
   3   2 -11 770.104 22.0883   2
  -3  -2  11 735.767 22.4707   2
  -3  -2  11 801.464 22.3646   1
  -3  -2  11 746.383 21.5284   2
   2   2 -11 11.5161 2.21727   2
   2   2 -11 8.89077 3.30660   2
  -2  -2  11 12.2595 2.56132   1
  -2  -2  11 5.57676 3.31654   2
  -2  -2  11 14.4214 2.47418   2
  -1  -2  11 5.69957 1.79822   1
  -1  -2  11 9.80399 1.79645   2
  -1  -2  11 2.25861 2.69063   2
   0   2 -11 532.748 15.3109   2
   0   2 -11 558.076 15.4139   2
   0  -2  11 539.147 15.6255   2
   0  -2  11 464.518 13.8975   1
  -1   2 -11 389.199 12.1409   2
  -1   2 -11 386.193 11.9374   2
   1  -2  11 398.263 12.4064   2
  -2   2 -11 748.989 20.3065   2
  -2   2 -11 758.714 20.4122   2
   2  -2  11 768.647 20.7146   2
  -3   2 -11 6.22771 2.39710   2
  -3   2 -11 5.57953 1.58907   2
   3  -2  11 6.87839 2.43253   2
  -4   2 -11 469.742 14.3642   2
  -4   2 -11 481.446 14.1698   2
   4  -2  11 487.547 14.7889   2
  -5   2 -11 38.3527 3.42223   2
   5  -2  11 33.7627 4.82321   2
  -6   2 -11 292.818 10.4306   2
  -6   2 -11 298.251 10.0586   1
   6  -2  11 284.428 11.4704   2
  -7   2 -11 45.3798 5.65617   1
  -7   2 -11 34.8421 4.17720   2
  -8   2 -11 98.5843 8.86993   1
  -8   2 -11 106.411 6.93089   2
  -9   2 -11 20.7923 4.14619   2
   9  -2  11 18.6875 4.52654   2
  10  -2  11 -7.0879 5.62120   2
   6   1 -11 3.71482 4.56639   2
  -6  -1  11 2.61605 4.37198   2
   5   1 -11 115.990 7.84497   2
  -5  -1  11 112.251 7.84252   2
  -5  -1  11 113.781 9.81362   1
   4   1 -11 2.49919 4.57757   2
   4   1 -11 11.4565 2.73832   2
  -4  -1  11 9.63527 4.08767   1
  -4  -1  11 6.68344 2.62097   2
   3   1 -11 1002.48 26.9899   2
   3   1 -11 960.794 26.7832   2
  -3  -1  11 932.377 26.9609   2
  -3  -1  11 979.136 27.2769   1
  -3  -1  11 976.390 26.3997   2
   2   1 -11 36.1619 3.49175   2
   2   1 -11 39.1731 5.36836   2
  -2  -1  11 34.4809 3.84308   1
  -2  -1  11 38.1362 3.44804   2
  -2  -1  11 35.4660 4.43798   2
   1   1 -11 106.464 5.31874   2
   1   1 -11 101.537 6.14484   2
  -1  -1  11 103.696 4.70084   1
  -1  -1  11 104.139 6.27220   2
  -1  -1  11 104.547 5.07889   2
   0   1 -11 1204.00 30.9137   2
   0  -1  11 1214.76 31.0722   2
   0  -1  11 1202.58 30.4856   2
  -1   1 -11 469.355 13.9091   2
  -1   1 -11 465.763 14.0361   2
   1  -1  11 473.376 12.7580   1
   1  -1  11 471.309 14.2717   2
  -2   1 -11 152.445 6.16905   2
  -2   1 -11 149.312 6.73014   2
   2  -1  11 148.906 4.66090   1
   2  -1  11 151.441 6.90803   2
  -3   1 -11 12.6232 2.04924   2
  -3   1 -11 13.0374 2.72748   2
   3  -1  11 13.8894 1.35539   1
   3  -1  11 13.4395 2.83432   2
  -4   1 -11 571.012 16.3140   2
  -4   1 -11 551.413 15.8785   2
   4  -1  11 542.693 16.3326   2
   4  -1  11 545.189 15.2490   1
   5  -1  11 10.8715 1.75926   1
   5  -1  11 13.3922 3.22038   2
  -6   1 -11 11.6807 2.79038   1
  -6   1 -11 9.52121 2.01144   2
   6  -1  11 10.3381 2.01619   1
   6  -1  11 9.22992 3.58880   2
  -7   1 -11 101.773 6.04533   2
  -7   1 -11 104.837 7.17813   1
   7  -1  11 112.294 5.66070   1
  -8   1 -11 16.2593 3.36325   2
  -8   1 -11 15.1537 5.34454   1
  -9   1 -11 17.3761 3.81416   2
  10  -1  11 311.849 14.9231   2
   6   0 -11 6.78464 4.57230   2
  -6   0  11 3.55325 4.59795   2
   5   0 -11 674.258 21.7540   2
  -5   0  11 707.036 21.6911   2
   4   0 -11 -7.4129 4.20437   2
   4   0 -11 4.91209 2.66667   2
  -4   0  11 0.21411 3.81628   1
  -4   0  11 4.72585 2.45503   2
   3   0 -11 156.367 7.48330   2
   3   0 -11 160.429 8.77585   2
  -3   0  11 148.986 9.21481   2
  -3   0  11 172.368 8.13183   2
  -3   0  11 155.371 7.65546   1
   2   0 -11 160.685 7.94232   2
  -2   0  11 153.650 6.75440   1
  -2   0  11 159.020 8.27051   2
  -2   0  11 155.526 6.93103   2
   1   0 -11 669.218 18.6915   2
   1   0 -11 626.084 18.3904   2
  -1   0  11 644.321 18.1622   2
  -1   0  11 641.633 18.8168   2
   0   0 -11 561.727 16.5443   2
   0   0 -11 582.741 16.6357   2
   0   0  11 572.079 16.8766   2
   0   0  11 578.201 16.2296   2
  -1   0 -11 155.066 6.43556   2
  -1   0 -11 156.573 6.95736   2
   1   0  11 159.128 7.22073   2
   1   0  11 163.298 5.54535   1
  -2   0 -11 169.334 6.81326   2
  -2   0 -11 178.398 7.37922   2
   2   0  11 175.134 5.72836   1
   2   0  11 161.254 7.24516   2
  -3   0 -11 16.2771 2.32897   2
  -3   0 -11 14.6756 2.79509   2
   3   0  11 16.3674 2.96039   2
   3   0  11 15.2361 1.59731   1
  -4   0 -11 488.367 14.2008   2
  -4   0 -11 474.468 14.3293   2
   4   0  11 454.550 14.5419   2
   4   0  11 466.032 13.4436   1
  -5   0 -11 289.643 10.0274   2
   5   0  11 294.985 9.32484   1
   5   0  11 277.231 10.7404   2
  -6   0 -11 31.5899 4.47564   1
  -6   0 -11 27.5631 3.38376   2
   6   0  11 28.8008 2.93864   1
   6   0  11 28.5881 4.46344   2
  -7   0 -11 110.617 6.40848   2
  -7   0 -11 126.614 7.83838   1
   7   0  11 121.948 9.19161   2
   7   0  11 121.482 5.99205   1
  -8   0 -11 4.58419 2.66042   2
  -8   0 -11 -0.5739 4.71044   1
   8   0  11 8.42025 2.69471   1
  -9   0 -11 73.4596 6.74946   2
  10   0  11 422.614 17.4350   2
   6  -1 -11 17.5406 5.04276   2
  -6   1  11 13.6206 4.73826   2
   5  -1 -11 680.776 21.9857   2
  -5   1  11 687.114 21.4868   2
   4  -1 -11 45.5336 6.26788   2
   4  -1 -11 44.5259 5.19136   2
  -4   1  11 56.1785 5.04157   2
  -4   1  11 48.2727 6.99064   1
   3  -1 -11 3.27753 3.71313   2
   3  -1 -11 3.88958 2.27424   2
  -3   1  11 2.68784 3.11299   1
  -3   1  11 0.51931 1.97767   2
  -3   1  11 2.32877 3.99155   2
   2  -1 -11 222.755 9.44772   2
  -2   1  11 227.767 8.74993   2
  -2   1  11 221.411 9.87136   2
   1  -1 -11 1023.95 27.4421   2
   1  -1 -11 1027.47 27.3897   2
  -1   1  11 1040.72 27.7958   2
  -1   1  11 1036.32 27.1219   2
   0  -1 -11 115.300 5.58180   2
   0  -1 -11 123.936 6.38032   2
   0   1  11 119.755 6.64382   2
   0   1  11 125.152 5.54166   2
  -1  -1 -11 0.26262 1.29529   2
  -1  -1 -11 4.54071 2.33535   2
   1   1  11 -0.4091 2.20441   2
  -2  -1 -11 127.159 6.31531   2
  -2  -1 -11 121.283 5.65401   2
   2   1  11 122.625 6.49123   2
   2   1  11 128.086 4.91010   1
  -3  -1 -11 207.299 7.78735   2
  -3  -1 -11 197.844 8.10174   2
   3   1  11 218.214 8.63608   2
   3   1  11 210.476 7.06088   1
  -4  -1 -11 8.51130 1.89345   2
  -4  -1 -11 7.03944 2.66728   2
   4   1  11 7.13335 1.42189   1
   4   1  11 10.3850 3.03210   2
  -5  -1 -11 555.179 16.2949   2
   5   1  11 554.266 16.0284   1
   5   1  11 534.583 16.8073   2
  -6  -1 -11 28.6799 3.53949   2
   6   1  11 38.0831 5.03143   2
   6   1  11 30.4750 3.01359   1
  -7  -1 -11 5.08226 3.96901   1
  -7  -1 -11 7.44471 2.27315   2
   7   1  11 -1.3812 4.38214   2
   7   1  11 1.80886 1.90245   1
  -8  -1 -11 226.479 9.84110   2
  -8  -1 -11 220.816 12.2302   1
   8   1  11 217.651 9.17239   1
  -9  -1 -11 249.464 11.3767   2
   9   1  11 241.726 10.5808   1
  10   1  11 193.021 10.9155   1
  10   1  11 212.536 11.9412   2
   6  -2 -11 115.653 10.3470   2
  -6   2  11 74.6985 9.37512   2
   5  -2 -11 389.569 15.0427   2
  -5   2  11 397.530 14.6009   2
   4  -2 -11 70.1170 6.32080   2
  -4   2  11 74.0661 7.51308   1
  -4   2  11 80.8957 5.87883   2
   3  -2 -11 373.505 13.7522   2
   3  -2 -11 362.869 12.8881   2
  -3   2  11 371.675 14.3610   2
  -3   2  11 367.158 12.7479   2
   2  -2 -11 140.597 7.68882   2
   2  -2 -11 134.766 6.79906   2
  -2   2  11 138.435 8.25398   2
   1  -2 -11 248.740 9.46276   2
   1  -2 -11 254.428 9.98578   2
  -1   2  11 265.562 10.6682   2
  -1   2  11 258.836 9.27018   2
   0  -2 -11 87.7394 5.72953   2
   0  -2 -11 83.3890 4.82240   2
   0   2  11 78.8833 6.04528   2
   0   2  11 90.2298 4.62825   2
  -1  -2 -11 205.230 8.35060   2
  -1  -2 -11 201.451 7.84301   2
   1   2  11 203.006 8.66741   2
  -2  -2 -11 103.113 5.82183   2
  -2  -2 -11 95.3987 4.95947   2
   2   2  11 102.732 6.10263   2
   2   2  11 103.828 4.69832   1
  -3  -2 -11 293.782 10.1967   2
  -3  -2 -11 328.018 10.8374   2
   3   2  11 303.443 9.97992   1
   3   2  11 313.911 11.1536   2
  -4  -2 -11 11.2618 2.88475   2
  -4  -2 -11 11.3450 2.05409   2
   4   2  11 11.2776 3.25822   2
   4   2  11 8.87863 1.77922   1
  -5  -2 -11 588.579 17.3277   2
   5   2  11 588.335 18.1676   2
   5   2  11 599.315 17.4291   1
  -6  -2 -11 1.96251 1.94049   2
   6   2  11 3.17695 3.71876   2
   6   2  11 0.54122 1.56959   1
  -7  -2 -11 129.361 8.65433   1
  -7  -2 -11 132.375 7.08114   2
   7   2  11 100.896 9.52632   2
   7   2  11 126.390 6.33537   1
  -8  -2 -11 398.197 17.2963   1
  -8  -2 -11 395.499 14.0856   2
   8   2  11 400.268 13.8721   1
  -9  -2 -11 308.804 13.2095   2
   9   2  11 317.076 12.5222   1
   6  -3 -11 135.749 11.6282   2
   5  -3 -11 51.1755 6.96226   2
  -5   3  11 47.6291 6.48361   2
   4  -3 -11 39.3586 5.57198   2
  -4   3  11 22.6125 3.60897   2
   3  -3 -11 537.852 17.1205   2
  -3   3  11 555.126 17.0868   2
  -3   3  11 518.824 18.3599   2
   2  -3 -11 54.8527 6.24202   2
   2  -3 -11 49.3302 4.64460   2
  -2   3  11 61.0428 7.06620   2
  -2   3  11 58.2961 4.53316   2
   1  -3 -11 48.2507 5.57737   2
   1  -3 -11 54.0463 4.26882   2
  -1   3  11 55.6586 6.27918   2
   0  -3 -11 9.74455 2.16997   2
   0  -3 -11 8.65134 2.97058   2
   0   3  11 7.41332 3.21342   2
   0   3  11 9.30443 1.80768   2
  -1  -3 -11 174.069 7.89899   2
  -1  -3 -11 175.615 7.30832   2
   1   3  11 180.578 8.32427   2
  -2  -3 -11 78.5084 4.59112   2
  -2  -3 -11 73.9337 5.40894   2
   2   3  11 77.5783 4.39102   1
   2   3  11 72.9093 5.92869   2
  -3  -3 -11 670.875 18.7486   2
  -3  -3 -11 653.244 18.3432   2
   3   3  11 637.766 18.9069   1
   3   3  11 638.169 18.9258   2
  -4  -3 -11 87.3265 5.87098   2
  -4  -3 -11 93.0355 5.13044   2
   4   3  11 87.1361 6.82086   2
   4   3  11 86.6966 4.59256   1
  -5  -3 -11 252.648 9.40382   2
  -5  -3 -11 247.079 10.1916   2
   5   3  11 261.614 9.27291   1
   5   3  11 262.207 10.8947   2
   6   3  11 282.056 12.2396   2
  -7  -3 -11 480.131 15.7081   2
   7   3  11 479.668 17.8866   2
   7   3  11 476.980 15.5832   1
  -8  -3 -11 182.207 9.16027   2
   8   3  11 182.379 8.56892   1
  -9  -3 -11 187.300 10.6591   2
   9   3  11 204.962 9.67270   1
   6  -4 -11 65.3539 8.10769   2
   5  -4 -11 37.9076 5.58197   2
  -5   4  11 29.6775 4.90238   2
   4  -4 -11 19.4041 4.06860   2
  -4   4  11 16.3448 3.55697   2
   3  -4 -11 251.811 10.6890   2
  -3   4  11 254.701 10.2376   2
  -3   4  11 246.511 13.2067   2
   2  -4 -11 111.929 6.65682   2
   2  -4 -11 114.697 7.76279   2
  -2   4  11 123.977 9.21014   2
  -2   4  11 113.233 6.33176   2
   1  -4 -11 106.303 6.93241   2
   1  -4 -11 112.837 6.10911   2
  -1   4  11 117.796 8.07259   2
  -1   4  11 108.231 5.73961   2
   0  -4 -11 99.9238 6.29253   2
   0  -4 -11 100.409 5.60045   2
   0   4  11 94.4592 7.07202   2
  -1  -4 -11 61.5064 5.59305   2
  -1  -4 -11 61.7857 4.40241   2
   1   4  11 72.9029 6.50313   2
  -2  -4 -11 129.606 6.06143   2
  -2  -4 -11 115.959 6.63289   2
   2   4  11 127.943 5.98196   1
   2   4  11 119.277 7.30446   2
  -3  -4 -11 1033.95 27.3225   2
  -3  -4 -11 1030.15 27.5368   2
   3   4  11 1052.75 29.1213   1
   3   4  11 1042.73 28.0989   2
  -4  -4 -11 83.5374 6.16340   2
  -4  -4 -11 95.0818 5.23439   2
   4   4  11 83.4637 4.84372   1
   4   4  11 89.1892 7.28231   2
  -5  -4 -11 25.4664 3.24700   2
  -5  -4 -11 21.9507 3.85106   2
   5   4  11 22.6406 4.65825   2
   6   4  11 62.7683 4.73052   1
   6   4  11 68.5177 8.45873   2
  -7  -4 -11 825.308 23.8491   2
   7   4  11 826.845 26.0560   2
   7   4  11 840.117 24.8254   1
  -8  -4 -11 43.7053 5.22049   2
   8   4  11 48.5643 5.30953   1
  -9  -4 -11 11.7258 4.53990   2
   9   4  11 7.93444 3.93749   1
   5  -5 -11 95.1631 9.43191   2
   4  -5 -11 -3.8100 3.74555   2
  -4   5  11 -3.7512 3.08496   2
   3  -5 -11 46.7757 5.76978   2
  -3   5  11 28.3991 3.88746   2
  -3   5  11 22.5752 6.59590   2
   2  -5 -11 401.856 13.8490   2
  -2   5  11 409.934 15.6966   2
  -2   5  11 408.961 13.6360   2
   1  -5 -11 43.9542 6.39305   2
   1  -5 -11 46.2535 4.75461   2
  -1   5  11 55.5271 7.42422   2
  -1   5  11 59.7782 4.49853   2
   0  -5 -11 -0.3526 1.84151   2
   0  -5 -11 5.61513 3.02301   2
   0   5  11 -0.3227 3.74843   2
  -1  -5 -11 269.666 10.5846   2
  -1  -5 -11 280.021 10.0180   2
   1   5  11 254.023 11.0057   1
   1   5  11 291.150 11.6927   2
  -2  -5 -11 225.619 8.67336   2
  -2  -5 -11 215.802 9.49305   2
   2   5  11 246.400 10.5524   2
  -3  -5 -11 596.261 17.8633   2
  -3  -5 -11 579.389 17.1719   2
   3   5  11 603.506 18.5264   2
   3   5  11 592.322 19.0582   1
  -4  -5 -11 111.217 7.20936   2
  -4  -5 -11 130.248 6.40704   2
   4   5  11 119.912 8.74057   2
   4   5  11 126.985 6.17088   1
  -5  -5 -11 260.546 9.84794   2
  -5  -5 -11 242.139 11.4652   2
   5   5  11 259.536 9.88687   1
   5   5  11 251.206 12.1791   2
  -6  -5 -11 109.542 6.65758   2
   6   5  11 96.9389 9.64434   2
   6   5  11 96.7550 5.80308   1
  -7  -5 -11 496.874 16.4680   2
   7   5  11 506.029 16.8113   1
   7   5  11 493.358 19.5110   2
  -8  -5 -11 0.62557 3.78542   2
   8   5  11 -3.4991 3.29851   1
  -9  -5 -11 52.2056 6.80944   2
   4  -6 -11 21.0527 5.12253   2
   3  -6 -11 -1.8770 3.61255   2
  -3   6  11 2.13102 2.95905   2
  -3   6  11 -2.9985 6.95012   2
   2  -6 -11 164.126 8.39027   2
  -2   6  11 162.980 11.6477   2
  -2   6  11 165.441 7.80211   2
   1  -6 -11 -4.6666 2.42503   2
  -1   6  11 2.03797 1.93874   2
  -1   6  11 -4.1243 4.73486   2
   0  -6 -11 56.1744 4.77450   2
   0   6  11 56.5197 7.76234   2
  -1  -6 -11 587.575 17.0209   2
  -1  -6 -11 534.799 17.3634   2
   1   6  11 560.236 18.2198   2
   1   6  11 573.896 18.3343   1
  -2  -6 -11 455.619 14.2129   2
  -2  -6 -11 451.082 14.9930   2
   2   6  11 457.791 15.8428   2
   2   6  11 444.825 15.2586   1
  -3  -6 -11 44.8677 4.32862   2
  -3  -6 -11 40.5628 5.03363   2
   3   6  11 47.2882 5.80568   2
   3   6  11 43.5940 4.40402   1
  -4  -6 -11 36.0415 4.19957   2
   4   6  11 29.3855 5.28073   2
   4   6  11 33.2919 4.00425   1
  -5  -6 -11 698.194 20.0708   2
   5   6  11 678.672 21.2098   1
   5   6  11 663.294 21.6415   2
  -6  -6 -11 10.0081 3.29884   2
   6   6  11 17.3245 3.08047   1
   6   6  11 19.3365 6.75001   2
  -7  -6 -11 35.6704 4.83108   2
   7   6  11 25.8742 4.08886   1
   7   6  11 34.3606 8.71717   2
  -8  -6 -11 0.88739 4.39298   2
   8   6  11 3.13143 4.08958   1
   3  -7 -11 1.46594 4.43127   2
  -3   7  11 -3.5969 3.33865   2
   2  -7 -11 131.424 7.88519   2
  -2   7  11 127.164 7.01751   2
   1  -7 -11 33.1823 4.31038   2
  -1   7  11 33.9481 7.13958   2
   0  -7 -11 336.838 12.0546   2
   0   7  11 353.806 14.8731   2
  -1  -7 -11 409.553 13.3314   2
   1   7  11 402.486 15.5386   2
   1   7  11 384.148 14.3040   1
  -2  -7 -11 226.316 9.05739   2
   2   7  11 216.400 9.71847   1
   2   7  11 209.211 11.5886   2
  -3  -7 -11 47.7803 4.82051   2
   3   7  11 39.1055 6.37515   2
   3   7  11 30.7572 4.04831   1
  -4  -7 -11 2.76168 2.55181   2
   4   7  11 3.92918 5.24735   2
   4   7  11 2.05003 2.54865   1
  -5  -7 -11 556.014 17.2923   2
   5   7  11 552.184 18.4377   1
   5   7  11 568.443 20.3715   2
  -6  -7 -11 2.29242 3.46286   2
   6   7  11 6.68184 3.32047   1
  -7  -7 -11 0.95992 4.01527   2
   7   7  11 -4.2397 3.52087   1
   0  -8 -11 507.591 16.4281   2
   0   8  11 542.091 18.7110   1
  -1  -8 -11 78.8119 6.05708   2
   1   8  11 78.5668 6.24270   1
  -2  -8 -11 17.0871 3.45294   2
   2   8  11 9.62843 6.46762   2
   2   8  11 16.9375 3.36234   1
  -3  -8 -11 321.259 11.6651   2
   3   8  11 312.458 12.7323   1
  -4  -8 -11 3.47425 3.23461   2
   4   8  11 11.9831 3.24406   1
   5   8  11 164.160 8.75626   1
   3   9  11 211.849 10.3703   1
   2   8 -12 84.7341 6.32624   2
   0   8 -12 7.75418 2.38710   2
  -1   8 -12 157.524 6.23409   2
  -2   8 -12 8.87573 2.39655   2
  -3   8 -12 428.533 12.4872   2
  -4   8 -12 6.84925 2.75388   2
  -5   8 -12 20.0247 3.68899   2
  -6   8 -12 241.761 10.5974   2
   3   7 -12 43.8916 6.46869   2
   2   7 -12 53.6808 5.41452   2
   1   7 -12 34.8560 4.39893   2
   0   7 -12 11.9161 2.47198   2
   0  -7  12 15.3604 4.48452   2
  -1   7 -12 574.827 16.1716   2
   1  -7  12 613.126 16.9465   2
  -2   7 -12 1.85294 1.85463   2
   2  -7  12 4.55627 3.51439   2
  -3   7 -12 131.327 6.08174   2
   3  -7  12 136.559 7.99011   2
  -4   7 -12 104.157 5.75653   2
   4  -7  12 95.7129 8.12777   2
  -5   7 -12 176.347 7.83202   2
   3   6 -12 105.492 7.01412   2
   2   6 -12 82.2845 5.84544   2
   1   6 -12 50.0626 4.47843   2
   1   6 -12 56.5803 6.98984   2
   0   6 -12 3.61977 3.33992   2
   0  -6  12 1.26085 3.67197   2
  -1   6 -12 731.494 20.4346   2
  -1   6 -12 757.427 20.0347   2
   1  -6  12 752.315 20.5099   2
  -2   6 -12 5.37305 3.05613   2
  -2   6 -12 10.1110 1.97258   2
   2  -6  12 12.0361 3.68550   2
  -3   6 -12 -0.5384 3.22694   2
  -3   6 -12 0.61992 1.73792   2
   3  -6  12 -0.6129 3.49568   2
  -4   6 -12 42.5633 4.15432   2
  -4   6 -12 46.1225 6.58091   2
   4  -6  12 41.5177 5.04409   2
  -5   6 -12 301.090 10.5848   2
  -6   6 -12 77.0149 6.00579   2
  -7   6 -12 16.6471 3.76352   2
   4   5 -12 255.384 11.2192   2
   3   5 -12 96.6282 6.67723   2
  -3  -5  12 103.094 6.56630   2
   2   5 -12 110.528 6.23158   2
   2   5 -12 100.563 8.70467   2
   1   5 -12 392.559 13.4136   2
   1   5 -12 404.782 12.6293   2
  -1  -5  12 370.598 13.5435   2
   0   5 -12 142.356 7.69751   2
   0   5 -12 146.291 6.52936   2
   0  -5  12 155.210 8.23406   2
  -1   5 -12 523.127 15.7073   2
  -1   5 -12 531.758 15.2635   2
   1  -5  12 542.884 16.0982   2
  -2   5 -12 60.3534 5.79189   2
  -2   5 -12 58.0452 3.98514   2
   2  -5  12 54.3255 6.06475   2
  -3   5 -12 221.429 8.01722   2
  -3   5 -12 220.915 9.14382   2
   3  -5  12 216.524 9.42375   2
  -4   5 -12 120.608 5.75365   2
  -4   5 -12 122.333 7.58122   2
   4  -5  12 121.810 7.95628   2
  -5   5 -12 123.430 8.25498   2
  -5   5 -12 116.997 6.13763   2
  -6   5 -12 23.7851 3.43738   2
  -7   5 -12 110.363 6.90677   2
   4   4 -12 410.910 14.7490   2
  -4  -4  12 426.272 14.6847   2
   3   4 -12 10.3929 5.10120   2
   3   4 -12 6.38366 2.69642   2
  -3  -4  12 9.18649 3.79202   1
  -3  -4  12 10.0001 2.87489   2
   2   4 -12 52.6215 7.28080   2
   2   4 -12 36.4927 4.37896   2
  -2  -4  12 43.1237 4.28958   2
  -2  -4  12 44.4213 3.72613   1
   1   4 -12 752.880 21.0565   2
   1   4 -12 748.774 20.7909   2
  -1  -4  12 716.884 21.1090   2
   0   4 -12 85.0344 4.88279   2
   0   4 -12 86.8773 6.26717   2
   0  -4  12 93.0760 6.83273   2
  -1   4 -12 100.028 6.24331   2
  -1   4 -12 89.9482 4.88107   2
   1  -4  12 98.1664 6.59971   2
  -2   4 -12 -0.9995 1.40132   2
  -2   4 -12 -1.8733 2.60180   2
   2  -4  12 1.22279 2.88200   2
  -3   4 -12 436.573 13.6900   2
  -3   4 -12 432.854 12.9755   2
   3  -4  12 417.057 13.7754   2
  -4   4 -12 154.184 6.59338   2
  -4   4 -12 146.177 7.80507   2
   4  -4  12 150.847 8.09999   2
  -5   4 -12 0.83533 3.60607   2
  -5   4 -12 -0.0840 1.79367   2
   5  -4  12 3.75912 3.70331   2
  -6   4 -12 30.0599 4.21595   2
  -7   4 -12 39.5892 4.85885   2
  -8   4 -12 8.42616 3.77490   2
  -5  -3  12 18.1571 4.83364   2
   4   3 -12 229.172 10.4746   2
   4   3 -12 224.833 13.3720   2
   3   3 -12 68.8789 5.15081   2
   3   3 -12 60.4663 8.52861   2
  -3  -3  12 77.5059 6.75600   1
  -3  -3  12 78.6892 5.66561   2
   2   3 -12 144.115 7.21091   2
   2   3 -12 149.784 8.60238   2
  -2  -3  12 145.738 6.80872   2
  -2  -3  12 140.655 6.41094   1
  -2  -3  12 147.719 9.42291   2
   1   3 -12 690.369 19.5068   2
  -1  -3  12 649.500 19.7941   2
  -1  -3  12 671.184 17.9866   1
  -1  -3  12 710.440 19.0683   2
   0   3 -12 87.7997 6.13177   2
   0   3 -12 87.1287 4.82220   2
   0  -3  12 74.4909 6.12947   2
  -1   3 -12 -0.3885 2.59766   2
   1  -3  12 1.34964 2.75644   2
  -2   3 -12 4.05903 2.73845   2
  -2   3 -12 0.37905 1.42611   2
   2  -3  12 4.02935 2.83450   2
  -3   3 -12 253.829 9.53386   2
  -3   3 -12 243.502 8.69822   2
   3  -3  12 250.857 9.73568   2
  -4   3 -12 27.8593 3.13922   2
  -4   3 -12 21.8537 3.66146   2
   4  -3  12 24.0172 3.85205   2
  -5   3 -12 139.999 8.07986   2
  -5   3 -12 125.918 6.28349   2
   5  -3  12 126.731 8.37194   2
  -6   3 -12 95.2247 5.93605   2
  -7   3 -12 3.72067 2.67432   2
  -7   3 -12 10.5174 3.69404   1
  -8   3 -12 15.7323 3.85068   2
  -6  -2  12 585.024 20.5091   2
   5   2 -12 -0.2936 3.78799   2
  -5  -2  12 -2.1681 3.92027   2
   4   2 -12 5.84799 5.88921   2
   4   2 -12 8.36067 3.16428   2
  -4  -2  12 9.35990 4.82433   1
  -4  -2  12 8.46399 3.15225   2
   3   2 -12 257.790 12.1344   2
   3   2 -12 246.254 10.3741   2
  -3  -2  12 264.755 10.3369   2
  -3  -2  12 275.956 10.4937   1
   2   2 -12 348.429 12.1665   2
   2   2 -12 370.037 13.0822   2
  -2  -2  12 323.656 12.8866   2
  -2  -2  12 361.209 11.9283   2
  -2  -2  12 350.846 11.4761   1
   1   2 -12 207.200 8.32374   2
   1   2 -12 204.671 9.27548   2
  -1  -2  12 193.811 8.99742   2
  -1  -2  12 216.246 7.99210   2
  -1  -2  12 195.219 7.06042   1
   0   2 -12 23.1732 2.99896   2
   0   2 -12 20.5099 3.48307   2
   0  -2  12 18.3899 2.16732   1
   0  -2  12 24.3416 3.86470   2
  -1   2 -12 258.010 9.73700   2
   1  -2  12 244.816 9.51182   2
  -2   2 -12 -0.0019 2.38011   2
   2  -2  12 2.76736 2.59765   2
   3  -2  12 30.0172 3.72458   2
  -4   2 -12 733.649 20.1555   2
  -4   2 -12 753.581 20.5867   2
   4  -2  12 688.504 20.4911   2
  -5   2 -12 102.756 5.50196   2
  -5   2 -12 106.173 6.97674   2
   5  -2  12 101.245 7.36586   2
  -6   2 -12 12.9736 2.56668   2
  -7   2 -12 185.207 8.57829   2
  -7   2 -12 191.181 8.97130   1
  -8   2 -12 82.9280 9.16561   1
  -8   2 -12 58.7537 6.13786   2
  -6  -1  12 349.593 15.5068   2
   5   1 -12 31.0283 5.05671   2
  -5  -1  12 33.1555 4.92000   2
   4   1 -12 159.328 8.69426   2
   4   1 -12 142.106 11.6395   2
  -4  -1  12 175.582 8.86210   2
  -4  -1  12 171.431 9.82948   1
   3   1 -12 204.626 10.8670   2
   3   1 -12 215.323 9.38915   2
  -3  -1  12 215.602 9.35296   1
   2   1 -12 212.392 9.63863   2
   2   1 -12 195.241 8.56156   2
  -2  -1  12 205.014 8.28972   2
  -2  -1  12 186.089 9.59587   2
   1   1 -12 88.2386 5.31572   2
   1   1 -12 78.3657 6.49820   2
  -1  -1  12 89.6370 4.64327   1
  -1  -1  12 82.3792 6.64717   2
  -1  -1  12 83.6019 4.92715   2
   0   1 -12 53.1355 5.12764   2
   0  -1  12 52.1908 5.50126   2
  -1   1 -12 85.6043 5.95527   2
  -1   1 -12 87.4630 4.86980   2
   1  -1  12 89.1319 3.33803   1
   1  -1  12 90.5974 6.15581   2
  -2   1 -12 12.1969 2.93405   2
  -2   1 -12 8.90231 1.89903   2
   2  -1  12 10.4175 1.22095   1
   2  -1  12 9.98460 3.03778   2
  -3   1 -12 28.4422 3.11204   2
  -3   1 -12 29.8818 4.39757   2
   3  -1  12 33.6645 1.91288   1
   3  -1  12 33.3677 4.56495   2
  -4   1 -12 533.970 16.9943   2
  -4   1 -12 550.149 16.3665   2
   4  -1  12 527.009 16.4909   2
   4  -1  12 564.019 15.0938   1
  -5   1 -12 1.64312 3.04423   2
  -5   1 -12 2.79741 1.64022   2
   5  -1  12 0.23324 3.18703   2
   5  -1  12 1.12453 1.22498   1
  -6   1 -12 3.41272 2.05451   2
   6  -1  12 6.23845 1.76131   1
   6  -1  12 2.43234 3.65428   2
  -7   1 -12 644.972 20.2265   1
  -7   1 -12 665.997 19.9920   2
   7  -1  12 677.823 19.6081   1
  -8   1 -12 161.904 8.72227   2
  -8   1 -12 169.122 10.8459   1
  -9   1 -12 91.4771 7.98474   2
  10  -1  12 73.8346 10.8749   2
  -6   0  12 83.0629 9.64752   2
   5   0 -12 60.0771 7.12466   2
  -5   0  12 57.8660 6.84472   2
   4   0 -12 281.069 11.6804   2
  -4   0  12 289.964 12.6638   1
  -4   0  12 292.797 11.7947   2
   3   0 -12 128.516 7.11437   2
   3   0 -12 119.999 9.13385   2
  -3   0  12 123.242 6.60468   2
  -3   0  12 115.920 7.40540   1
   2   0 -12 7.13767 2.29273   2
   2   0 -12 8.12480 3.81203   2
  -2   0  12 6.49514 3.90862   2
  -2   0  12 11.5367 2.22476   2
  -2   0  12 5.57120 2.75123   1
   1   0 -12 0.92147 2.98442   2
   1   0 -12 2.40823 1.85128   2
  -1   0  12 3.64902 1.68234   2
  -1   0  12 -0.2247 2.96409   2
   0   0 -12 166.488 7.27000   2
   0   0 -12 161.790 7.71532   2
   0   0  12 155.733 6.72145   2
   0   0  12 162.668 8.22530   2
  -1   0 -12 25.9313 3.68273   2
  -1   0 -12 24.2519 3.14320   2
   1   0  12 25.3614 3.75681   2
   1   0  12 23.8578 2.09927   1
  -2   0 -12 870.794 23.0765   2
  -2   0 -12 841.046 23.0063   2
   2   0  12 833.437 22.5345   1
   2   0  12 840.430 23.3154   2
  -3   0 -12 14.6570 3.14560   2
  -3   0 -12 13.7426 2.37033   2
   3   0  12 17.4060 1.77922   1
   3   0  12 16.9662 3.35210   2
  -4   0 -12 370.906 12.5621   2
   4   0  12 383.677 13.0328   2
   4   0  12 377.368 11.1825   1
  -5   0 -12 112.487 5.73926   2
  -5   0 -12 112.348 7.17191   2
   5   0  12 107.366 7.43742   2
   5   0  12 112.047 4.81686   1
  -6   0 -12 439.425 14.1851   2
   6   0  12 418.706 15.3307   2
   6   0  12 449.862 13.5990   1
  -7   0 -12 446.696 15.0510   2
   7   0  12 476.422 14.7821   1
  -8   0 -12 201.958 9.63853   2
   8   0  12 212.628 8.98665   1
  -9   0 -12 37.7125 5.10184   2
  10   0  12 5.49639 6.55130   2
   5  -1 -12 -3.6376 3.97400   2
  -5   1  12 -0.5382 3.68675   2
   4  -1 -12 271.065 11.7558   2
  -4   1  12 284.218 11.6036   2
  -4   1  12 275.296 12.6875   1
   3  -1 -12 112.339 6.83665   2
   3  -1 -12 108.483 8.88431   2
  -3   1  12 116.437 6.57719   2
  -3   1  12 115.923 7.62242   1
   2  -1 -12 91.6546 5.73605   2
   2  -1 -12 94.4722 7.44379   2
  -2   1  12 101.165 8.25203   2
  -2   1  12 98.6110 5.65490   2
   1  -1 -12 25.0066 4.14964   2
  -1   1  12 31.5526 4.62073   2
  -1   1  12 37.7193 3.41827   2
   0  -1 -12 9.39572 2.05601   2
   0  -1 -12 8.93107 3.13638   2
   0   1  12 9.74906 3.28314   2
   0   1  12 7.37939 1.85297   2
  -1  -1 -12 54.8784 5.38274   2
  -1  -1 -12 42.2332 3.77194   2
   1   1  12 37.9378 5.32015   2
   1   1  12 43.9469 2.93063   1
  -2  -1 -12 1360.55 34.0925   2
  -2  -1 -12 1298.06 33.9138   2
   2   1  12 1346.13 35.0410   1
   2   1  12 1303.18 34.2552   2
  -3  -1 -12 59.3387 4.04558   2
  -3  -1 -12 65.2196 5.46552   2
   3   1  12 62.1194 3.31806   1
   3   1  12 68.0274 5.67508   2
  -4  -1 -12 12.4391 2.22174   2
  -4  -1 -12 7.83847 3.04616   2
   4   1  12 11.1533 1.75764   1
   4   1  12 14.7932 3.56183   2
  -5  -1 -12 343.606 11.4808   2
  -5  -1 -12 315.482 11.8905   2
   5   1  12 332.852 10.6448   1
   5   1  12 332.433 12.5853   2
  -6  -1 -12 515.130 16.0546   2
   6   1  12 529.712 15.7194   1
   6   1  12 499.464 17.2259   2
  -7  -1 -12 193.118 8.81153   2
   7   1  12 182.771 8.48025   1
  -8  -1 -12 18.7367 3.49563   2
  -8  -1 -12 19.9905 6.15179   1
   8   1  12 27.4990 4.45989   1
  -9  -1 -12 113.712 8.83081   2
   9   1  12 143.564 8.29474   1
  10   1  12 34.3452 5.84763   1
   5  -2 -12 5.21441 4.24584   2
  -5   2  12 2.09896 3.87743   2
   4  -2 -12 7.50494 3.52155   2
  -4   2  12 13.5676 3.43763   2
   3  -2 -12 226.417 10.0463   2
  -3   2  12 218.730 9.54522   2
   2  -2 -12 121.605 6.88076   2
   2  -2 -12 117.148 8.21183   2
  -2   2  12 119.035 6.52261   2
  -2   2  12 121.875 8.84901   2
   1  -2 -12 16.8085 3.88403   2
  -1   2  12 12.4405 2.33315   2
  -1   2  12 20.2116 4.34096   2
   0  -2 -12 651.235 19.5932   2
   0  -2 -12 700.406 19.7619   2
   0   2  12 702.663 19.3291   2
   0   2  12 664.037 20.0777   2
  -1  -2 -12 30.8098 4.19691   2
  -1  -2 -12 26.6194 3.22115   2
   1   2  12 27.9911 4.35738   2
   1   2  12 30.8728 2.91342   1
  -2  -2 -12 989.085 26.6848   2
  -2  -2 -12 1021.11 27.0002   2
   2   2  12 1016.44 27.3606   2
   2   2  12 996.270 27.5211   1
  -3  -2 -12 98.8728 5.19882   2
  -3  -2 -12 88.9181 6.35970   2
   3   2  12 91.4008 6.77145   2
   3   2  12 93.3045 4.53566   1
  -4  -2 -12 271.394 9.74949   2
  -4  -2 -12 254.002 10.1790   2
   4   2  12 272.182 9.12525   1
   4   2  12 260.268 10.7980   2
  -5  -2 -12 329.614 12.0761   2
   5   2  12 321.810 10.6886   1
   5   2  12 311.127 12.5494   2
  -6  -2 -12 602.863 18.0808   2
   6   2  12 599.733 17.8966   1
   6   2  12 577.803 19.1943   2
  -7  -2 -12 11.0874 3.19602   2
   7   2  12 9.48545 2.56226   1
  -8  -2 -12 20.7017 3.61399   2
   8   2  12 20.0734 3.48726   1
  -9  -2 -12 141.352 9.60134   2
   9   2  12 152.485 8.61934   1
   5  -3 -12 38.9869 6.13386   2
   4  -3 -12 6.80951 3.86818   2
  -4   3  12 1.44139 3.35605   2
   3  -3 -12 378.399 14.0058   2
  -3   3  12 380.189 13.4438   2
   2  -3 -12 7.16151 4.61118   2
   2  -3 -12 15.2789 3.09458   2
  -2   3  12 18.5003 5.42265   2
  -2   3  12 9.51346 2.56855   2
   1  -3 -12 8.18644 3.75721   2
  -1   3  12 8.94353 2.17275   2
  -1   3  12 6.86028 4.25613   2
   0  -3 -12 705.133 20.3846   2
   0  -3 -12 718.535 20.7348   2
   0   3  12 706.000 21.1175   2
  -1  -3 -12 316.375 10.9624   2
  -1  -3 -12 298.270 11.4573   2
   1   3  12 303.320 10.5948   1
   1   3  12 306.569 11.9870   2
  -2  -3 -12 280.434 10.7531   2
  -2  -3 -12 282.641 10.0304   2
   2   3  12 270.561 9.72879   1
   2   3  12 273.048 11.2317   2
  -3  -3 -12 104.791 5.62239   2
  -3  -3 -12 102.205 6.84953   2
   3   3  12 90.8381 7.13846   2
   3   3  12 105.326 5.09308   1
  -4  -3 -12 683.973 20.1299   2
  -4  -3 -12 692.486 19.7180   2
   4   3  12 693.468 20.8011   2
   4   3  12 693.840 20.1901   1
  -5  -3 -12 98.8896 7.34212   2
   5   3  12 106.962 8.51423   2
   5   3  12 101.645 5.35476   1
  -6  -3 -12 215.164 10.4556   2
  -6  -3 -12 208.704 8.96577   2
   6   3  12 228.496 11.6747   2
   6   3  12 224.478 8.72635   1
  -7  -3 -12 -4.8236 2.61380   2
   7   3  12 -0.7809 2.17766   1
  -8  -3 -12 68.6396 6.72255   2
   8   3  12 83.9323 6.31777   1
  -9  -3 -12 104.991 9.36235   2
   9   3  12 96.3076 7.86682   1
   5  -4 -12 172.851 11.4373   2
   4  -4 -12 19.5199 4.62993   2
  -4   4  12 23.5322 4.37631   2
   3  -4 -12 120.991 8.04290   2
  -3   4  12 122.084 7.29219   2
   2  -4 -12 68.8554 5.94274   2
  -2   4  12 61.0857 4.99746   2
  -2   4  12 60.9861 7.46564   2
   1  -4 -12 135.776 7.30408   2
   1  -4 -12 129.645 9.34925   2
  -1   4  12 135.871 6.77334   2
  -1   4  12 130.888 9.42105   2
   0  -4 -12 846.188 23.7905   2
   0  -4 -12 852.684 24.1894   2
   0   4  12 864.289 24.8859   2
  -1  -4 -12 175.199 8.90356   2
  -1  -4 -12 177.734 7.89225   2
   1   4  12 182.292 7.77861   1
   1   4  12 180.204 9.86694   2
  -2  -4 -12 39.0958 3.96731   2
  -2  -4 -12 32.7491 4.46323   2
   2   4  12 34.5768 3.61074   1
   2   4  12 39.1947 5.26192   2
  -3  -4 -12 18.5536 3.02596   2
  -3  -4 -12 19.6900 3.91204   2
   3   4  12 14.4330 4.32781   2
   3   4  12 21.0071 2.91304   1
  -4  -4 -12 728.993 19.9535   2
  -4  -4 -12 631.119 19.9541   2
   4   4  12 690.869 20.9404   2
  -5  -4 -12 72.0747 6.91800   2
   5   4  12 81.4841 4.94625   1
   5   4  12 67.8525 8.21349   2
  -6  -4 -12 59.9900 5.48180   2
   6   4  12 59.7659 7.47773   2
   6   4  12 63.3517 4.80439   1
  -7  -4 -12 2.36807 2.92560   2
   7   4  12 3.32439 2.49404   1
  -8  -4 -12 3.57536 3.87330   2
   8   4  12 3.75099 3.41886   1
  -9  -4 -12 8.86620 5.15274   2
   5  -5 -12 325.933 16.2619   2
   4  -5 -12 7.12453 4.88652   2
   3  -5 -12 15.3983 4.05479   2
  -3   5  12 13.3251 3.56460   2
   2  -5 -12 235.586 10.2319   2
  -2   5  12 238.861 9.62040   2
  -2   5  12 225.307 13.9138   2
   1  -5 -12 448.960 15.2787   2
  -1   5  12 462.463 17.2862   2
  -1   5  12 451.769 14.6673   2
   0  -5 -12 382.314 13.2623   2
   0   5  12 388.694 15.3749   2
  -1  -5 -12 40.6808 4.34009   2
  -1  -5 -12 46.5926 6.39214   2
   1   5  12 53.3589 6.30142   2
   1   5  12 51.5958 4.34044   1
  -2  -5 -12 190.320 9.39366   2
  -2  -5 -12 194.144 8.21345   2
   2   5  12 199.254 10.5565   2
   2   5  12 190.954 8.37263   1
  -3  -5 -12 2.03947 2.04746   2
  -3  -5 -12 -0.9038 3.33185   2
   3   5  12 3.27334 4.28557   2
   3   5  12 -1.7469 1.78769   1
  -4  -5 -12 283.368 10.4130   2
   4   5  12 268.021 12.5010   2
   4   5  12 264.373 10.2748   1
  -5  -5 -12 56.5429 5.36637   2
   5   5  12 51.8528 4.35282   1
   5   5  12 57.1840 7.10554   2
  -6  -5 -12 35.8531 5.15853   2
   6   5  12 40.1820 7.43604   2
   6   5  12 35.3083 4.29567   1
  -7  -5 -12 7.55737 3.47322   2
   7   5  12 8.15930 3.06122   1
  -8  -5 -12 9.52713 4.28498   2
   8   5  12 7.38982 3.69878   1
  -9  -5 -12 30.9147 6.55379   2
   4  -6 -12 26.3875 5.90318   2
   3  -6 -12 41.9028 5.94285   2
  -3   6  12 50.4065 6.42159   2
   2  -6 -12 288.992 11.9583   2
  -2   6  12 286.345 16.4092   2
  -2   6  12 282.845 11.2250   2
   1  -6 -12 364.582 13.3310   2
  -1   6  12 373.345 16.4776   2
   0  -6 -12 8.04955 2.90703   2
   0   6  12 16.3577 5.92197   2
  -1  -6 -12 1.42252 2.49451   2
   1   6  12 -5.9827 4.85273   2
   1   6  12 1.15110 2.43623   1
  -2  -6 -12 508.268 15.8791   2
   2   6  12 502.334 16.9127   1
   2   6  12 520.893 17.9268   2
  -3  -6 -12 4.11017 2.43325   2
   3   6  12 3.86066 2.27682   1
   3   6  12 -0.2916 4.92891   2
  -4  -6 -12 28.7149 3.79747   2
   4   6  12 26.7854 6.41528   2
   4   6  12 29.6929 3.95636   1
  -5  -6 -12 27.9802 4.05904   2
   5   6  12 32.7047 7.29204   2
   5   6  12 39.9211 4.67062   1
  -6  -6 -12 42.4398 6.05769   2
   6   6  12 39.2076 8.38493   2
   6   6  12 41.3092 4.87569   1
  -7  -6 -12 17.1362 4.60482   2
   7   6  12 19.8012 4.11906   1
  -8  -6 -12 165.729 10.4237   2
   2  -7 -12 210.504 10.8471   2
  -2   7  12 192.841 9.33888   2
   1  -7 -12 164.260 8.98779   2
   0  -7 -12 13.6218 3.48804   2
   0   7  12 20.6060 6.78110   2
  -1  -7 -12 53.0007 5.70910   2
   1   7  12 47.1602 7.32189   2
   1   7  12 46.4044 5.56193   1
  -2  -7 -12 193.138 8.71151   2
   2   7  12 203.897 9.65553   1
   2   7  12 214.119 13.1889   2
  -3  -7 -12 75.1611 5.90216   2
   3   7  12 65.2461 5.40111   1
   3   7  12 54.6242 7.72518   2
  -4  -7 -12 11.9627 3.47857   2
   4   7  12 16.0715 6.79116   2
   4   7  12 16.2813 3.57609   1
  -5  -7 -12 110.530 7.28434   2
   5   7  12 120.978 13.6535   2
   5   7  12 117.512 7.06407   1
  -6  -7 -12 -2.8605 3.96863   2
   6   7  12 2.15107 3.49018   1
   0   8  12 21.6563 4.67319   1
  -1  -8 -12 3.37618 3.72550   2
   1   8  12 -3.9090 3.53899   1
  -2  -8 -12 60.0000 6.38140   2
   2   8  12 60.5735 6.32859   1
  -3  -8 -12 176.952 8.90964   2
   3   8  12 165.290 9.20846   1
   4   8  12 1.14836 3.38686   1
   5   8  12 0.48821 3.64385   1
   1   8 -13 4.26868 3.26918   2
   0   8 -13 327.830 10.7738   2
  -1   8 -13 8.77809 2.73448   2
  -2   8 -13 58.3073 5.04798   2
  -3   8 -13 49.3692 5.29434   2
  -4   8 -13 17.0501 3.43961   2
  -5   8 -13 27.7106 4.33670   2
   2   7 -13 299.733 11.4913   2
   1   7 -13 32.6659 3.94095   2
   0   7 -13 62.4118 5.03919   2
  -1   7 -13 12.7035 2.67176   2
  -2   7 -13 185.218 7.41547   2
  -3   7 -13 116.041 6.10347   2
  -4   7 -13 0.97377 2.61787   2
  -5   7 -13 4.65345 3.06063   2
  -6   7 -13 59.5132 6.81522   2
   1   6 -13 2.45867 2.79436   2
   0   6 -13 -1.6954 2.29668   2
  -1   6 -13 -1.6622 2.06299   2
  -2   6 -13 130.030 8.34537   2
  -2   6 -13 137.403 6.24966   2
   2  -6  13 133.216 9.15509   2
  -3   6 -13 73.5313 4.96482   2
  -4   6 -13 110.429 6.07524   2
  -5   6 -13 30.0682 3.74793   2
  -6   6 -13 -4.2583 3.06789   2
   3   5 -13 117.914 7.79548   2
   2   5 -13 320.769 11.8442   2
   1   5 -13 9.12814 2.60967   2
   1   5 -13 8.86376 4.56257   2
   0   5 -13 32.1139 4.05490   2
   0   5 -13 34.1029 5.12771   2
  -1   5 -13 19.6711 4.11829   2
  -1   5 -13 23.6435 3.10767   2
   1  -5  13 22.0730 4.67775   2
  -2   5 -13 3.00581 3.82705   2
  -2   5 -13 3.16004 1.91072   2
   2  -5  13 -1.1203 3.71512   2
  -3   5 -13 162.205 8.96895   2
  -3   5 -13 175.817 7.20714   2
   3  -5  13 172.150 9.28151   2
  -4   5 -13 176.435 9.63522   2
  -5   5 -13 29.0035 3.59095   2
  -5   5 -13 28.4182 5.65125   2
  -6   5 -13 150.275 7.92545   2
  -7   5 -13 14.3579 3.53068   2
   3   4 -13 41.2610 5.04954   2
  -3  -4  13 37.3960 4.76212   2
   2   4 -13 13.1532 5.20826   2
   2   4 -13 5.91831 2.87146   2
  -2  -4  13 9.23140 2.63514   2
   1   4 -13 36.1410 4.31390   2
   1   4 -13 46.4218 5.62322   2
   0   4 -13 140.694 8.50654   2
   0   4 -13 141.345 6.67868   2
   0  -4  13 130.587 8.69520   2
  -1   4 -13 29.1630 3.43614   2
  -1   4 -13 24.8123 4.04319   2
   1  -4  13 31.7772 4.75797   2
  -2   4 -13 28.3037 4.37079   2
  -2   4 -13 20.2838 2.71348   2
   2  -4  13 22.9478 4.34599   2
  -3   4 -13 414.143 13.8675   2
  -3   4 -13 425.239 12.9891   2
   3  -4  13 390.495 13.9056   2
  -4   4 -13 11.8375 4.02976   2
  -4   4 -13 11.1651 2.37173   2
   4  -4  13 6.44132 4.35575   2
  -5   4 -13 1.24215 4.41823   2
  -5   4 -13 1.34410 2.08800   2
  -6   4 -13 498.416 17.6267   2
  -7   4 -13 22.7647 3.93977   2
   4   3 -13 124.986 8.02580   2
  -4  -3  13 140.053 8.93117   2
   3   3 -13 -3.9583 2.85944   2
   3   3 -13 -6.6877 5.47672   2
  -3  -3  13 3.07011 3.05465   2
   2   3 -13 17.6070 3.14161   2
   2   3 -13 19.0126 5.25963   2
  -2  -3  13 21.4702 3.20594   1
  -2  -3  13 20.6673 3.24900   2
   1   3 -13 94.1143 5.72439   2
   1   3 -13 87.1132 7.77146   2
  -1  -3  13 89.2637 3.70931   1
   0   3 -13 7.74593 2.10494   2
   0   3 -13 11.2837 3.64253   2
   0  -3  13 7.00803 3.82775   2
  -1   3 -13 170.381 7.15583   2
   1  -3  13 180.161 9.06209   2
  -2   3 -13 174.883 7.37520   2
   2  -3  13 186.954 9.05001   2
  -3   3 -13 421.234 13.0443   2
   3  -3  13 396.055 13.8898   2
  -4   3 -13 15.3148 4.01154   2
  -4   3 -13 25.9919 3.33955   2
   4  -3  13 17.2411 4.14175   2
  -5   3 -13 78.8522 7.64477   2
  -5   3 -13 79.7088 5.18429   2
  -6   3 -13 677.683 21.2029   2
  -6   3 -13 684.355 20.1566   2
  -7   3 -13 44.2633 5.41267   2
  -8   3 -13 -8.7717 3.62487   2
  -5  -2  13 119.711 10.1503   2
   4   2 -13 96.4244 7.90076   2
  -4  -2  13 107.869 8.18786   2
   3   2 -13 43.2818 7.02274   2
   3   2 -13 53.5848 5.35157   2
  -3  -2  13 67.2933 5.85104   2
  -3  -2  13 58.1138 6.99391   1
   2   2 -13 -5.5558 4.12158   2
   2   2 -13 0.10639 2.29276   2
  -2  -2  13 5.99552 2.98822   1
  -2  -2  13 2.63207 2.35147   2
   1   2 -13 -3.3834 3.49265   2
   1   2 -13 4.66433 2.08942   2
  -1  -2  13 -2.4384 1.84415   2
  -1  -2  13 4.77199 2.14734   1
  -1  -2  13 -0.0729 4.04790   2
   0   2 -13 7.39877 2.07232   2
   0   2 -13 4.84199 3.40668   2
   0  -2  13 6.50851 1.59561   1
   0  -2  13 12.8756 3.80883   2
   0  -2  13 7.31388 1.00511   1
  -1   2 -13 1184.37 31.3302   2
  -1   2 -13 1250.32 31.7032   2
   1  -2  13 1180.19 31.6017   2
  -2   2 -13 22.4634 4.02833   2
  -2   2 -13 18.5340 2.58861   2
   2  -2  13 26.7862 4.15317   2
  -3   2 -13 53.8328 4.22822   2
  -3   2 -13 63.6352 5.91850   2
   3  -2  13 52.4182 6.08135   2
  -4   2 -13 452.340 14.0398   2
  -4   2 -13 458.962 14.9702   2
   4  -2  13 432.788 14.7495   2
  -5   2 -13 351.905 11.8717   2
  -5   2 -13 347.798 12.9344   2
   5  -2  13 342.242 13.9634   2
  -6   2 -13 348.679 13.8506   2
  -6   2 -13 310.688 11.5310   2
  -7   2 -13 36.5700 4.88517   2
  -8   2 -13 167.451 9.09771   2
  -5  -1  13 22.5673 4.97096   2
   4   1 -13 74.0681 7.19635   2
  -4  -1  13 81.8846 7.14961   2
   3   1 -13 179.538 11.5162   2
   3   1 -13 173.613 8.65769   2
  -3  -1  13 188.645 9.45694   1
  -3  -1  13 190.339 8.94295   2
   2   1 -13 4.29367 2.48683   2
   2   1 -13 2.76595 4.26326   2
  -2  -1  13 3.99219 3.01543   1
   1   1 -13 121.484 8.43490   2
   1   1 -13 139.225 7.02027   2
  -1  -1  13 121.669 8.46030   2
  -1  -1  13 143.118 6.69017   2
  -1  -1  13 136.288 6.16999   1
   0   1 -13 6.97715 2.08620   2
   0   1 -13 7.61801 3.49063   2
   0  -1  13 7.11763 1.97328   1
   0  -1  13 9.43970 3.75613   2
  -1   1 -13 900.344 24.8323   2
  -1   1 -13 913.617 24.7284   2
   1  -1  13 865.557 24.8956   2
   1  -1  13 942.643 23.7454   1
  -2   1 -13 118.763 7.28966   2
  -2   1 -13 114.678 5.83746   2
   2  -1  13 114.341 3.93114   1
   2  -1  13 118.655 7.33844   2
  -3   1 -13 114.727 5.88653   2
  -3   1 -13 125.550 7.40028   2
   3  -1  13 120.027 7.37653   2
   3  -1  13 117.761 4.11722   1
  -4   1 -13 439.356 13.7930   2
  -4   1 -13 428.072 14.4514   2
   4  -1  13 432.624 14.6562   2
   4  -1  13 451.466 12.4064   1
  -5   1 -13 330.000 11.5245   2
  -5   1 -13 346.555 12.7126   2
   5  -1  13 315.493 12.6380   2
   5  -1  13 343.519 10.2883   1
  -6   1 -13 48.6516 4.38044   2
  -6   1 -13 52.8588 7.42974   2
   6  -1  13 58.3313 3.85123   1
  -7   1 -13 -1.3268 2.54555   2
  -8   1 -13 176.497 9.35085   2
  -5   0  13 36.5346 5.71766   2
   4   0 -13 241.982 11.2944   2
  -4   0  13 220.907 10.4358   2
  -4   0  13 225.436 12.4833   1
   3   0 -13 43.0341 5.20058   2
  -3   0  13 49.8828 5.46562   2
  -3   0  13 31.6868 5.06300   1
   2   0 -13 8.70597 4.37817   2
   2   0 -13 1.06332 2.26549   2
  -2   0  13 7.65433 2.39839   2
  -2   0  13 5.60525 3.14941   1
   1   0 -13 931.920 26.3464   2
   1   0 -13 966.221 26.3482   2
  -1   0  13 916.889 26.7369   2
  -1   0  13 965.555 26.1409   2
   0   0 -13 3.01170 1.86663   2
   0   0 -13 3.99401 3.27315   2
   0   0  13 5.51225 3.60692   2
  -1   0 -13 446.621 14.5763   2
  -1   0 -13 428.958 13.8080   2
   1   0  13 432.290 12.6469   1
   1   0  13 427.586 14.5499   2
  -2   0 -13 61.9245 6.25749   2
  -2   0 -13 65.1133 4.39510   2
   2   0  13 55.3345 5.88910   2
   2   0  13 70.1822 3.25704   1
  -3   0 -13 481.191 15.0937   2
  -3   0 -13 455.719 14.2378   2
   3   0  13 443.020 14.8929   2
   3   0  13 452.157 13.0044   1
  -4   0 -13 339.393 11.3360   2
  -4   0 -13 311.539 11.9146   2
   4   0  13 331.897 9.94260   1
   4   0  13 309.189 12.1626   2
  -5   0 -13 169.940 7.54458   2
  -5   0 -13 152.099 8.72537   2
   5   0  13 161.404 6.17936   1
   5   0  13 159.722 9.59447   2
  -6   0 -13 8.73044 4.40358   2
  -6   0 -13 10.6804 2.60786   2
   6   0  13 13.3564 2.30246   1
  -7   0 -13 84.0954 6.19101   2
   7   0  13 102.185 5.64280   1
  -8   0 -13 93.6338 7.45442   2
   8   0  13 112.973 6.72066   1
  -5   1  13 61.9126 8.10248   2
   4  -1 -13 191.690 9.97833   2
  -4   1  13 183.264 9.59682   2
   3  -1 -13 17.5254 3.79809   2
  -3   1  13 30.8261 5.47480   1
  -3   1  13 27.9349 3.97406   2
   2  -1 -13 15.8417 4.92924   2
   2  -1 -13 19.3808 3.15787   2
  -2   1  13 23.3233 3.45076   2
   1  -1 -13 1215.35 32.0018   2
   1  -1 -13 1187.39 31.7816   2
  -1   1  13 1152.39 32.1759   2
  -1   1  13 1172.47 31.1827   2
   0  -1 -13 145.312 8.32316   2
   0  -1 -13 147.151 7.03743   2
   0   1  13 137.899 8.68822   2
  -1  -1 -13 1.39439 1.80522   2
  -1  -1 -13 7.40301 3.38131   2
   1   1  13 8.33346 3.65040   2
   1   1  13 2.83648 1.41499   1
  -2  -1 -13 160.799 8.33283   2
   2   1  13 130.126 8.07849   2
   2   1  13 156.858 5.88694   1
  -3  -1 -13 706.010 20.4138   2
  -3  -1 -13 716.687 20.3318   2
   3   1  13 649.700 20.3743   2
   3   1  13 712.396 19.5294   1
  -4  -1 -13 152.218 8.31574   2
  -4  -1 -13 145.317 6.76518   2
   4   1  13 155.929 8.89070   2
   4   1  13 151.551 5.92594   1
  -5  -1 -13 3.37508 3.71678   2
  -5  -1 -13 4.41737 2.11781   2
   5   1  13 5.36148 1.67081   1
   5   1  13 2.55813 4.03273   2
  -6  -1 -13 1.89089 2.30846   2
  -6  -1 -13 4.69815 4.31498   2
   6   1  13 5.37375 1.97315   1
  -7  -1 -13 9.55742 3.19742   2
  -8  -1 -13 23.5972 4.23477   2
   8   1  13 22.2800 3.61385   1
  -9  -1 -13 243.945 13.4017   2
   9   1  13 257.163 11.3982   1
  10   1  13 -0.5143 5.76235   1
   4  -2 -13 19.5228 4.71467   2
  -4   2  13 31.7165 4.62283   2
   3  -2 -13 298.225 12.1242   2
  -3   2  13 295.438 11.7089   2
   2  -2 -13 196.951 9.14115   2
  -2   2  13 191.195 8.74207   2
   1  -2 -13 369.362 12.8920   2
   1  -2 -13 345.543 13.5183   2
  -1   2  13 355.549 14.1685   2
  -1   2  13 352.044 12.2699   2
   0  -2 -13 64.5178 6.58584   2
   0  -2 -13 59.1301 4.71804   2
   0   2  13 64.4725 7.37844   2
  -1  -2 -13 235.783 10.3879   2
   1   2  13 250.303 10.9847   2
   1   2  13 252.020 8.93297   1
  -2  -2 -13 30.8405 4.51885   2
   2   2  13 28.4020 4.70434   2
   2   2  13 25.7724 2.83532   1
  -3  -2 -13 240.734 10.2070   2
   3   2  13 237.719 8.51207   1
   3   2  13 241.209 10.6557   2
  -4  -2 -13 96.9412 7.27230   2
  -4  -2 -13 103.036 5.75345   2
   4   2  13 107.114 5.08957   1
   4   2  13 98.9542 8.06506   2
  -5  -2 -13 129.744 8.47605   2
  -5  -2 -13 129.842 6.59157   2
   5   2  13 121.617 9.27771   2
   5   2  13 131.005 5.88782   1
  -6  -2 -13 -0.4516 4.45393   2
  -6  -2 -13 5.42778 2.48949   2
   6   2  13 9.87396 2.42370   1
   6   2  13 17.0599 5.62530   2
  -7  -2 -13 46.8795 5.74133   2
   7   2  13 54.5930 4.72392   1
  -8  -2 -13 -1.7335 3.57811   2
   8   2  13 5.31799 3.12557   1
  -9  -2 -13 228.350 12.3378   2
   9   2  13 250.299 11.3247   1
   4  -3 -13 19.8487 5.09698   2
  -4   3  13 18.7916 4.33043   2
   3  -3 -13 314.782 12.9714   2
  -3   3  13 311.895 12.4667   2
   2  -3 -13 196.227 9.48354   2
  -2   3  13 185.709 8.72498   2
   1  -3 -13 214.428 9.35184   2
  -1   3  13 222.883 9.24414   2
  -1   3  13 219.756 11.8104   2
   0  -3 -13 -2.0511 2.10452   2
   0  -3 -13 5.99818 3.89211   2
   0   3  13 1.81753 4.42614   2
  -1  -3 -13 387.803 14.0039   2
   1   3  13 386.756 14.4813   2
   1   3  13 388.523 12.9171   1
  -2  -3 -13 29.1446 4.58271   2
   2   3  13 24.3870 3.20860   1
   2   3  13 27.9317 4.98206   2
  -3  -3 -13 15.0862 3.94122   2
   3   3  13 12.6878 4.37184   2
   3   3  13 14.5796 2.56572   1
  -4  -3 -13 80.3682 5.47082   2
  -4  -3 -13 75.7414 7.43480   2
   4   3  13 75.9795 7.92633   2
   4   3  13 91.9286 4.87181   1
  -5  -3 -13 162.882 7.61599   2
  -5  -3 -13 131.715 9.19723   2
   5   3  13 160.533 10.2707   2
  -6  -3 -13 3.80857 2.57677   2
   6   3  13 10.5499 5.97731   2
   6   3  13 8.50133 2.38956   1
  -7  -3 -13 250.146 10.9654   2
   7   3  13 253.588 10.0959   1
  -8  -3 -13 26.3053 4.78389   2
  -9  -3 -13 191.706 11.7031   2
   9   3  13 202.471 10.8243   1
   4  -4 -13 104.944 10.1194   2
   3  -4 -13 401.981 15.4444   2
  -3   4  13 418.618 14.8331   2
   2  -4 -13 141.280 8.28601   2
  -2   4  13 126.659 7.09028   2
   1  -4 -13 24.1399 3.72907   2
  -1   4  13 30.3593 6.60399   2
  -1   4  13 32.3739 4.28729   2
   0   4  13 14.7247 5.52831   2
  -1  -4 -13 262.090 11.7043   2
   1   4  13 266.681 10.2041   1
   1   4  13 268.940 12.5660   2
  -2  -4 -13 109.377 8.06904   2
  -2  -4 -13 118.381 6.67932   2
   2   4  13 122.175 9.04002   2
  -3  -4 -13 27.0958 4.67630   2
   3   4  13 36.8427 5.77527   2
   3   4  13 24.9480 3.96814   1
   4   4  13 67.4244 4.55178   1
   4   4  13 49.7848 6.36812   2
  -5  -4 -13 12.7397 3.11390   2
   5   4  13 15.7213 5.78382   2
   5   4  13 14.2605 2.68457   1
  -6  -4 -13 43.1737 5.50728   2
   6   4  13 24.8467 7.51789   2
   6   4  13 40.5245 4.44994   1
  -7  -4 -13 448.893 15.8576   2
   7   4  13 460.983 15.6736   1
  -8  -4 -13 32.2832 5.41789   2
   8   4  13 39.0982 5.21306   1
  -9  -4 -13 -3.2249 5.41045   2
   4  -5 -13 333.323 15.7614   2
   3  -5 -13 130.024 9.53313   2
  -3   5  13 116.067 8.04407   2
   2  -5 -13 8.53535 3.67935   2
  -2   5  13 7.22702 2.96069   2
   1  -5 -13 60.1114 6.18353   2
  -1   5  13 47.9652 7.74914   2
   0  -5 -13 4.29682 2.98193   2
   0   5  13 3.06857 5.81841   2
   1   5  13 90.9912 10.4194   2
   1   5  13 105.740 6.38617   1
  -2  -5 -13 270.980 10.4760   2
   2   5  13 260.187 12.8659   2
   2   5  13 259.884 10.4366   1
  -3  -5 -13 30.4873 4.16927   2
   3   5  13 26.6574 3.78558   1
   3   5  13 17.5556 5.92126   2
   4   5  13 50.0529 4.38796   1
   4   5  13 40.2680 6.71366   2
  -5  -5 -13 55.7605 5.52448   2
   5   5  13 56.6116 7.87330   2
   5   5  13 52.5667 4.73354   1
  -6  -5 -13 191.338 9.43273   2
   6   5  13 186.165 8.80554   1
  -7  -5 -13 355.023 14.0699   2
   7   5  13 377.693 14.1404   1
  -8  -5 -13 66.0388 8.58632   2
   8   5  13 61.1221 6.69672   1
  -9  -5 -13 58.1496 8.15245   2
   3  -6 -13 14.0048 5.56825   2
   2  -6 -13 65.7429 8.08918   2
  -2   6  13 75.0975 6.86120   2
   1  -6 -13 13.5576 3.76239   2
  -1   6  13 11.5154 7.68460   2
   0  -6 -13 20.4556 4.22080   2
   0   6  13 18.8934 7.12136   2
   1   6  13 1.44606 2.69823   1
   1   6  13 -2.3213 6.12369   2
  -2  -6 -13 362.397 12.9226   2
   2   6  13 367.582 16.0368   2
   2   6  13 372.626 13.7079   1
  -3  -6 -13 3.36205 2.88357   2
   3   6  13 0.73997 2.38618   1
   3   6  13 6.07884 6.17847   2
   4   6  13 10.9666 6.53684   2
   4   6  13 12.6386 3.00766   1
  -5  -6 -13 450.365 15.3988   2
   5   6  13 454.479 19.5838   2
   5   6  13 464.235 16.0364   1
  -6  -6 -13 306.484 12.6052   2
   6   6  13 294.261 12.0848   1
  -7  -6 -13 36.6136 5.64543   2
   7   6  13 42.0110 5.58665   1
  -8  -6 -13 8.28751 5.70949   2
   1  -7 -13 17.9854 4.79412   2
   0   7  13 195.214 10.2000   1
  -1  -7 -13 3.63704 3.53168   2
   1   7  13 4.79430 7.74514   2
   1   7  13 4.68950 3.39297   1
  -2  -7 -13 244.956 10.5270   2
   2   7  13 254.307 10.9617   1
   2   7  13 245.017 15.9674   2
  -3  -7 -13 57.8084 6.11613   2
   3   7  13 38.8576 5.66227   1
   3   7  13 36.8766 8.13961   2
   4   7  13 252.686 11.0736   1
   4   7  13 204.254 16.7810   2
  -5  -7 -13 316.593 12.7963   2
   5   7  13 317.086 12.7421   1
  -6  -7 -13 202.420 11.4799   2
   6   7  13 235.064 12.3553   1
   2   8  13 31.9929 5.07614   1
   3   8  13 161.307 9.45065   1
   0   8 -14 4.22713 3.62097   2
  -1   8 -14 10.3539 3.24698   2
  -2   8 -14 20.1383 3.58667   2
  -3   8 -14 103.432 7.06061   2
  -4   8 -14 15.6418 4.16914   2
   1   7 -14 11.4943 4.03824   2
   0   7 -14 42.2100 5.77044   2
  -1   7 -14 69.7839 5.80735   2
  -3   7 -14 83.0243 6.02310   2
  -4   7 -14 2.78052 3.19896   2
  -5   7 -14 257.631 10.5815   2
   1   6 -14 15.5587 3.59225   2
  -1   6 -14 73.3552 5.64707   2
  -2   6 -14 242.386 9.25259   2
  -3   6 -14 7.22551 2.64327   2
  -4   6 -14 1.31426 2.81545   2
   2   5 -14 10.5311 3.52466   2
   1   5 -14 12.7114 3.23136   2
   0   5 -14 249.495 9.73262   2
  -1   5 -14 191.047 8.08134   2
  -1   5 -14 172.924 10.0057   2
  -2   5 -14 82.5939 5.34293   2
  -2   5 -14 82.0145 8.20971   2
  -3   5 -14 254.307 11.9905   2
  -3   5 -14 273.500 9.85044   2
  -4   5 -14 113.436 6.41515   2
  -5   5 -14 326.888 11.9075   2
  -6   5 -14 4.23702 3.39071   2
   2   4 -14 29.2654 4.40529   2
   1   4 -14 31.2765 4.56372   2
   1   4 -14 37.2761 6.11701   2
   0   4 -14 778.824 23.3141   2
   0   4 -14 805.059 22.4995   2
  -1   4 -14 0.61471 4.19540   2
  -2   4 -14 -2.9543 1.97712   2
  -3   4 -14 354.041 11.8743   2
  -4   4 -14 128.623 6.63174   2
  -4   4 -14 128.429 9.59866   2
  -5   4 -14 73.6512 5.70232   2
  -5   4 -14 77.0500 9.47746   2
  -6   4 -14 -0.0282 2.97430   2
  -7   4 -14 146.502 8.25880   2
   3   3 -14 -2.4030 3.46129   2
  -3  -3  14 -0.2022 3.52168   2
   2   3 -14 419.376 16.9066   2
   2   3 -14 404.686 14.5436   2
  -2  -3  14 409.779 13.8731   2
   1   3 -14 6.10941 5.06472   2
   1   3 -14 11.6896 2.71572   2
   0   3 -14 333.169 11.6933   2
   0   3 -14 340.403 13.3198   2
  -1   3 -14 130.885 8.67595   2
  -1   3 -14 130.011 6.69990   2
  -2   3 -14 254.293 11.1829   2
  -2   3 -14 239.690 9.40420   2
  -3   3 -14 601.909 18.8304   2
  -3   3 -14 608.018 17.8861   2
  -4   3 -14 57.1661 4.72356   2
  -4   3 -14 54.9871 7.62803   2
  -5   3 -14 -3.6519 4.69642   2
  -5   3 -14 1.21300 2.30879   2
  -6   3 -14 31.2169 6.60810   2
  -6   3 -14 23.9766 4.06465   2
  -7   3 -14 101.318 7.37687   2
  -4  -2  14 9.04357 4.74740   2
   3   2 -14 8.85213 3.52673   2
  -3  -2  14 8.31989 3.56966   2
   2   2 -14 898.747 26.0295   2
   2   2 -14 908.009 27.0637   2
  -2  -2  14 903.830 25.3850   2
   1   2 -14 4.67929 2.37549   2
   1   2 -14 2.32337 4.74250   2
  -1  -2  14 6.78276 2.52458   1
   0   2 -14 23.7792 3.53746   2
   0   2 -14 26.3406 5.15964   2
   0  -2  14 24.1212 2.49990   1
  -1   2 -14 133.090 6.74224   2
  -1   2 -14 133.513 8.65985   2
  -2   2 -14 397.294 12.9656   2
  -2   2 -14 392.129 14.0171   2
   2  -2  14 378.768 14.0739   2
  -3   2 -14 85.7396 5.43556   2
  -3   2 -14 94.4432 7.50907   2
   3  -2  14 93.3222 8.48056   2
  -4   2 -14 0.62470 3.95786   2
  -4   2 -14 -1.5661 1.91858   2
  -5   2 -14 35.1508 4.31994   2
  -5   2 -14 32.4294 5.66253   2
  -6   2 -14 10.5326 5.72313   2
  -6   2 -14 15.0039 2.90914   2
  -7   2 -14 15.3823 7.29011   2
  -5  -1  14 69.9577 8.40772   2
  -4  -1  14 173.163 10.3323   2
   3   1 -14 7.81908 3.78700   2
  -3  -1  14 12.6921 3.65344   2
   2   1 -14 541.238 19.3524   2
   2   1 -14 563.730 18.1785   2
  -2  -1  14 584.678 17.7303   2
  -2  -1  14 539.786 17.2265   1
   1   1 -14 19.9362 5.26329   2
  -1  -1  14 21.0729 3.35562   1
   0   1 -14 61.2294 5.05951   2
   0   1 -14 70.9363 7.39572   2
   0  -1  14 68.5867 4.40830   1
  -1   1 -14 95.2403 5.60927   2
  -1   1 -14 106.350 7.81521   2
   1  -1  14 108.530 3.90270   1
   1  -1  14 95.9920 7.61959   2
  -2   1 -14 182.780 7.94772   2
  -2   1 -14 186.961 9.37023   2
   2  -1  14 179.790 5.54086   1
   2  -1  14 176.919 9.49206   2
  -3   1 -14 118.597 6.28602   2
  -3   1 -14 116.413 8.26296   2
   3  -1  14 113.728 8.43590   2
   3  -1  14 121.908 4.08467   1
  -4   1 -14 123.600 6.50638   2
  -4   1 -14 113.551 8.20896   2
   4  -1  14 120.101 8.96181   2
   4  -1  14 127.189 4.51428   1
  -5   1 -14 27.7938 3.47557   2
  -5   1 -14 17.5674 5.01691   2
   5  -1  14 29.9939 2.71075   1
  -6   1 -14 13.4814 3.09264   2
  -6   1 -14 12.5776 5.64379   2
   6  -1  14 11.3388 2.25864   1
  -7   1 -14 0.40559 2.99009   2
  -8   1 -14 341.143 13.9020   2
  -4   0  14 410.765 15.8808   2
   3   0 -14 103.077 7.75278   2
  -3   0  14 82.0323 9.18938   1
  -3   0  14 96.7562 7.17088   2
   2   0 -14 132.195 8.03294   2
  -2   0  14 138.858 8.21170   1
  -2   0  14 138.217 7.38516   2
   1   0 -14 -2.0190 4.50239   2
   1   0 -14 7.85897 2.66975   2
  -1   0  14 6.79154 2.39547   2
  -1   0  14 2.53209 2.91951   1
   0   0 -14 362.875 13.8311   2
   0   0 -14 356.852 12.7318   2
  -1   0 -14 80.7717 7.47766   2
  -1   0 -14 80.7498 5.42222   2
   1   0  14 88.9412 4.03113   1
   1   0  14 72.3117 8.07176   2
  -2   0 -14 2.09421 1.86667   2
  -2   0 -14 0.49932 3.64443   2
   2   0  14 2.48753 1.21944   1
   2   0  14 -2.6910 3.78662   2
  -3   0 -14 103.539 7.71933   2
  -3   0 -14 103.066 5.66478   2
   3   0  14 72.5230 7.59876   2
   3   0  14 105.549 4.26680   1
  -4   0 -14 162.521 7.38829   2
  -4   0 -14 166.614 9.33650   2
   4   0  14 154.061 9.55474   2
   4   0  14 170.631 6.03032   1
  -5   0 -14 -2.0947 2.08474   2
  -5   0 -14 -3.7064 4.22009   2
   5   0  14 1.01820 1.54957   1
  -6   0 -14 403.294 14.0129   2
  -6   0 -14 379.027 15.8221   2
   6   0  14 424.500 12.9247   1
  -7   0 -14 0.19976 2.93025   2
   7   0  14 6.75043 2.56464   1
  -8   0 -14 204.032 10.3550   2
   8   0  14 223.875 9.62335   1
   4  -1 -14 246.891 13.3169   2
  -4   1  14 252.869 12.3267   2
   3  -1 -14 17.1153 4.38424   2
  -3   1  14 17.5014 6.11584   1
  -3   1  14 25.6869 4.06653   2
   2  -1 -14 3.80709 2.97779   2
  -2   1  14 2.66054 4.28437   1
  -2   1  14 2.05283 2.65963   2
   1  -1 -14 2.21821 2.47854   2
   1  -1 -14 -0.9178 4.66188   2
  -1   1  14 5.34795 2.27515   2
   0  -1 -14 197.008 10.4881   2
   0  -1 -14 212.265 9.00570   2
   0   1  14 193.604 10.9464   2
  -1  -1 -14 109.632 8.34877   2
  -1  -1 -14 122.512 6.57708   2
   1   1  14 118.769 5.34114   1
   1   1  14 109.835 8.79146   2
  -2  -1 -14 72.1631 5.10872   2
  -2  -1 -14 73.1941 7.22332   2
   2   1  14 62.9963 7.75250   2
   2   1  14 78.6698 4.04729   1
  -3  -1 -14 30.7540 3.74924   2
  -3  -1 -14 35.5845 5.18538   2
   3   1  14 32.2028 5.39972   2
   3   1  14 42.8708 3.00819   1
  -4  -1 -14 4.05410 4.06620   2
  -4  -1 -14 5.10133 2.28590   2
   4   1  14 2.83900 4.27441   2
   4   1  14 3.16149 1.49441   1
  -5  -1 -14 11.7481 2.88905   2
  -5  -1 -14 -4.0079 4.32241   2
   5   1  14 10.9357 2.03597   1
  -6  -1 -14 620.447 19.0790   2
   6   1  14 606.666 18.2069   1
  -7  -1 -14 41.9767 5.38626   2
   7   1  14 29.6908 4.33687   1
  -8  -1 -14 50.0618 6.90009   2
   8   1  14 51.3882 5.88182   1
   9   1  14 99.7159 8.48326   1
   4  -2 -14 196.934 11.5828   2
  -4   2  14 232.010 11.6378   2
   3  -2 -14 5.91439 3.87058   2
  -3   2  14 8.52578 3.73323   2
   2  -2 -14 88.8655 6.89908   2
  -2   2  14 99.4002 6.46257   2
   1  -2 -14 24.7726 3.74351   2
  -1   2  14 16.1143 3.32488   2
   0  -2 -14 35.9671 5.58968   2
   0   2  14 33.6365 6.35793   2
  -1  -2 -14 201.551 10.6218   2
  -1  -2 -14 241.225 9.52880   2
   1   2  14 215.580 11.3321   2
   1   2  14 241.185 8.73000   1
  -2  -2 -14 113.354 6.56982   2
  -2  -2 -14 124.763 8.70673   2
   2   2  14 129.870 5.78244   1
   2   2  14 119.084 9.29475   2
  -3  -2 -14 48.6292 6.91402   2
  -3  -2 -14 41.5441 4.31899   2
   3   2  14 45.6652 6.12172   2
   3   2  14 54.3474 3.73406   1
  -4  -2 -14 163.481 7.57075   2
  -4  -2 -14 148.393 9.67879   2
   4   2  14 151.964 10.2867   2
   4   2  14 160.601 6.66199   1
  -5  -2 -14 94.0283 6.21742   2
   5   2  14 95.1538 5.19791   1
  -6  -2 -14 519.940 16.8893   2
  -7  -2 -14 23.3999 4.12904   2
   7   2  14 21.7394 3.56370   1
  -8  -2 -14 36.0235 5.39348   2
   8   2  14 48.9605 6.09767   1
   9   2  14 56.2154 7.86923   1
   4  -3 -14 29.5253 6.40706   2
   3  -3 -14 22.1486 4.81935   2
  -3   3  14 27.4140 4.62353   2
   2  -3 -14 51.8136 6.38051   2
  -2   3  14 42.3106 5.85729   2
   1  -3 -14 83.1874 6.34145   2
  -1   3  14 79.6815 5.97947   2
   0   3  14 5.97621 5.43975   2
  -1  -3 -14 446.885 14.7868   2
   1   3  14 424.768 14.5554   1
   1   3  14 424.422 16.5074   2
  -2  -3 -14 13.5369 4.72009   2
  -2  -3 -14 13.2118 2.79033   2
   2   3  14 20.7294 2.94235   1
   2   3  14 19.2330 5.49828   2
  -3  -3 -14 -3.5941 4.43530   2
  -3  -3 -14 -0.0498 2.19691   2
   3   3  14 -10.179 4.52606   2
   3   3  14 -2.9736 1.64971   1
  -4  -3 -14 405.222 13.5376   2
   4   3  14 363.695 15.3618   2
   4   3  14 400.524 13.9427   1
  -5  -3 -14 104.349 6.37569   2
   5   3  14 100.926 5.71441   1
  -6  -3 -14 273.203 11.2238   2
   6   3  14 274.752 10.4292   1
  -7  -3 -14 16.2024 3.94026   2
   7   3  14 22.7051 3.66548   1
  -8  -3 -14 235.908 12.2657   2
   8   3  14 276.422 11.5018   1
   9   3  14 43.2688 6.39454   1
   4  -4 -14 -2.0707 6.98475   2
   3  -4 -14 33.5345 5.97726   2
   2  -4 -14 21.7790 4.43762   2
  -2   4  14 13.2014 3.49637   2
   1  -4 -14 140.855 8.14318   2
   0  -4 -14 11.6780 3.45521   2
   0   4  14 10.1532 6.61155   2
  -1  -4 -14 346.152 12.8295   2
   1   4  14 340.931 12.4051   1
   1   4  14 338.414 15.3518   2
  -2  -4 -14 51.6517 5.34625   2
   2   4  14 46.9726 4.64014   1
   2   4  14 46.1122 7.00524   2
  -3  -4 -14 91.8378 6.21361   2
   3   4  14 83.0154 10.2541   2
   3   4  14 78.0619 5.43992   1
  -4  -4 -14 799.000 23.0132   2
   4   4  14 781.691 25.0633   2
   4   4  14 805.114 23.6182   1
  -5  -4 -14 351.904 12.9985   2
   5   4  14 347.590 12.5122   1
  -6  -4 -14 1.39084 3.28754   2
   6   4  14 7.48757 3.04167   1
  -7  -4 -14 9.44212 4.15393   2
   7   4  14 18.0382 3.59945   1
  -8  -4 -14 362.255 15.0055   2
   8   4  14 342.962 14.1199   1
   3  -5 -14 21.8111 6.02110   2
   2  -5 -14 -3.3767 4.28192   2
  -2   5  14 2.59715 3.64303   2
   1  -5 -14 500.531 17.2793   2
   0  -5 -14 -0.8486 3.35002   2
   0   5  14 5.93926 7.02939   2
  -1  -5 -14 38.9644 5.78112   2
   1   5  14 41.2529 8.00846   2
   1   5  14 50.5822 5.35104   1
  -2  -5 -14 134.027 7.54803   2
   2   5  14 132.823 7.32103   1
   2   5  14 138.511 12.2078   2
  -3  -5 -14 470.148 15.6676   2
   3   5  14 479.872 16.0988   1
   3   5  14 465.191 19.1261   2
  -4  -5 -14 282.755 11.2550   2
   4   5  14 282.522 11.1865   1
   4   5  14 279.680 15.5907   2
  -5  -5 -14 33.3980 4.45729   2
   5   5  14 36.5028 4.97987   1
  -6  -5 -14 61.2738 7.15392   2
   6   5  14 75.6775 6.12634   1
  -7  -5 -14 -1.2727 4.52393   2
   7   5  14 6.33248 4.02814   1
  -8  -5 -14 128.180 11.0384   2
   2  -6 -14 3.07335 4.99253   2
   1  -6 -14 528.169 18.4673   2
   0  -6 -14 2.76487 3.77382   2
   0   6  14 16.2208 3.99330   1
  -1  -6 -14 0.78735 3.20665   2
   1   6  14 5.02095 3.33965   1
   1   6  14 1.86564 7.84813   2
  -2  -6 -14 356.841 13.1396   2
   2   6  14 333.180 17.5891   2
   2   6  14 351.135 13.3331   1
  -3  -6 -14 299.606 11.8720   2
   3   6  14 279.747 11.6677   1
   3   6  14 254.381 16.1404   2
  -4  -6 -14 22.6480 4.17321   2
   4   6  14 12.8240 8.31549   2
   4   6  14 29.2518 4.64036   1
  -5  -6 -14 3.31346 3.81635   2
   5   6  14 9.69499 3.49437   1
  -6  -6 -14 144.961 9.64053   2
   6   6  14 147.664 8.64791   1
  -7  -6 -14 0.01351 5.02677   2
   0  -7 -14 44.9403 5.70972   2
   0   7  14 53.5416 7.28043   1
  -1  -7 -14 401.529 15.0129   2
   1   7  14 399.014 15.8579   1
  -2  -7 -14 55.7473 7.24397   2
   2   7  14 73.4840 7.09999   1
  -3  -7 -14 168.843 9.24723   2
   3   7  14 158.349 9.30386   1
  -4  -7 -14 -0.6877 4.14661   2
   4   7  14 -0.3825 3.59157   1
  -5  -7 -14 23.7629 5.34227   2
   5   7  14 22.2677 4.97539   1
  -1   7 -15 10.3553 3.70771   2
  -3   7 -15 12.4423 3.69163   2
   0   6 -15 14.2353 3.83047   2
  -1   6 -15 41.9084 5.77311   2
  -2   6 -15 289.335 10.8409   2
  -3   6 -15 20.2284 3.60784   2
  -4   6 -15 0.31145 3.25214   2
   1   5 -15 26.9786 4.48404   2
   0   5 -15 156.089 8.26731   2
  -1   5 -15 124.570 7.36296   2
  -2   5 -15 192.241 8.59846   2
  -4   5 -15 21.8608 3.46192   2
  -5   5 -15 11.4368 3.40401   2
   1   4 -15 9.27675 3.27213   2
   0   4 -15 94.8230 6.32340   2
  -1   4 -15 118.086 7.06142   2
  -1   4 -15 129.489 10.4935   2
  -2   4 -15 33.7510 4.62945   2
  -2   4 -15 37.6193 6.37412   2
  -3   4 -15 88.8698 9.92087   2
  -3   4 -15 80.5832 5.66608   2
  -4   4 -15 13.4206 2.89893   2
  -5   4 -15 -0.9143 2.76866   2
  -6   4 -15 22.0842 4.13458   2
   2   3 -15 16.8903 3.91156   2
   1   3 -15 141.576 7.71706   2
   1   3 -15 139.101 12.4467   2
   0   3 -15 99.6879 10.4086   2
   0   3 -15 98.8672 6.38121   2
  -1   3 -15 -0.1898 2.37195   2
  -1   3 -15 5.40785 4.88750   2
  -2   3 -15 26.7622 3.59685   2
  -2   3 -15 22.1817 5.59233   2
  -3   3 -15 47.6948 5.04519   2
  -3   3 -15 64.7113 9.29923   2
  -4   3 -15 19.0182 5.68159   2
  -4   3 -15 22.2997 3.43292   2
  -5   3 -15 228.985 9.71548   2
  -5   3 -15 221.425 12.9178   2
  -6   3 -15 33.0216 4.26795   2
  -3  -2  15 14.0550 4.68207   2
   2   2 -15 4.56099 3.30225   2
  -2  -2  15 -0.7370 3.29935   2
   1   2 -15 194.156 13.1485   2
   1   2 -15 205.615 9.46183   2
   0   2 -15 42.1194 6.74100   2
   0   2 -15 45.3675 4.80174   2
  -1   2 -15 63.1330 8.34360   2
  -1   2 -15 64.7009 5.35006   2
  -2   2 -15 38.9222 4.50027   2
  -2   2 -15 34.0787 6.00609   2
  -3   2 -15 80.9876 9.31511   2
  -3   2 -15 68.8300 5.39571   2
  -4   2 -15 27.1989 3.49173   2
  -4   2 -15 27.9930 5.96748   2
  -5   2 -15 610.126 20.7456   2
  -5   2 -15 605.592 18.5453   2
  -6   2 -15 -5.1325 2.86676   2
  -6   2 -15 -1.8891 6.52663   2
  -7   2 -15 60.1705 6.88636   2
  -4  -1  15 0.46525 5.57086   2
  -3  -1  15 26.9348 4.91310   2
   2   1 -15 7.16254 3.42666   2
  -2  -1  15 1.18233 3.41605   2
   1   1 -15 3.98460 2.83074   2
   1   1 -15 -8.0590 5.63172   2
   0   1 -15 190.454 9.01558   2
   0   1 -15 190.103 11.2782   2
   0  -1  15 209.079 6.79604   1
   0  -1  15 191.758 7.49650   1
  -1   1 -15 268.649 10.4947   2
  -1   1 -15 261.393 12.4812   2
   1  -1  15 248.628 8.15038   1
   1  -1  15 267.725 7.80234   1
  -2   1 -15 34.8194 5.95619   2
  -2   1 -15 23.8300 3.23805   2
   2  -1  15 33.8749 1.97544   1
  -3   1 -15 144.313 9.89713   2
  -3   1 -15 151.886 7.44783   2
  -4   1 -15 -5.4329 2.22012   2
  -4   1 -15 4.63762 5.11916   2
   4  -1  15 1.63894 1.18001   1
  -5   1 -15 584.527 20.2788   2
  -5   1 -15 623.732 18.8042   2
   5  -1  15 617.118 16.7385   1
  -6   1 -15 7.19138 2.99234   2
  -6   1 -15 2.46493 6.44186   2
  -7   1 -15 6.19379 3.49438   2
  -4   0  15 38.4755 6.22957   2
   3   0 -15 110.579 8.35738   2
  -3   0  15 84.5886 8.50833   2
   2   0 -15 11.7062 4.11182   2
  -2   0  15 14.3441 3.85111   2
   1   0 -15 4.16073 2.83249   2
  -1   0  15 4.15847 3.79043   1
   0   0 -15 247.247 12.6545   2
   0   0 -15 242.202 10.2196   2
   0   0  15 231.867 8.34242   1
  -1   0 -15 63.0103 8.27561   2
  -1   0 -15 59.9928 5.32268   2
   1   0  15 60.6705 3.60431   1
  -2   0 -15 4.13040 4.69111   2
  -2   0 -15 -1.0529 2.22317   2
   2   0  15 3.56452 1.38151   1
  -3   0 -15 483.604 15.2966   2
  -3   0 -15 442.817 16.4225   2
   3   0  15 463.594 13.3121   1
  -4   0 -15 46.8075 6.51613   2
  -4   0 -15 47.0907 4.65861   2
   4   0  15 45.8731 3.22011   1
  -5   0 -15 326.088 15.0377   2
  -5   0 -15 369.762 13.0689   2
   5   0  15 369.160 11.2325   1
  -6   0 -15 44.8817 5.24303   2
   6   0  15 53.2221 4.33447   1
  -7   0 -15 205.859 10.3849   2
   7   0  15 231.077 9.06132   1
   3  -1 -15 6.87524 4.59138   2
  -3   1  15 11.9834 4.54571   2
   2  -1 -15 132.618 8.55942   2
  -2   1  15 123.968 8.02026   2
   1  -1 -15 72.8558 6.18752   2
   0  -1 -15 280.023 11.3201   2
  -1  -1 -15 9.99078 4.96431   2
  -1  -1 -15 9.06944 2.80256   2
   1   1  15 6.81168 2.11581   1
  -2  -1 -15 9.81574 2.56604   2
  -2  -1 -15 9.87045 4.98267   2
   2   1  15 10.6937 2.10864   1
  -3  -1 -15 555.628 19.1528   2
  -3  -1 -15 598.819 18.0915   2
   3   1  15 592.483 16.8868   1
  -4  -1 -15 72.5420 5.50620   2
  -4  -1 -15 54.8281 6.96650   2
   4   1  15 60.6241 4.03809   1
  -5  -1 -15 11.6082 2.85900   2
   5   1  15 9.37044 2.20004   1
  -6  -1 -15 4.19167 3.04327   2
   6   1  15 8.46595 2.56340   1
  -7  -1 -15 289.772 12.4450   2
   7   1  15 301.924 11.1045   1
   8   1  15 57.9794 6.60926   1
   3  -2 -15 4.62107 4.97422   2
  -3   2  15 3.55988 4.37557   2
   2  -2 -15 476.247 17.4246   2
  -2   2  15 495.646 16.9555   2
   1  -2 -15 38.1655 4.74958   2
   0  -2 -15 149.438 7.93849   2
  -1  -2 -15 166.490 8.51751   2
   1   2  15 174.940 7.45963   1
  -2  -2 -15 178.241 8.27034   2
   2   2  15 175.667 7.35149   1
  -3  -2 -15 806.418 23.3747   2
   3   2  15 809.286 23.0046   1
  -4  -2 -15 77.4555 5.90563   2
   4   2  15 77.2643 4.78654   1
  -5  -2 -15 87.9655 6.30589   2
   5   2  15 74.1909 5.01325   1
  -6  -2 -15 18.1996 3.64479   2
   6   2  15 13.8486 2.84222   1
  -7  -2 -15 202.158 10.4741   2
   7   2  15 208.040 9.20222   1
   8   2  15 48.7362 6.53358   1
   3  -3 -15 11.3832 5.55206   2
   2  -3 -15 462.986 16.8070   2
  -2   3  15 459.341 16.5244   2
   1  -3 -15 8.07668 3.68641   2
   0  -3 -15 7.51197 3.29384   2
  -1  -3 -15 386.342 13.9242   2
   1   3  15 376.601 13.2136   1
  -2  -3 -15 303.357 11.7833   2
   2   3  15 299.787 11.3000   1
  -3  -3 -15 84.2641 6.28854   2
  -4  -3 -15 6.96999 2.87493   2
   4   3  15 4.79185 2.30713   1
  -5  -3 -15 205.523 9.52959   2
   5   3  15 190.402 8.38808   1
  -6  -3 -15 11.2322 3.52846   2
   6   3  15 13.7523 3.16814   1
  -7  -3 -15 -2.5004 4.12625   2
   7   3  15 -2.6653 3.15255   1
   8   3  15 56.3444 7.28061   1
   2  -4 -15 297.374 13.1790   2
   1  -4 -15 7.25735 3.93774   2
   0  -4 -15 65.7028 7.16903   2
  -1  -4 -15 330.353 12.9619   2
   1   4  15 342.605 12.6949   1
  -2  -4 -15 115.901 7.36337   2
   2   4  15 117.957 6.77551   1
  -3  -4 -15 3.04000 3.02444   2
   3   4  15 -1.0109 2.48928   1
  -4  -4 -15 99.6044 7.01952   2
   4   4  15 88.8562 6.04550   1
  -5  -4 -15 149.843 8.28270   2
   5   4  15 142.569 7.61228   1
  -6  -4 -15 9.63147 4.02892   2
   6   4  15 18.2224 3.71230   1
  -7  -4 -15 8.30737 4.80309   2
   7   4  15 12.2997 3.95659   1
   8   4  15 125.461 9.63476   1
   2  -5 -15 14.3399 5.82752   2
   1  -5 -15 72.8631 8.41236   2
   0  -5 -15 434.507 16.1558   2
   0   5  15 423.296 15.8172   1
  -1  -5 -15 61.1719 6.78004   2
   1   5  15 63.8242 6.28791   1
   2   5  15 5.09529 3.05176   1
  -3  -5 -15 1.96209 3.43538   2
   3   5  15 11.5157 3.01216   1
  -4  -5 -15 31.5536 4.44728   2
   4   5  15 31.3626 4.93901   1
  -5  -5 -15 1.50364 3.72409   2
   5   5  15 4.46382 3.53838   1
  -6  -5 -15 247.192 12.0616   2
   6   5  15 261.742 11.3104   1
  -7  -5 -15 1.79624 5.72860   2
   7   5  15 19.4100 4.91208   1
   1  -6 -15 39.2511 6.54208   2
   0  -6 -15 159.867 10.5722   2
   0   6  15 180.108 10.6106   1
  -1  -6 -15 12.9128 4.53331   2
   1   6  15 10.6893 4.60870   1
  -2  -6 -15 62.1451 7.44323   2
   2   6  15 55.7828 6.53113   1
  -3  -6 -15 5.43827 3.99897   2
   3   6  15 9.73142 3.61467   1
  -4  -6 -15 15.8274 4.32137   2
   4   6  15 4.09748 3.91390   1
  -5  -6 -15 18.3011 4.74758   2
   5   6  15 17.9381 4.55731   1
  -6  -6 -15 228.530 12.1537   2
  -1   5 -16 20.7814 4.21508   2
  -2   5 -16 15.0879 3.86637   2
  -3   5 -16 9.41036 3.42850   2
   0   4 -16 167.826 8.84607   2
  -1   4 -16 11.6590 3.33557   2
  -2   4 -16 14.8369 3.55036   2
  -3   4 -16 39.5477 5.43569   2
  -4   4 -16 536.782 17.0708   2
  -5   4 -16 -0.4708 3.97244   2
   0   3 -16 119.844 7.60831   2
  -1   3 -16 20.7863 6.97589   2
  -1   3 -16 20.2494 3.58427   2
  -2   3 -16 327.649 15.6165   2
  -2   3 -16 300.391 11.7397   2
  -3   3 -16 -3.6119 6.20098   2
  -4   3 -16 226.051 9.91640   2
  -5   3 -16 42.9327 5.46515   2
   1   2 -16 158.812 9.14500   2
   0   2 -16 -8.4931 6.58197   2
   0   2 -16 -0.2475 2.99921   2
  -1   2 -16 1.25294 5.88700   2
  -1   2 -16 -4.0353 2.75117   2
  -2   2 -16 615.472 19.0186   2
  -2   2 -16 617.815 21.3624   2
  -3   2 -16 3.39781 6.15650   2
  -3   2 -16 2.69285 2.80955   2
  -4   2 -16 84.9226 6.24811   2
  -4   2 -16 92.5810 11.0100   2
  -5   2 -16 3.20844 7.22214   2
  -5   2 -16 8.68067 3.44571   2
  -6   2 -16 233.211 10.7198   2
  -3  -1  16 204.763 12.1098   2
  -2  -1  16 114.499 8.23671   2
   1   1 -16 126.110 7.80750   2
   0   1 -16 161.342 8.80491   2
  -1   1 -16 14.6297 3.36321   2
  -1   1 -16 16.2972 6.69221   2
  -2   1 -16 463.364 18.0597   2
  -2   1 -16 501.801 16.2358   2
  -3   1 -16 14.1889 3.34410   2
  -3   1 -16 24.0162 6.54326   2
  -4   1 -16 74.3637 6.05738   2
  -4   1 -16 58.2444 8.23871   2
  -5   1 -16 34.7549 5.11060   2
  -6   1 -16 90.5443 7.25647   2
  -3   0  16 383.104 15.6027   2
  -2   0  16 7.32313 4.25127   2
   1   0 -16 1.49050 3.52905   2
   0   0 -16 249.391 11.2178   2
   0   0  16 264.636 9.10113   1
  -1   0 -16 99.3507 6.77140   2
   1   0  16 106.856 4.87481   1
  -2   0 -16 270.216 15.6820   2
  -2   0 -16 270.577 10.9842   2
   2   0  16 279.895 8.76014   1
  -3   0 -16 0.33454 2.66367   2
  -3   0 -16 -7.8300 6.06918   2
   3   0  16 -0.6711 1.50437   1
  -4   0 -16 175.324 8.31143   2
   4   0  16 166.009 6.23677   1
  -5   0 -16 46.6127 5.66106   2
   5   0  16 37.5108 3.59857   1
  -6   0 -16 33.0264 4.84474   2
  -2   1  16 2.45884 4.31710   2
   1  -1 -16 28.9338 4.65284   2
   0  -1 -16 381.293 14.6334   2
   0   1  16 403.161 13.0855   1
  -1  -1 -16 76.2092 6.44591   2
   1   1  16 86.5456 5.01770   1
  -2  -1 -16 7.91784 3.11281   2
   2   1  16 10.0255 2.26226   1
  -3  -1 -16 -5.1163 2.69548   2
   3   1  16 1.99251 1.82863   1
  -4  -1 -16 156.923 8.18875   2
   4   1  16 143.438 6.28396   1
  -5  -1 -16 44.4931 5.61349   2
   5   1  16 30.5617 3.89468   1
  -6  -1 -16 80.1319 7.51845   2
   6   1  16 84.6586 5.59412   1
  -7  -1 -16 62.4371 7.19256   2
   2  -2 -16 76.9904 9.75938   2
  -2   2  16 74.3557 7.99042   2
   1  -2 -16 127.528 9.34811   2
   0  -2 -16 299.793 12.5940   2
   0   2  16 290.538 11.1853   1
  -1  -2 -16 -2.2609 3.12439   2
  -2  -2 -16 45.4918 5.64775   2
   2   2  16 38.9848 4.15997   1
  -3  -2 -16 46.9533 5.92032   2
   3   2  16 69.9552 4.67552   1
  -4  -2 -16 15.9649 3.63534   2
   4   2  16 14.1521 2.68541   1
  -5  -2 -16 236.544 10.5091   2
   6   2  16 48.1575 5.20356   1
  -7  -2 -16 96.4072 8.66372   2
   7   2  16 115.373 7.33312   1
   1  -3 -16 157.604 9.91782   2
   0  -3 -16 14.3730 4.08100   2
   0   3  16 19.6130 4.09036   1
  -1  -3 -16 16.4814 4.17215   2
   1   3  16 26.3126 3.88822   1
  -2  -3 -16 7.17002 3.40602   2
   2   3  16 9.84988 2.78433   1
  -3  -3 -16 2.02255 3.16308   2
   3   3  16 3.23203 2.59779   1
  -4  -3 -16 8.45530 3.41723   2
   4   3  16 5.77782 2.86202   1
  -5  -3 -16 342.650 13.5679   2
  -6  -3 -16 16.3232 4.47785   2
   6   3  16 11.8298 3.46613   1
  -7  -3 -16 12.4391 5.10475   2
   7   3  16 -0.2560 3.93195   1
   1  -4 -16 9.86403 5.04663   2
   0  -4 -16 16.1261 4.37993   2
   0   4  16 9.48253 4.17048   1
  -1  -4 -16 161.659 9.90981   2
   1   4  16 176.009 9.03331   1
  -2  -4 -16 7.49971 3.77755   2
   2   4  16 9.55365 3.37555   1
  -3  -4 -16 141.551 8.77966   2
   3   4  16 143.609 7.73080   1
  -4  -4 -16 10.0870 3.68882   2
   4   4  16 3.30760 2.98645   1
  -5  -4 -16 368.506 14.1734   2
   5   4  16 367.463 13.5624   1
  -6  -4 -16 0.37170 4.41809   2
   6   4  16 -2.6825 3.64507   1
   7   4  16 67.8305 7.88026   1
   1  -5 -16 21.2694 5.94498   2
   0  -5 -16 72.2111 8.91972   2
   0   5  16 81.2800 8.22402   1
  -1  -5 -16 17.3570 4.74020   2
  -2  -5 -16 2.47663 4.30207   2
   2   5  16 1.85222 3.81352   1
  -3  -5 -16 347.327 14.2515   2
   3   5  16 354.105 13.5916   1
  -4  -5 -16 17.2514 4.54350   2
   4   5  16 7.03791 3.77310   1
  -5  -5 -16 54.8706 8.00998   2
   5   5  16 40.1024 6.56777   1
  -6  -5 -16 144.528 10.4548   2
   6   5  16 132.019 9.43954   1
   0  -6 -16 21.0324 6.63009   2
  -1  -6 -16 78.0105 8.88709   2
   1   6  16 60.7599 9.77466   1
  -2  -6 -16 57.0425 6.49013   2
   2   6  16 47.9891 6.22242   1
  -3  -6 -16 497.317 17.8850   2
   3   6  16 471.810 17.6209   1
  -4  -6 -16 28.4159 5.76703   2
   4   6  16 20.3560 4.67408   1
  -5  -6 -16 2.93412 5.36775   2
  -2   3 -17 -4.4315 3.80789   2
  -3   3 -17 48.0661 6.22438   2
  -1   2 -17 37.2851 4.79887   2
  -2   2 -17 -5.2391 3.26175   2
  -2   2 -17 -1.1009 7.73235   2
  -3   2 -17 174.056 15.2610   2
  -3   2 -17 139.227 7.93359   2
  -4   2 -17 85.5675 6.98229   2
  -1   1 -17 13.8491 3.97448   2
  -2   1 -17 1.20371 3.21490   2
  -3   1 -17 1.02960 3.34316   2
  -4   1 -17 68.5486 6.72671   2
  -5   1 -17 142.669 8.48004   2
   0   0 -17 61.3815 7.53398   2
  -1   0 -17 32.0604 4.73094   2
  -2   0 -17 14.7629 3.76868   2
  -3   0 -17 18.1637 3.70330   2
  -4   0 -17 286.258 11.7733   2
  -5   0 -17 89.1607 7.64114   2
   0  -1 -17 73.4948 7.88537   2
  -1  -1 -17 0.10907 3.61241   2
  -2  -1 -17 88.9443 7.63637   2
   2   1  17 114.762 6.25409   1
  -3  -1 -17 51.3480 6.53484   2
   3   1  17 59.4022 4.93290   1
  -4  -1 -17 340.280 13.2019   2
  -5  -1 -17 7.03828 3.84939   2
   0  -2 -17 95.6092 8.69023   2
   0   2  17 81.2698 6.76658   1
  -1  -2 -17 -3.3933 3.96033   2
   1   2  17 1.07831 2.90753   1
  -2  -2 -17 339.023 13.4222   2
  -3  -2 -17 13.5472 4.06251   2
  -4  -2 -17 135.345 8.46000   2
   5   2  17 51.0755 5.29434   1
   0  -3 -17 4.39621 4.87707   2
   0   3  17 4.25639 3.98058   1
  -1  -3 -17 -1.5613 4.30468   2
   1   3  17 7.57655 3.86332   1
  -2  -3 -17 531.958 18.4746   2
   2   3  17 533.361 17.3211   1
  -3  -3 -17 0.06906 3.82706   2
   3   3  17 2.15501 3.10619   1
  -4  -3 -17 -3.8440 3.86193   2
   4   3  17 -0.0856 3.34354   1
  -5  -3 -17 172.284 10.2591   2
   5   3  17 156.822 8.32839   1
   6   3  17 190.195 9.89608   1
   0  -4 -17 302.451 14.3786   2
   0   4  17 328.468 13.7921   1
  -1  -4 -17 17.3866 5.22306   2
   1   4  17 15.7260 4.42817   1
  -2  -4 -17 331.390 14.0091   2
   2   4  17 354.474 13.5317   1
  -3  -4 -17 13.9501 4.79779   2
   3   4  17 11.2494 3.81904   1
  -4  -4 -17 82.9708 8.23026   2
   4   4  17 59.0032 6.41256   1
  -5  -4 -17 211.254 11.4782   2
   5   4  17 191.360 9.88454   1
   6   4  17 88.5581 8.06477   1
  -1  -5 -17 35.7485 6.41154   2
   1   5  17 32.3921 5.74381   1
  -2  -5 -17 30.8657 5.91894   2
   2   5  17 28.6370 5.33074   1
  -3  -5 -17 37.0057 6.29846   2
   3   5  17 59.5203 7.45458   1
  -4  -5 -17 242.226 12.6823   2
   4   5  17 229.970 11.1911   1
  -5  -5 -17 12.7676 5.80589   2
   5   5  17 17.6290 5.23920   1
  -2  -6 -17 -2.6149 6.25911   2
  -3  -6 -17 11.7578 6.18353   2
   0   0   0    0.00    0.00   0
;
_shelx_hkl_checksum              23657
_shelx_res_file
;
TITL Quest14mz013_0m in P-1
    Quest14mz013_I.res
    created by SHELXL-2018/1 at 08:41:29 on 22-Feb-2018
CELL 0.71073   7.2911    8.1724   12.5766   89.1090   74.2345   87.4815
ZERR    2.00   0.0003    0.0003    0.0005    0.0013    0.0013    0.0013
LATT  1
SFAC C H CD I N O
UNIT 16 20 2 4 12 4
LIST 4 ! automatically inserted. Change 6 to 4 for CHECKCIF!!
TEMP -173.130
SIZE 0.09 0.16 0.37
L.S. 4
BOND $H
ACTA 50
CONF
HTAB
FMAP 2
PLAN 20
WGHT    0.007700    1.397300
FVAR       0.32144
CD1   3    0.876085    0.143758    0.251611    11.00000    0.01133    0.01104 =
         0.01197   -0.00056   -0.00382    0.00050
I1    4    0.597732   -0.083831    0.324975    11.00000    0.00921    0.01284 =
         0.01333   -0.00055   -0.00230   -0.00011
I2    4    1.191555   -0.038878    0.128516    11.00000    0.00990    0.01115 =
         0.01762   -0.00161   -0.00193   -0.00074
N1A   5    0.699830    0.425324    0.552406    11.00000    0.01040    0.01437 =
         0.01171   -0.00221   -0.00276    0.00209
AFIX  43
H1A   2    0.597896    0.490643    0.575526    11.00000   -1.20000
AFIX   0
C2A   1    0.732368    0.348681    0.452083    11.00000    0.01050    0.01287 =
         0.01165   -0.00102   -0.00276    0.00060
N3A   5    0.893823    0.250219    0.415264    11.00000    0.01106    0.01020 =
         0.01230   -0.00027   -0.00262    0.00183
C4A   1    1.017629    0.230432    0.477161    11.00000    0.00938    0.01233 =
         0.01494    0.00062   -0.00216    0.00017
C5A   1    0.982336    0.306264    0.582960    11.00000    0.01415    0.01669 =
         0.01380   -0.00246   -0.00540    0.00082
AFIX  43
H5A   2    1.067887    0.289855    0.627581    11.00000   -1.20000
AFIX   0
C6A   1    0.821418    0.402504    0.616606    11.00000    0.01364    0.01528 =
         0.01176    0.00031   -0.00428   -0.00205
AFIX  43
H6A   2    0.793117    0.454991    0.686397    11.00000   -1.20000
AFIX   0
O2A   6    0.617965    0.368115    0.395029    11.00000    0.01487    0.01961 =
         0.01633   -0.00502   -0.00656    0.00617
N4A   5    1.175628    0.137578    0.436960    11.00000    0.01309    0.02212 =
         0.01939   -0.00477   -0.00601    0.00733
AFIX  93
H4A1  2    1.196418    0.091394    0.371784    11.00000   -1.20000
H4A2  2    1.259135    0.122467    0.475598    11.00000   -1.20000
AFIX   0
N1B   5    0.896573    0.620430    0.107499    11.00000    0.01423    0.01104 =
         0.01303    0.00025   -0.00235   -0.00332
AFIX  43
H1B   2    0.988684    0.690227    0.094725    11.00000   -1.20000
AFIX   0
C2B   1    0.929853    0.465362    0.144463    11.00000    0.01201    0.01202 =
         0.01004   -0.00211   -0.00113   -0.00179
N3B   5    0.790262    0.354681    0.155041    11.00000    0.00986    0.01181 =
         0.01160   -0.00037   -0.00282   -0.00127
C4B   1    0.619386    0.402181    0.139436    11.00000    0.01098    0.01343 =
         0.00945   -0.00047   -0.00344   -0.00070
C5B   1    0.583521    0.564207    0.105178    11.00000    0.01445    0.01421 =
         0.01208   -0.00093   -0.00541    0.00255
AFIX  43
H5B   2    0.463915    0.597020    0.093426    11.00000   -1.20000
AFIX   0
C6B   1    0.725857    0.669701    0.089975    11.00000    0.01988    0.01168 =
         0.01081   -0.00186   -0.00465    0.00194
AFIX  43
H6B   2    0.707055    0.778935    0.066931    11.00000   -1.20000
AFIX   0
O2B   6    1.081209    0.426714    0.167261    11.00000    0.01219    0.01599 =
         0.01616   -0.00147   -0.00512   -0.00115
N4B   5    0.483243    0.293735    0.157113    11.00000    0.01193    0.01468 =
         0.02180    0.00372   -0.00764   -0.00253
AFIX  93
H4B1  2    0.505380    0.193509    0.178498    11.00000   -1.20000
H4B2  2    0.371092    0.322259    0.147417    11.00000   -1.20000
AFIX   0
HKLF 4
REM  Quest14mz013_0m in P-1
REM R1 =  0.0213 for    4155 Fo > 4sig(Fo)  and  0.0266 for all    4587 data
REM    172 parameters refined using      0 restraints
END
WGHT      0.0077      1.3973
REM Instructions for potential hydrogen bonds
EQIV $1 -x+1, -y+1, -z+1
HTAB N1A O2A_$1
EQIV $2 -x+2, -y, -z+1
HTAB C5A I1_$2
EQIV $3 -x+2, -y+1, -z+1
HTAB C6A O2B_$3
HTAB N4A I2
HTAB N4A I1_$2
EQIV $4 x, y+1, z
HTAB N1B I2_$4
EQIV $5 -x+2, -y+1, -z
HTAB C6B I2_$5
HTAB N4B I1
EQIV $6 x-1, y, z
HTAB N4B O2B_$6
REM Highest difference peak  1.676,  deepest hole -0.947,  1-sigma level  0.155
Q1    1   0.9133  0.7350  0.1987  11.00000  0.05    1.68
Q2    1   1.2847  0.0972  0.4457  11.00000  0.05    1.51
Q3    1   0.4577  0.1934  0.0552  11.00000  0.05    1.33
Q4    1   1.3421 -0.0180  0.2979  11.00000  0.05    1.05
Q5    1   0.6614 -0.0010  0.2950  11.00000  0.05    0.61
Q6    1   0.6020 -0.2578  0.4148  11.00000  0.05    0.61
Q7    1   0.5013  0.7773  0.0127  11.00000  0.05    0.61
Q8    1   0.7934  0.3189  0.1969  11.00000  0.05    0.61
Q9    1   0.6801  0.3163  0.5992  11.00000  0.05    0.57
Q10   1   1.0065  0.2710  0.5281  11.00000  0.05    0.56
Q11   1   0.5412  0.0150  0.2641  11.00000  0.05    0.55
Q12   1   1.2849 -0.1418  0.1530  11.00000  0.05    0.53
Q13   1   0.9183  0.3802  0.5922  11.00000  0.05    0.53
Q14   1   0.7755  0.4007  0.5746  11.00000  0.05    0.52
Q15   1   0.5661  0.3338  0.3801  11.00000  0.05    0.52
Q16   1   0.8894  0.3010  0.6095  11.00000  0.05    0.52
Q17   1   1.3192 -0.0273  0.1484  11.00000  0.05    0.50
Q18   1   0.6919 -0.1969  0.3497  11.00000  0.05    0.50
Q19   1   0.5979  0.4831  0.1424  11.00000  0.05    0.50
Q20   1   0.6161  0.4661  0.0896  11.00000  0.05    0.50
;
_shelx_res_checksum              95979
loop_
_space_group_symop_operation_xyz
'x, y, z'
'-x, -y, -z'
loop_
_atom_site_type_symbol
_atom_site_label
_atom_site_fract_x
_atom_site_fract_y
_atom_site_fract_z
_atom_site_U_iso_or_equiv
_atom_site_adp_type
_atom_site_calc_flag
_atom_site_occupancy
Cd Cd1 0.87609(2) 0.14376(2) 0.25161(2) 0.01134(4) Uani d 1
I I1 0.59773(2) -0.08383(2) 0.32498(2) 0.01195(4) Uani d 1
I I2 1.19156(2) -0.03888(2) 0.12852(2) 0.01322(4) Uani d 1
N N1A 0.6998(3) 0.4253(3) 0.55241(17) 0.0123(4) Uani d 1
H H1A 0.597896 0.490643 0.575526 0.015 Uiso calc 1
C C2A 0.7324(3) 0.3487(3) 0.4521(2) 0.0117(4) Uani d 1
N N3A 0.8938(3) 0.2502(3) 0.41526(17) 0.0114(4) Uani d 1
C C4A 1.0176(3) 0.2304(3) 0.4772(2) 0.0125(4) Uani d 1
C C5A 0.9823(4) 0.3063(3) 0.5830(2) 0.0146(5) Uani d 1
H H5A 1.067887 0.289855 0.627581 0.017 Uiso calc 1
C C6A 0.8214(3) 0.4025(3) 0.6166(2) 0.0134(5) Uani d 1
H H6A 0.793117 0.454991 0.686397 0.016 Uiso calc 1
O O2A 0.6180(3) 0.3681(2) 0.39503(15) 0.0166(4) Uani d 1
N N4A 1.1756(3) 0.1376(3) 0.43696(19) 0.0181(4) Uani d 1
H H4A1 1.196418 0.091394 0.371784 0.022 Uiso calc 1
H H4A2 1.259135 0.122467 0.475598 0.022 Uiso calc 1
N N1B 0.8966(3) 0.6204(3) 0.10750(17) 0.0129(4) Uani d 1
H H1B 0.988684 0.690227 0.094725 0.016 Uiso calc 1
C C2B 0.9299(3) 0.4654(3) 0.14446(19) 0.0117(4) Uani d 1
N N3B 0.7903(3) 0.3547(3) 0.15504(17) 0.0111(4) Uani d 1
C C4B 0.6194(3) 0.4022(3) 0.13944(19) 0.0111(4) Uani d 1
C C5B 0.5835(4) 0.5642(3) 0.1052(2) 0.0133(4) Uani d 1
H H5B 0.463915 0.597020 0.093426 0.016 Uiso calc 1
C C6B 0.7259(4) 0.6697(3) 0.0900(2) 0.0141(5) Uani d 1
H H6B 0.707055 0.778935 0.066931 0.017 Uiso calc 1
O O2B 1.0812(2) 0.4267(2) 0.16726(15) 0.0145(3) Uani d 1
N N4B 0.4832(3) 0.2937(3) 0.15711(19) 0.0155(4) Uani d 1
H H4B1 0.505380 0.193509 0.178498 0.019 Uiso calc 1
H H4B2 0.371092 0.322259 0.147417 0.019 Uiso calc 1
loop_
_atom_site_aniso_label
_atom_site_aniso_U_11
_atom_site_aniso_U_22
_atom_site_aniso_U_33
_atom_site_aniso_U_12
_atom_site_aniso_U_13
_atom_site_aniso_U_23
Cd1 0.01133(8) 0.01104(8) 0.01197(8) 0.00050(6) -0.00382(6) -0.00056(6)
I1 0.00921(7) 0.01284(8) 0.01333(7) -0.00011(5) -0.00230(5) -0.00055(5)
I2 0.00990(7) 0.01115(8) 0.01762(8) -0.00074(5) -0.00193(5) -0.00161(5)
N1A 0.0104(9) 0.0144(10) 0.0117(9) 0.0021(7) -0.0028(7) -0.0022(8)
C2A 0.0105(10) 0.0129(11) 0.0117(11) 0.0006(8) -0.0028(8) -0.0010(8)
N3A 0.0111(9) 0.0102(9) 0.0123(9) 0.0018(7) -0.0026(7) -0.0003(7)
C4A 0.0094(10) 0.0123(11) 0.0149(11) 0.0002(8) -0.0022(8) 0.0006(9)
C5A 0.0141(11) 0.0167(12) 0.0138(11) 0.0008(9) -0.0054(9) -0.0025(9)
C6A 0.0136(11) 0.0153(12) 0.0118(11) -0.0021(9) -0.0043(9) 0.0003(9)
O2A 0.0149(8) 0.0196(10) 0.0163(9) 0.0062(7) -0.0066(7) -0.0050(7)
N4A 0.0131(10) 0.0221(12) 0.0194(11) 0.0073(8) -0.0060(8) -0.0048(9)
N1B 0.0142(10) 0.0110(10) 0.0130(10) -0.0033(7) -0.0024(8) 0.0003(7)
C2B 0.0120(10) 0.0120(11) 0.0100(10) -0.0018(8) -0.0011(8) -0.0021(8)
N3B 0.0099(9) 0.0118(10) 0.0116(9) -0.0013(7) -0.0028(7) -0.0004(7)
C4B 0.0110(10) 0.0134(11) 0.0095(10) -0.0007(8) -0.0034(8) -0.0005(8)
C5B 0.0145(11) 0.0142(12) 0.0121(11) 0.0026(9) -0.0054(9) -0.0009(9)
C6B 0.0199(12) 0.0117(11) 0.0108(11) 0.0019(9) -0.0046(9) -0.0019(8)
O2B 0.0122(8) 0.0160(9) 0.0162(8) -0.0011(6) -0.0051(7) -0.0015(7)
N4B 0.0119(9) 0.0147(11) 0.0218(11) -0.0025(8) -0.0076(8) 0.0037(8)
loop_
_atom_type_symbol
_atom_type_description
_atom_type_scat_dispersion_real
_atom_type_scat_dispersion_imag
_atom_type_scat_source
C C 0.0033 0.0016 'International Tables Vol C Tables 4.2.6.8 and 6.1.1.4'
H H 0.0000 0.0000 'International Tables Vol C Tables 4.2.6.8 and 6.1.1.4'
Cd Cd -0.8075 1.2024 'International Tables Vol C Tables 4.2.6.8 and 6.1.1.4'
I I -0.4742 1.8119 'International Tables Vol C Tables 4.2.6.8 and 6.1.1.4'
N N 0.0061 0.0033 'International Tables Vol C Tables 4.2.6.8 and 6.1.1.4'
O O 0.0106 0.0060 'International Tables Vol C Tables 4.2.6.8 and 6.1.1.4'
loop_
_geom_angle_atom_site_label_1
_geom_angle_atom_site_label_2
_geom_angle_atom_site_label_3
_geom_angle
N3B Cd1 N3A 106.32(7)
N3B Cd1 I1 114.42(5)
N3A Cd1 I1 101.10(5)
N3B Cd1 I2 112.72(5)
N3A Cd1 I2 117.58(5)
I1 Cd1 I2 104.413(8)
C6A N1A C2A 121.5(2)
C6A N1A H1A 119.3
C2A N1A H1A 119.3
O2A C2A N3A 120.2(2)
O2A C2A N1A 120.8(2)
N3A C2A N1A 119.0(2)
C4A N3A C2A 119.9(2)
C4A N3A Cd1 134.33(16)
C2A N3A Cd1 105.75(15)
N4A C4A N3A 118.0(2)
N4A C4A C5A 120.5(2)
N3A C4A C5A 121.5(2)
C6A C5A C4A 117.0(2)
C6A C5A H5A 121.5
C4A C5A H5A 121.5
C5A C6A N1A 121.2(2)
C5A C6A H6A 119.4
N1A C6A H6A 119.4
C4A N4A H4A1 120.0
C4A N4A H4A2 120.0
H4A1 N4A H4A2 120.0
C6B N1B C2B 122.3(2)
C6B N1B H1B 118.8
C2B N1B H1B 118.8
O2B C2B N3B 120.9(2)
O2B C2B N1B 121.3(2)
N3B C2B N1B 117.8(2)
C4B N3B C2B 120.3(2)
C4B N3B Cd1 131.29(16)
C2B N3B Cd1 105.05(15)
N4B C4B N3B 118.6(2)
N4B C4B C5B 120.0(2)
N3B C4B C5B 121.4(2)
C6B C5B C4B 117.5(2)
C6B C5B H5B 121.3
C4B C5B H5B 121.3
C5B C6B N1B 120.4(2)
C5B C6B H6B 119.8
N1B C6B H6B 119.8
C4B N4B H4B1 120.0
C4B N4B H4B2 120.0
H4B1 N4B H4B2 120.0
loop_
_geom_bond_atom_site_label_1
_geom_bond_atom_site_label_2
_geom_bond_distance
Cd1 N3B 2.256(2)
Cd1 N3A 2.285(2)
Cd1 I1 2.7732(2)
Cd1 I2 2.7839(2)
N1A C6A 1.357(3)
N1A C2A 1.375(3)
N1A H1A 0.8800
C2A O2A 1.243(3)
C2A N3A 1.371(3)
N3A C4A 1.346(3)
C4A N4A 1.333(3)
C4A C5A 1.430(3)
C5A C6A 1.354(4)
C5A H5A 0.9500
C6A H6A 0.9500
N4A H4A1 0.8800
N4A H4A2 0.8800
N1B C6B 1.365(3)
N1B C2B 1.377(3)
N1B H1B 0.8800
C2B O2B 1.240(3)
C2B N3B 1.369(3)
N3B C4B 1.353(3)
C4B N4B 1.331(3)
C4B C5B 1.421(3)
C5B C6B 1.350(4)
C5B H5B 0.9500
C6B H6B 0.9500
N4B H4B1 0.8800
N4B H4B2 0.8800
loop_
_geom_hbond_atom_site_label_D
_geom_hbond_atom_site_label_H
_geom_hbond_atom_site_label_A
_geom_hbond_site_symmetry_A
_geom_hbond_distance_DH
_geom_hbond_distance_HA
_geom_hbond_distance_DA
_geom_hbond_angle_DHA
N1A H1A O2A 2_666 0.88 1.87 2.741(3) 172.0
N1B H1B I2 1_565 0.88 2.82 3.648(2) 158.0
N4A H4A2 I1 2_756 0.88 2.97 3.804(2) 158.0
N4B H4B2 O2B 1_455 0.88 2.20 3.051(3) 164.0
loop_
_geom_torsion_atom_site_label_1
_geom_torsion_atom_site_label_2
_geom_torsion_atom_site_label_3
_geom_torsion_atom_site_label_4
_geom_torsion
C6A N1A C2A O2A 178.6(2)
C6A N1A C2A N3A -1.6(4)
O2A C2A N3A C4A 179.6(2)
N1A C2A N3A C4A -0.2(3)
O2A C2A N3A Cd1 -2.7(3)
N1A C2A N3A Cd1 177.48(18)
C2A N3A C4A N4A -178.1(2)
Cd1 N3A C4A N4A 5.1(4)
C2A N3A C4A C5A 1.9(4)
Cd1 N3A C4A C5A -174.99(18)
N4A C4A C5A C6A 178.1(2)
N3A C4A C5A C6A -1.8(4)
C4A C5A C6A N1A 0.0(4)
C2A N1A C6A C5A 1.7(4)
C6B N1B C2B O2B -174.9(2)
C6B N1B C2B N3B 5.3(3)
O2B C2B N3B C4B 174.1(2)
N1B C2B N3B C4B -6.1(3)
O2B C2B N3B Cd1 12.4(3)
N1B C2B N3B Cd1 -167.72(17)
C2B N3B C4B N4B -175.9(2)
Cd1 N3B C4B N4B -19.7(3)
C2B N3B C4B C5B 3.9(3)
Cd1 N3B C4B C5B 160.09(18)
N4B C4B C5B C6B 179.1(2)
N3B C4B C5B C6B -0.7(4)
C4B C5B C6B N1B -0.1(4)
C2B N1B C6B C5B -2.2(4)

_cod_database_fobs_code 2021150
