#------------------------------------------------------------------------------
#$Date: 2018-04-30 18:53:42 +0300 (Mon, 30 Apr 2018) $
#$Revision: 207537 $
#$URL: file:///home/coder/svn-repositories/cod/cif/2/02/11/2021106.cif $
#------------------------------------------------------------------------------
#
# This file is available in the Crystallography Open Database (COD),
# http://www.crystallography.net/. The original data for this entry
# were provided by IUCr Journals, http://journals.iucr.org/.
#
# The file may be used within the scientific community so long as
# proper attribution is given to the journal article from which the
# data were obtained.
#
data_2021106
loop_
_publ_author_name
'Kornyakov, Ilya V.'
'Krivovichev, Sergey V.'
'Gurzhiy, Vladislav V.'
'Leoni, Matteo'
_publ_section_title
;
 \e-RbCuCl~3~, a new polymorph of rubidium copper trichloride: synthesis,
 structure and structural complexity
;
_journal_coeditor_code           KU3218
_journal_issue                   5
_journal_name_full               'Acta Crystallographica Section C'
_journal_page_first              529
_journal_page_last               533
_journal_paper_doi               10.1107/S2053229618004539
_journal_volume                  74
_journal_year                    2018
_chemical_formula_iupac          'Rb Cu Cl3'
_chemical_formula_moiety         'Cl3 Cu Rb'
_chemical_formula_sum            'Cl3 Cu Rb'
_chemical_formula_weight         255.36
_chemical_name_systematic
;
Rubidium copper trichloride
;
_space_group_crystal_system      orthorhombic
_space_group_IT_number           20
_space_group_name_Hall           'C 2c 2'
_space_group_name_H-M_alt        'C 2 2 21'
_symmetry_space_group_name_Hall  'C 2c 2'
_symmetry_space_group_name_H-M   'C 2 2 21'
_atom_sites_solution_primary     direct
_audit_creation_method
;
Olex2 1.2
(compiled 2017.08.10 svn.r3458 for OlexSys, GUI svn.r5381)
;
_cell_angle_alpha                90
_cell_angle_beta                 90
_cell_angle_gamma                90
_cell_formula_units_Z            8
_cell_length_a                   7.053(3)
_cell_length_b                   11.864(5)
_cell_length_c                   11.785(6)
_cell_measurement_reflns_used    1041
_cell_measurement_temperature    100(2)
_cell_measurement_theta_max      33.57
_cell_measurement_theta_min      3.36
_cell_volume                     986.1(8)
_computing_cell_refinement
;
SAINT (Bruker, 2009)
;
_computing_data_collection
;
APEX2 (Bruker, 2009)
;
_computing_data_reduction
;
SAINT (Bruker, 2009)
;
_computing_molecular_graphics
;
OLEX2 (Dolomanov <i>et al.</i>,  2009) and
DIAMOND (Brandenburg & Putz, 1999)
;
_computing_publication_material
;
OLEX2 (Dolomanov <i>et al.</i>,  2009)
;
_computing_structure_refinement
;
SHELXL2014 (Sheldrick, 2015)
;
_computing_structure_solution
;
SHELXS97 (Sheldrick, 2008)
;
_diffrn_ambient_temperature      100(2)
_diffrn_measured_fraction_theta_full 0.998
_diffrn_measured_fraction_theta_max 0.999
_diffrn_measurement_device_type  'Bruker APEXII CCD'
_diffrn_measurement_method       '\f and \w scans'
_diffrn_radiation_monochromator  graphite
_diffrn_radiation_type           MoK\a
_diffrn_radiation_wavelength     0.71073
_diffrn_reflns_av_R_equivalents  0.0435
_diffrn_reflns_limit_h_max       9
_diffrn_reflns_limit_h_min       -9
_diffrn_reflns_limit_k_max       15
_diffrn_reflns_limit_k_min       -15
_diffrn_reflns_limit_l_max       15
_diffrn_reflns_limit_l_min       -8
_diffrn_reflns_number            4745
_diffrn_reflns_theta_full        25.242
_diffrn_reflns_theta_max         27.981
_diffrn_reflns_theta_min         3.360
_diffrn_standards_number         0
_exptl_absorpt_coefficient_mu    15.668
_exptl_absorpt_correction_type   multi-scan
_exptl_crystal_colour            red
_exptl_crystal_density_diffrn    3.440
_exptl_crystal_description       prism
_exptl_crystal_F_000             936
_exptl_crystal_size_max          0.08
_exptl_crystal_size_mid          0.05
_exptl_crystal_size_min          0.03
_refine_diff_density_max         0.603
_refine_diff_density_min         -0.697
_refine_ls_abs_structure_details
;
Refined as an inversion twin
;
_refine_ls_abs_structure_Flack   0.495(19)
_refine_ls_extinction_method     none
_refine_ls_goodness_of_fit_ref   1.020
_refine_ls_hydrogen_treatment    undef
_refine_ls_matrix_type           full
_refine_ls_number_parameters     49
_refine_ls_number_reflns         1184
_refine_ls_number_restraints     0
_refine_ls_restrained_S_all      1.020
_refine_ls_R_factor_all          0.0370
_refine_ls_R_factor_gt           0.0277
_refine_ls_shift/su_max          0.000
_refine_ls_shift/su_mean         0.000
_refine_ls_structure_factor_coef Fsqd
_refine_ls_weighting_details
'w=1/[\s^2^(Fo^2^)+(0.0120P)^2^] where P=(Fo^2^+2Fc^2^)/3'
_refine_ls_weighting_scheme      calc
_refine_ls_wR_factor_gt          0.0416
_refine_ls_wR_factor_ref         0.0439
_reflns_number_gt                1042
_reflns_number_total             1184
_reflns_threshold_expression     'I > 2\s(I)'
_cod_data_source_file            ku3218sup1.cif
_cod_data_source_block           I
_cod_database_code               2021106
_shelx_space_group_comment
;
The symmetry employed for this shelxl refinement is uniquely defined
by the following loop, which should always be used as a source of
symmetry information in preference to the above space-group names.
They are only intended as comments.
;
_shelx_hkl_file
;
  -2   0   0  402.11    9.49
  -2   0   0  423.18    8.64
   2   0   0  421.09   10.10
   2   0   0  408.17    9.04
   4   0   0 1000.00   20.64
   4   0   0  966.24   22.84
   4   0   0  888.44   20.39
  -4   0   0  995.46   21.52
  -4   0   0  967.92   19.94
   6   0   0  175.83    5.56
   6   0   0  174.18    7.43
  -6   0   0  183.48    5.03
  -8   0   0  216.40    6.32
   8   0   0  205.87    6.28
 -10   0   0   58.76    3.37
   1  -1   0   31.42    1.24
  -1  -1   0   29.97    0.93
   1  -1   0   32.01    1.48
  -1  -1   0   30.74    1.21
   1   1   0   30.57    1.27
  -1   1   0   30.49    1.20
   1   1   0   33.34    1.33
   1   1   0   30.86    0.93
   1   1   0   32.44    1.74
  -1   1   0   31.47    0.98
  -3  -1   0   10.83    1.29
   3  -1   0   10.57    1.56
   3  -1   0   10.06    1.18
  -3  -1   0   11.89    0.83
   3   1   0   13.84    1.27
   3   1   0   12.90    1.83
  -3   1   0   10.06    0.80
  -3   1   0   11.37    1.12
   5  -1   0   14.81    2.40
   5  -1   0   16.91    1.72
  -5  -1   0   17.45    1.66
  -5  -1   0   16.34    1.95
  -5  -1   0   11.32    1.10
   5   1   0   13.47    1.61
  -5   1   0   13.98    1.58
  -5   1   0   15.45    1.29
   5   1   0   17.46    1.72
   5   1   0   15.83    2.52
  -7  -1   0    1.46    0.91
   7  -1   0    0.93    1.16
   7  -1   0    2.18    2.08
  -7   1   0    0.25    0.86
   7   1   0    2.64    1.26
   7   1   0    1.64    2.17
   9  -1   0    5.63    1.39
  -9  -1   0    4.37    1.48
  -9   1   0    6.41    1.46
   9   1   0    5.23    1.25
 -11  -1   0    1.17    1.43
 -11   1   0    0.71    1.39
   0  -2   0   16.83    0.86
   0  -2   0   15.96    1.00
   0   2   0   16.44    0.90
   0   2   0   15.77    1.07
   0   2   0   16.65    0.94
   0   2   0   16.30    1.17
   2  -2   0    0.92    0.71
  -2  -2   0    1.30    0.43
  -2  -2   0    0.28    0.72
   2  -2   0   -0.59    0.86
  -2   2   0    0.41    0.63
   2   2   0    0.63    0.74
   2   2   0   -0.29    1.15
  -2   2   0    0.67    0.45
   4  -2   0    0.84    0.88
   4  -2   0    1.09    1.32
  -4  -2   0    0.62    0.50
  -4  -2   0    0.98    1.00
   4   2   0    1.54    0.91
  -4   2   0    1.03    0.84
   4   2   0    1.73    1.48
  -4   2   0    1.75    0.63
   6  -2   0    4.30    2.02
   6  -2   0    3.82    1.31
  -6  -2   0    1.83    0.81
   6   2   0    3.76    2.07
  -6   2   0    4.02    0.96
   6   2   0    4.38    1.31
   8  -2   0    2.58    1.28
  -8  -2   0    0.94    1.03
  -8   2   0    3.35    1.20
   8   2   0    2.13    1.23
 -10  -2   0    7.20    1.68
 -10   2   0    7.36    1.70
  -1  -3   0  396.49    9.22
   1  -3   0  418.77    8.74
   1  -3   0  368.77    9.48
  -1  -3   0  414.94    8.52
   1   3   0  410.92    9.86
  -1   3   0  403.13    9.41
  -1   3   0  410.68    8.68
   1   3   0  405.48    8.84
   3  -3   0  266.81    7.59
  -3  -3   0  258.75    6.84
   3  -3   0  272.16    6.71
  -3  -3   0  274.59    6.10
  -3   3   0  265.21    6.23
   3   3   0  274.48    8.30
  -3   3   0  259.63    6.99
   3   3   0  274.32    6.69
   5  -3   0  170.41    5.36
  -5  -3   0  170.95    4.63
   5  -3   0  178.02    6.72
  -5  -3   0  165.56    5.65
  -5   3   0  177.84    5.69
   5   3   0  176.31    5.21
   5   3   0  176.35    4.45
   5   3   0  176.69    7.37
  -5   3   0  173.33    4.83
   7  -3   0   67.74    3.45
  -7  -3   0   71.36    3.07
   7   3   0   70.92    3.28
  -7   3   0   71.52    3.19
   7   3   0   71.50    5.92
   9  -3   0   31.75    2.53
  -9  -3   0   39.79    2.80
  -9   3   0   40.68    2.81
 -11  -3   0   16.61    2.27
 -11   3   0   18.22    2.52
   0  -4   0   29.40    1.47
   0  -4   0   28.89    1.80
   0   4   0   24.86    1.67
   0   4   0   24.42    1.83
   2  -4   0    5.24    0.86
   2  -4   0    5.41    1.19
  -2  -4   0    5.44    0.65
  -2  -4   0    7.35    1.01
  -2   4   0    5.97    1.12
   2   4   0    7.79    0.76
  -2   4   0    5.16    0.80
   2   4   0    7.88    1.05
   2   4   0    4.54    1.44
   4  -4   0    2.89    1.33
   4  -4   0    0.94    0.95
  -4  -4   0    4.66    1.19
  -4  -4   0    2.38    0.67
   4   4   0    2.44    0.67
   4   4   0    3.95    1.08
  -4   4   0    2.92    1.12
  -4   4   0    3.01    0.77
   4   4   0    0.39    1.70
   6  -4   0   -1.94    1.41
   6  -4   0    1.12    1.11
  -6  -4   0    0.01    0.66
   6   4   0    0.75    1.03
  -6   4   0   -0.34    0.78
   6   4   0    2.40    2.17
   6   4   0    1.30    1.06
  -8  -4   0    1.73    1.03
   8  -4   0    0.61    1.26
   8   4   0    0.41    1.04
  -8   4   0    1.08    1.15
 -10  -4   0    3.89    1.56
  10  -4   0    4.56    1.28
 -10   4   0    1.40    1.47
  -1  -5   0    0.85    0.78
  -1  -5   0    0.80    0.53
   1  -5   0    0.86    0.66
   1  -5   0    1.08    0.86
   1   5   0    1.35    1.10
  -1   5   0    1.13    0.66
  -1   5   0    1.51    0.93
   1   5   0    0.61    0.73
  -3  -5   0    0.12    0.84
   3  -5   0    0.10    1.04
  -3  -5   0    0.24    0.50
   3  -5   0   -0.65    0.74
   3   5   0    1.98    1.53
  -3   5   0    1.18    0.99
   3   5   0   -0.18    0.80
  -3   5   0    0.55    0.67
   3   5   0   -0.85    0.48
   5  -5   0    0.20    1.41
   5  -5   0    1.29    1.11
  -5  -5   0    2.56    0.78
   5   5   0    3.53    1.19
   5   5   0    3.66    2.13
  -5   5   0    0.94    1.22
  -5   5   0    2.45    0.91
   7  -5   0   -0.70    1.09
  -7  -5   0    0.42    0.84
   7   5   0   -0.32    1.01
   7   5   0    0.68    2.28
  -7   5   0    0.89    1.06
  -9  -5   0    0.11    1.14
   9  -5   0   -1.81    1.11
  -9   5   0   -1.80    1.21
 -11  -5   0   -1.67    1.30
   0  -6   0  264.42    6.82
   0  -6   0  248.07    6.03
   0   6   0  254.93    7.36
   0   6   0  236.67    6.30
   2  -6   0  909.92   19.18
  -2  -6   0  903.02   18.74
   2  -6   0  890.50   20.81
  -2   6   0  911.85   20.82
  -2   6   0  909.01   19.18
   2   6   0  873.31   19.24
   2   6   0  898.35   21.68
  -4  -6   0  161.91    4.53
   4  -6   0  158.36    6.06
   4  -6   0  171.44    5.17
  -4   6   0  164.21    5.85
   4   6   0  170.19    4.45
   4   6   0  157.71    7.07
   4   6   0  172.24    5.12
  -4   6   0  167.95    4.97
  -6  -6   0  296.51    7.44
   6  -6   0  294.77    8.13
   6   6   0  287.34    7.59
  -6   6   0  288.32    7.87
   6   6   0  298.21   11.28
   8  -6   0   70.44    3.61
  -8  -6   0   68.06    3.38
  -8   6   0   68.26    3.62
  10  -6   0   60.45    2.90
 -10  -6   0   58.80    3.56
 -10   6   0   53.62    3.70
  -1  -7   0   31.19    1.73
  -1  -7   0   29.45    2.11
   1  -7   0   22.78    1.64
   1  -7   0   26.68    2.11
   1   7   0   25.69    2.54
  -1   7   0   24.47    1.82
   1   7   0   24.57    1.86
   1   7   0   27.98    1.73
  -1   7   0   27.82    2.45
   3  -7   0   45.73    3.24
  -3  -7   0   44.72    2.14
   3  -7   0   40.86    2.46
  -3  -7   0   50.20    2.82
  -3   7   0   47.81    3.16
   3   7   0   44.57    3.96
  -3   7   0   41.77    2.46
   3   7   0   42.53    2.70
  -5  -7   0    5.03    1.03
   5  -7   0    2.00    1.21
   5   7   0    5.51    1.30
  -5   7   0    4.11    1.19
   5   7   0   -2.16    2.00
   7  -7   0   24.10    2.39
  -7  -7   0   24.69    1.98
  -7   7   0   22.44    2.31
   9  -7   0    1.76    1.36
  -9  -7   0    0.37    1.24
  -9   7   0   -1.17    1.30
   0  -8   0   -0.33    0.98
   0  -8   0    0.37    0.75
   0   8   0    0.85    1.32
   0   8   0   -0.97    0.77
  -2  -8   0    1.88    0.78
   2  -8   0    1.79    1.14
   2  -8   0   -0.50    0.87
  -2  -8   0    1.46    1.02
   2   8   0    1.18    0.98
   2   8   0    1.35    0.77
  -2   8   0   -0.84    1.19
  -2   8   0    0.83    0.92
   2   8   0    1.41    1.66
  -4  -8   0    0.29    0.77
   4  -8   0    0.33    1.04
   4  -8   0   -0.36    1.45
   4   8   0   -3.05    1.75
   4   8   0    1.46    1.06
  -4   8   0    0.96    1.05
  -4   8   0    2.95    1.50
   6  -8   0    5.06    1.49
  -6  -8   0    3.99    1.14
   6   8   0    2.09    1.07
  -6   8   0    4.85    1.36
   6   8   0    4.85    2.78
  -8  -8   0    6.45    1.46
   8  -8   0    5.84    1.73
  -8   8   0    6.55    1.73
  10  -8   0    3.01    1.32
 -10  -8   0    6.68    1.73
 -10   8   0    3.38    1.83
  -1  -9   0  158.11    4.62
  -1  -9   0  154.95    5.36
   1  -9   0  157.03    4.75
   1  -9   0  157.42    5.57
   1   9   0  148.52    5.01
  -1   9   0  163.53    5.09
  -1   9   0  157.65    6.29
   1   9   0  153.90    6.49
   3  -9   0  151.13    5.03
  -3  -9   0  153.63    4.57
   3   9   0  147.29    7.15
  -3   9   0  151.76    5.11
  -3   9   0  153.86    6.19
   3   9   0  158.88    5.09
   5  -9   0   60.86    3.38
  -5  -9   0   60.40    2.86
   5   9   0   60.18    5.71
  -5   9   0   56.12    3.26
   5   9   0   64.56    3.00
  -7  -9   0   66.55    3.23
   7  -9   0   64.54    3.65
  -7   9   0   63.08    3.66
   9  -9   0   15.24    1.99
  -9  -9   0   16.76    2.14
  -9   9   0   16.75    2.46
   0 -10   0    0.64    0.90
   0  10   0    0.37    1.09
   0  10   0   -0.76    1.64
   2 -10   0   19.10    1.82
  -2 -10   0   16.92    1.56
   2  10   0   21.75    2.01
  -2  10   0   16.81    2.56
  -2  10   0   16.30    1.90
   2  10   0   19.59    3.17
  -4 -10   0    0.35    0.87
   4 -10   0   -0.19    1.06
   4  10   0   -0.94    2.21
  -4  10   0   -1.33    1.07
   4  10   0    0.43    1.02
  -6 -10   0    3.70    1.22
   6 -10   0    6.08    1.63
  -6  10   0    4.80    1.54
  -8 -10   0   -0.21    1.17
   8 -10   0    0.13    1.36
  -8  10   0    2.17    1.55
   1 -11   0    2.25    1.06
  -1 -11   0    3.18    1.01
   1  11   0    0.35    1.92
  -1  11   0    3.05    1.94
  -1  11   0    2.32    1.26
   1  11   0    4.95    1.33
  -3 -11   0   -1.07    0.79
   3 -11   0   -1.27    0.97
   3  11   0   -0.25    1.08
  -3  11   0    2.17    1.27
   3  11   0   -2.45    2.02
  -5 -11   0    2.52    1.10
   5 -11   0    2.58    1.37
  -5  11   0    4.43    1.50
   7 -11   0    1.79    1.45
  -7 -11   0   -0.83    1.08
  -7  11   0    5.21    1.67
  -9 -11   0    0.47    1.40
   9 -11   0    0.39    1.33
  -9  11   0    1.73    1.72
   0 -12   0  211.03    6.23
   0  12   0  213.31    8.76
   0  12   0  214.43    6.56
   2 -12   0   46.97    2.91
  -2 -12   0   50.99    2.78
  -2  12   0   47.14    3.12
   2  12   0   48.34    2.85
   2  12   0   44.36    4.89
  -4 -12   0  131.21    4.64
   4 -12   0  134.19    5.02
  -4  12   0  130.12    5.13
   6 -12   0   26.85    2.62
  -6 -12   0   23.56    2.22
  -6  12   0   24.50    2.62
  -8 -12   0   30.07    2.70
   8 -12   0   36.82    2.90
  -8  12   0   32.19    3.06
   1 -13   0   15.36    1.87
  -1 -13   0   16.00    1.79
   1  13   0   15.55    1.92
  -1  13   0   16.31    2.08
   1  13   0   14.04    3.28
   3 -13   0    2.59    1.33
  -3 -13   0    4.72    1.29
  -3  13   0    0.69    1.38
  -5 -13   0   16.97    1.97
   5 -13   0   20.65    2.33
  -5  13   0   18.00    2.38
   7 -13   0    0.48    1.37
  -7 -13   0    0.10    1.17
  -7  13   0   -0.50    1.38
   0 -14   0   19.98    2.04
   0  14   0   17.95    2.00
   2 -14   0    1.84    1.27
  -2 -14   0   -1.58    1.01
  -2  14   0    1.40    1.35
   4 -14   0   18.04    2.24
  -4 -14   0   16.39    2.04
  -4  14   0   17.16    2.27
  -6 -14   0   -1.73    1.09
   6 -14   0   -2.80    1.24
  -6  14   0   -0.98    1.37
   1 -15   0   40.47    2.99
  -1 -15   0   45.45    3.00
  -1  15   0   42.99    2.80
  -3 -15   0   25.28    2.34
   3 -15   0   18.13    2.21
  -3  15   0   22.78    2.39
   5 -15   0   29.95    2.80
  -5 -15   0   34.93    2.80
  -5  15   0   32.28    2.84
  -7 -15   0    7.65    1.77
  -7  15   0    6.08    1.77
   0 -16   0   13.46    1.91
  -2 -16   0   -1.37    1.12
   2 -16   0   -0.47    1.28
   4 -16   0    7.69    1.82
  -4 -16   0    8.06    1.77
  -4  16   0    6.28    1.62
  -6 -16   0   -0.01    1.25
   6 -16   0    1.36    1.51
   1 -17   0   -0.67    1.24
  -1 -17   0   -0.83    1.25
  -3 -17   0    0.80    1.41
   3 -17   0    1.61    1.44
   5 -17   0   -2.68    1.24
  -5 -17   0   -1.19    1.28
   0 -18   0    5.62    1.70
   2 -18   0   19.05    2.36
  -2 -18   0   21.10    2.40
  -4 -18   0    6.24    1.74
   1 -19   0    0.79    1.45
  -1 -19   0   -0.61    1.38
 -10   0   1    4.81    1.51
  10   0  -1    2.43    1.35
   8   0  -1   39.06    3.05
  -8   0   1   42.72    2.71
  -6   0   1    1.01    0.78
   6   0  -1   -0.72    1.14
  -6   0   1   -0.72    1.05
   6   0  -1    0.00    1.73
   6   0  -1   -0.37    1.10
  -4   0   1   48.86    1.91
   4   0  -1   48.09    2.72
   4   0  -1   44.12    3.28
  -4   0   1   48.18    2.31
  -4   0   1   43.39    2.60
   2   0  -1    0.14    0.70
   2   0  -1    0.70    0.99
  -2   0   1   -0.16    0.69
  -2   0   1    0.39    0.37
   0   0   1    0.02    0.17
   2   0   1   -0.07    0.96
   2   0   1    0.28    0.29
   2   0   1   -0.86    0.47
   2   0   1   -0.09    0.61
  -2   0  -1    0.89    0.34
  -2   0  -1    0.27    0.51
   4   0   1   47.54    3.45
  -4   0  -1   51.97    1.95
  -4   0  -1   47.96    2.27
   4   0   1   46.88    2.18
   4   0   1   50.12    1.68
  -6   0  -1    1.94    0.79
   6   0   1    3.92    1.99
   6   0   1    0.71    0.94
  -8   0  -1   40.49    2.76
   8   0   1   36.00    2.04
 -10   0  -1    3.55    1.55
 -11  -1   1   -1.46    1.16
 -11   1   1    0.75    1.37
   9  -1  -1    1.87    1.50
  -9  -1   1    1.51    1.17
   9   1  -1    1.65    1.44
  -9   1   1    1.24    1.19
  -7  -1   1    2.21    0.94
   7  -1  -1    0.46    1.25
  -7   1   1   -0.14    0.83
   7   1  -1    0.69    1.28
  -5  -1   1    6.80    0.93
  -5  -1   1    5.23    1.48
   5  -1  -1    4.54    1.79
   5  -1  -1    6.26    1.34
   5  -1  -1    8.08    1.50
  -5   1   1    6.73    0.97
   5   1  -1    5.28    1.87
  -5   1   1    3.37    1.10
   5   1  -1    5.48    1.35
  -3  -1   1    5.04    1.09
  -3  -1   1    5.84    0.66
   3  -1  -1    5.31    1.38
   3  -1  -1    6.48    1.10
  -3   1   1    4.92    0.66
   3   1  -1    8.57    1.19
   3   1  -1    5.56    1.45
  -3   1   1    6.87    0.99
  -1  -1   1   15.35    0.90
   1  -1  -1   16.30    1.14
   1  -1  -1   15.78    1.22
  -1  -1   1   18.71    1.41
  -1  -1   1   14.99    1.03
  -1  -1   1   14.55    0.68
  -1   1   1   14.20    0.90
   1   1  -1   15.58    0.93
  -1   1   1   15.05    0.85
  -1   1   1   14.04    0.73
   1   1  -1   15.79    1.33
  -1   1   1   17.62    1.19
   1  -1   1   14.18    1.05
   1  -1   1   15.20    0.99
   1  -1   1   14.76    0.58
  -1  -1  -1   15.02    0.92
   1  -1   1   14.65    0.71
  -1   1  -1   14.17    0.66
   1   1   1   15.79    0.93
   1   1   1   16.03    1.20
  -1   1  -1   15.59    1.00
  -3  -1  -1    4.18    1.02
   3  -1   1    5.94    0.57
   3  -1   1    4.83    0.83
   3  -1   1    4.87    1.35
  -3  -1  -1    4.98    0.60
   3   1   1    4.47    0.77
   3   1   1    5.52    0.55
  -3   1  -1    5.98    0.64
  -3   1  -1    5.36    0.88
   3   1   1    6.67    1.59
   5  -1   1    6.84    0.77
   5  -1   1    8.21    1.96
   5  -1   1    5.27    1.09
  -5  -1  -1    3.20    1.05
  -5  -1  -1    4.00    0.79
   5   1   1    6.77    1.13
  -5   1  -1    6.16    1.23
   5   1   1    7.04    2.02
   5   1   1    4.55    0.67
  -5   1  -1    4.42    0.84
  -7  -1  -1    0.88    0.88
   7  -1   1   -0.13    0.88
   7  -1   1    3.20    2.13
   7   1   1    2.07    2.17
  -7   1  -1    0.61    0.90
   7   1   1   -0.19    0.85
  -9  -1  -1    2.44    1.32
  -9   1  -1    1.95    1.20
 -11  -1  -1   -0.22    1.38
 -11   1  -1    1.49    1.51
  10  -2  -1   11.78    1.87
 -10  -2   1   13.38    1.95
  10   2  -1   11.05    1.58
 -10   2   1   13.30    1.98
  -8  -2   1    2.20    1.10
   8  -2  -1    4.27    1.59
  -8   2   1    3.43    1.20
   8   2  -1    4.16    1.59
  -6  -2   1   26.95    1.86
   6  -2  -1   27.60    3.35
   6  -2  -1   29.49    2.51
   6   2  -1   31.31    2.50
  -6   2   1   28.36    1.88
  -6   2   1   32.72    2.64
   6   2  -1   26.62    3.45
   4  -2  -1   17.03    1.65
   4  -2  -1   15.44    2.06
  -4  -2   1   21.49    1.94
   4  -2  -1   17.25    1.75
  -4  -2   1   17.74    1.19
  -4   2   1   18.65    1.64
  -4   2   1   16.95    1.21
   4   2  -1   17.85    2.49
   4   2  -1   18.72    1.78
   2  -2  -1   40.47    2.33
  -2  -2   1   38.11    1.40
  -2  -2   1   36.68    1.94
   2  -2  -1   40.80    2.00
  -2   2   1   38.71    1.83
   2   2  -1   39.04    2.85
  -2   2   1   36.07    1.50
   2   2  -1   38.76    2.16
   0  -2   1   31.04    1.01
   0  -2  -1   30.69    1.10
   0  -2  -1   28.94    1.23
   0  -2   1   31.93    1.16
   0  -2   1   32.80    1.39
   0  -2   1   32.91    1.03
   0  -2   1   32.02    1.64
   0   2   1   31.12    1.31
   0   2  -1   31.75    1.22
   0   2  -1   31.16    1.64
   0   2   1   33.71    1.36
   0   2   1   33.50    1.05
  -2  -2  -1   36.97    1.34
   2  -2   1   38.64    1.68
  -2  -2  -1   38.06    1.74
   2  -2   1   38.88    2.35
   2  -2   1   37.72    1.32
   2   2   1   36.66    2.67
   2   2   1   41.24    1.91
   2   2   1   37.41    1.25
   2   2   1   38.64    1.45
  -2   2  -1   36.01    1.86
  -2   2  -1   37.51    1.43
   4  -2   1   16.83    1.10
  -4  -2  -1   19.39    1.79
   4  -2   1   18.19    2.21
  -4  -2  -1   19.16    1.29
   4  -2   1   17.39    1.46
  -4   2  -1   16.83    1.55
  -4   2  -1   17.45    1.22
   4   2   1   17.24    1.08
   4   2   1   14.78    2.32
   4   2   1   19.46    1.43
   6  -2   1   29.35    3.45
   6  -2   1   25.89    1.94
  -6  -2  -1   26.40    1.76
   6   2   1   33.99    3.82
   6   2   1   29.57    1.97
  -6   2  -1   28.03    1.97
  -8  -2  -1    3.00    1.15
   8  -2   1    4.06    1.14
  -8   2  -1    5.38    1.36
   8   2   1    9.23    3.17
 -10  -2  -1    9.58    1.87
 -10   2  -1   11.47    1.99
 -11  -3   1    5.04    1.57
 -11   3   1    7.10    1.86
   9  -3  -1   11.21    1.93
  -9  -3   1   11.65    1.73
   9   3  -1   11.75    1.84
  -9   3   1   11.57    1.87
   7  -3  -1   15.14    2.03
  -7  -3   1    9.84    1.33
   7   3  -1   12.81    1.90
  -7   3   1   11.56    1.55
   7   3  -1   13.00    1.94
   5  -3  -1   10.46    1.61
  -5  -3   1   10.07    1.06
   5  -3  -1    8.13    1.93
  -5  -3   1   10.05    1.74
  -5   3   1   11.46    1.23
   5   3  -1   10.67    2.40
  -5   3   1    9.33    1.54
   5   3  -1   11.72    1.67
   3  -3  -1   18.62    1.88
   3  -3  -1   16.41    1.53
  -3  -3   1   18.08    1.57
  -3  -3   1   13.78    0.96
   3   3  -1   13.82    1.51
  -3   3   1   14.50    1.10
  -3   3   1   14.66    1.40
   3   3  -1   12.53    2.03
  -1  -3   1    3.22    0.52
  -1  -3   1    3.64    0.81
   1  -3  -1    4.92    0.93
   1  -3  -1    4.65    0.76
  -1   3   1    2.65    0.89
  -1   3   1    3.78    0.71
   1   3  -1    3.25    1.16
   1   3  -1    4.38    0.81
  -1   3   1    3.70    0.82
  -1   3   1    2.84    0.60
  -1  -3  -1    3.95    0.70
   1  -3   1    4.39    0.63
   1  -3   1    4.55    0.96
  -1  -3  -1    3.65    0.53
  -1   3  -1    3.32    0.56
   1   3   1    2.89    0.55
  -1   3  -1    3.79    0.89
   1   3   1    3.73    1.06
   1   3   1    3.72    0.76
   1   3   1    3.30    0.48
   3  -3   1   10.38    1.59
  -3  -3  -1   15.96    0.99
  -3  -3  -1   17.72    1.47
   3  -3   1   14.44    1.21
   3   3   1   15.50    0.98
  -3   3  -1   16.19    1.50
   3   3   1   17.89    1.18
   3   3   1   16.09    2.16
  -3   3  -1   13.53    1.00
  -5  -3  -1    9.75    1.07
   5  -3   1    8.25    1.24
   5  -3   1   15.05    2.36
  -5   3  -1    9.96    1.58
  -5   3  -1    8.43    1.07
   5   3   1   12.06    2.49
   5   3   1   10.55    0.90
   5   3   1   10.25    1.22
   7  -3   1   14.40    1.63
   7  -3   1   11.07    2.79
  -7  -3  -1   13.87    1.53
   7   3   1   10.45    2.93
  -7   3  -1   13.10    1.54
   7   3   1   11.87    1.24
  -9  -3  -1   13.61    1.86
  -9   3  -1   11.20    1.90
 -11  -3  -1    8.41    1.88
 -11   3  -1    2.23    1.69
 -10  -4   1   -0.19    1.23
  10  -4  -1    3.43    1.49
 -10   4   1    1.01    1.37
   8  -4  -1   30.34    2.75
  -8  -4   1   32.48    2.41
  -8   4   1   29.61    2.46
   8   4  -1   28.43    2.54
   6  -4  -1    4.89    1.52
  -6  -4   1    5.73    1.00
  -6   4   1    5.95    1.20
  -6   4   1    4.75    1.51
   6   4  -1    7.30    1.57
   6   4  -1    5.88    2.45
   4  -4  -1   57.37    3.01
  -4  -4   1   57.19    2.95
   4  -4  -1   57.83    3.48
  -4  -4   1   59.72    2.22
   4   4  -1   63.69    4.26
  -4   4   1   59.23    2.44
   4   4  -1   54.75    3.12
  -4   4   1   65.53    3.09
   2  -4  -1    6.47    1.15
  -2  -4   1    4.94    1.00
   2  -4  -1    5.06    0.96
  -2  -4   1    5.18    0.68
   2   4  -1    3.99    1.45
  -2   4   1    5.26    1.02
   2   4  -1    5.62    1.02
  -2   4   1    4.67    0.77
   0  -4   1   98.39    2.68
   0  -4  -1   97.85    3.09
   0  -4   1   95.72    3.24
   0  -4  -1   95.55    2.77
   0   4   1   98.10    3.19
   0   4  -1   94.02    3.64
   0   4   1   95.99    3.38
   0   4   1   99.72    2.76
   0   4  -1   94.24    2.99
   0   4   1  101.58    2.70
  -2  -4  -1    3.98    0.89
   2  -4   1    5.67    0.83
   2  -4   1    6.62    1.22
  -2  -4  -1    4.79    0.63
  -2   4  -1    4.25    0.71
   2   4   1    2.59    0.88
   2   4   1    4.61    0.60
  -2   4  -1    4.10    1.02
   2   4   1    5.33    0.76
   2   4   1    4.28    1.39
   4  -4   1   54.73    2.55
   4  -4   1   60.28    3.58
  -4  -4  -1   57.63    2.18
  -4  -4  -1   49.75    2.71
   4   4   1   56.23    1.93
  -4   4  -1   61.48    3.03
   4   4   1   57.68    4.24
   4   4   1   62.97    2.40
  -4   4  -1   61.66    2.39
   6  -4   1    6.75    2.07
  -6  -4  -1    5.26    0.99
   6  -4   1    5.35    1.24
   6   4   1    1.95    2.27
  -6   4  -1    7.33    1.22
   6   4   1    4.61    0.98
  -8  -4  -1   26.43    2.16
   8  -4   1   28.76    2.16
  -8   4  -1   30.96    2.52
 -10  -4  -1   -0.45    1.20
 -10   4  -1    0.97    1.45
   9  -5  -1   -0.94    1.37
  -9  -5   1    0.09    1.13
   9   5  -1    1.12    1.24
  -9   5   1    0.36    1.24
   7  -5  -1    7.32    1.73
  -7  -5   1    5.39    1.16
   7   5  -1    6.37    1.53
  -7   5   1    5.26    1.34
   5  -5  -1    8.46    1.60
   5  -5  -1    9.39    1.96
  -5  -5   1    6.23    1.58
  -5  -5   1    4.93    0.92
   5   5  -1    7.79    1.56
  -5   5   1    5.00    1.04
  -5   5   1    4.40    1.48
   5   5  -1    3.46    2.14
  -3  -5   1   14.32    1.63
   3  -5  -1   12.49    1.73
   3  -5  -1   12.72    1.48
  -3  -5   1   14.11    1.11
  -3   5   1   13.53    1.59
   3   5  -1   14.32    2.34
  -3   5   1   13.28    1.25
   3   5  -1   11.62    1.53
   1  -5  -1   25.02    1.76
   1  -5  -1   23.13    1.48
  -1  -5   1   24.41    1.72
  -1  -5   1   21.34    1.30
  -1   5   1   20.18    1.37
  -1   5   1   19.55    1.31
  -1   5   1   19.45    1.35
  -1   5   1   18.50    1.68
   1   5  -1   17.35    1.49
   1   5  -1   24.55    2.22
   1  -5   1   22.45    1.46
  -1  -5  -1   18.94    1.33
  -1  -5  -1   18.37    1.41
   1  -5   1   20.18    1.70
   1   5   1   19.48    1.25
  -1   5  -1   18.86    1.36
  -1   5  -1   22.44    1.86
   1   5   1   19.70    1.25
   1   5   1   24.28    2.12
  -3  -5  -1   11.78    1.42
   3  -5   1   14.25    1.84
  -3  -5  -1   13.15    1.04
   3  -5   1   15.15    1.39
   3   5   1   15.10    1.01
  -3   5  -1   15.73    1.68
  -3   5  -1   12.15    1.20
   3   5   1   18.21    1.30
   3   5   1   19.01    2.50
   5  -5   1    5.84    1.88
  -5  -5  -1    7.57    1.01
   5  -5   1    5.02    1.20
   5   5   1    5.89    1.03
  -5   5  -1    5.63    1.49
   5   5   1    2.29    2.17
   5   5   1    7.20    0.82
  -5   5  -1    7.30    1.19
  -7  -5  -1    4.29    1.07
   7  -5   1    4.12    1.23
   7   5   1    0.90    2.54
  -7   5  -1    3.60    1.30
  -9  -5  -1    1.23    1.20
   9  -5   1    1.54    1.01
  -9   5  -1    3.35    1.52
 -11  -5  -1    4.55    1.73
  10  -6  -1   25.81    2.56
 -10  -6   1   25.82    2.52
 -10   6   1   20.89    2.53
   8  -6  -1    8.59    1.86
  -8  -6   1    6.08    1.34
   8   6  -1    8.73    1.71
  -8   6   1    5.72    1.55
  -6  -6   1   66.46    2.78
   6  -6  -1   64.87    3.52
  -6   6   1   63.61    3.12
   6   6  -1   64.94    5.65
   6   6  -1   54.31    3.35
   4  -6  -1   20.85    2.39
  -4  -6   1   22.26    2.16
   4  -6  -1   17.87    1.85
  -4  -6   1   15.56    1.29
  -4   6   1   20.01    2.17
   4   6  -1   17.69    1.93
   4   6  -1   27.08    3.35
  -4   6   1   16.69    1.56
   2  -6  -1   89.68    3.18
   2  -6  -1   80.35    3.64
  -2  -6   1   87.95    2.76
  -2  -6   1   92.55    3.47
   2   6  -1   86.02    3.47
  -2   6   1   81.93    3.04
  -2   6   1   85.86    3.05
  -2   6   1   90.38    3.71
   2   6  -1   94.54    4.61
   0  -6  -1   28.72    1.76
   0  -6  -1   30.81    2.04
   0  -6   1   30.19    2.17
   0  -6   1   32.06    1.65
   0   6   1   28.21    2.27
   0   6  -1   31.94    2.06
   0   6  -1   35.99    2.65
   0   6   1   29.65    1.82
   0   6   1   30.79    1.68
   2  -6   1   89.89    2.98
   2  -6   1   69.14    3.62
  -2  -6  -1   84.70    2.72
   2   6   1   81.88    4.24
   2   6   1   84.76    2.48
  -2   6  -1   84.04    3.07
   2   6   1   82.23    2.84
  -2   6  -1   89.01    3.70
   4  -6   1   16.70    1.62
   4  -6   1   19.51    2.44
  -4  -6  -1   19.76    1.43
  -4   6  -1   17.73    1.61
   4   6   1   17.78    2.91
   4   6   1   19.41    1.25
  -4   6  -1   18.11    2.10
   4   6   1   18.55    1.42
  -6  -6  -1   63.24    2.77
   6  -6   1   62.88    3.08
   6  -6   1   71.68    4.70
  -6   6  -1   57.22    3.08
   6   6   1   63.96    5.65
   8  -6   1    8.80    1.54
  -8  -6  -1    9.27    1.53
  -8   6  -1    7.02    1.69
 -10  -6  -1   29.28    2.78
 -10   6  -1   20.90    2.67
   9  -7  -1    0.36    1.43
  -9  -7   1    0.26    1.17
  -9   7   1    0.14    1.33
   7  -7  -1    0.34    1.31
  -7  -7   1    0.03    0.90
   7   7  -1   -0.92    1.11
  -7   7   1    0.27    1.10
   5  -7  -1    0.70    1.18
  -5  -7   1    0.76    0.74
   5   7  -1    0.70    2.14
  -5   7   1    0.95    1.37
  -5   7   1   -0.01    0.91
   5   7  -1    0.15    1.17
   3  -7  -1    1.70    0.96
  -3  -7   1    1.18    1.09
   3  -7  -1    0.82    1.18
  -3  -7   1    1.26    0.70
   3   7  -1    0.23    1.06
  -3   7   1    0.06    0.77
  -3   7   1    1.92    1.28
   3   7  -1    1.24    1.74
  -1  -7   1    2.81    1.06
   1  -7  -1    2.81    0.89
  -1  -7   1    1.84    0.71
   1  -7  -1    2.07    1.00
  -1   7   1    1.59    0.82
   1   7  -1    3.06    1.04
  -1   7   1    3.36    0.52
  -1   7   1    2.30    0.81
  -1   7   1    3.21    0.88
  -1   7   1    2.81    1.26
   1   7  -1    3.86    1.56
  -1  -7  -1    1.98    0.93
   1  -7   1    2.08    1.16
   1  -7   1    2.08    0.79
  -1  -7  -1    2.01    0.74
   1   7   1    1.60    0.70
   1   7   1    2.18    0.83
  -1   7  -1    3.12    1.28
  -1   7  -1    2.13    0.90
   1   7   1    1.14    1.35
   3  -7   1    0.15    0.86
  -3  -7  -1    1.44    0.72
   3  -7   1    2.05    1.34
  -3  -7  -1    1.58    1.07
  -3   7  -1    1.12    0.84
   3   7   1    0.02    0.58
   3   7   1    0.12    1.67
  -3   7  -1    1.30    1.22
   3   7   1    2.05    0.85
  -5  -7  -1    0.16    0.76
   5  -7   1   -0.40    1.52
   5  -7   1    1.68    1.07
   5   7   1   -1.22    1.98
  -5   7  -1    0.36    0.96
  -7  -7  -1    1.06    0.97
   7  -7   1    1.01    1.15
  -7   7  -1    0.27    1.12
   7   7   1    0.07    2.65
  -9  -7  -1   -0.40    1.17
   9  -7   1    3.37    1.14
  -9   7  -1    1.43    1.52
  10  -8  -1    2.65    1.55
 -10  -8   1    1.95    1.42
 -10   8   1    2.16    1.68
  -8  -8   1   10.79    1.65
   8  -8  -1   11.72    2.08
  -8   8   1    9.68    1.81
   8   8  -1   12.03    1.61
  -6  -8   1   16.06    1.68
   6  -8  -1   15.57    2.13
  -6   8   1   14.84    1.89
   6   8  -1   13.32    1.87
   4  -8  -1   15.37    1.85
  -4  -8   1   13.44    1.36
  -4   8   1   15.53    1.69
   4   8  -1   14.92    3.00
   4   8  -1   14.22    1.92
  -4   8   1   14.60    2.20
   2  -8  -1   35.68    2.73
  -2  -8   1   38.34    2.69
   2  -8  -1   40.34    2.49
  -2  -8   1   38.53    2.02
   2   8  -1   32.63    2.51
  -2   8   1   37.31    2.34
   2   8  -1   36.20    3.54
  -2   8   1   43.04    3.13
  -2   8   1   34.22    2.14
   0  -8   1    4.77    0.94
   0  -8   1    5.42    1.37
   0  -8  -1    2.98    0.90
   0  -8  -1    3.68    1.17
   0   8   1    3.60    0.88
   0   8  -1    3.87    1.57
   0   8   1    2.17    1.40
   0   8  -1    4.66    1.17
   0   8   1    3.90    1.01
   2  -8   1   34.14    2.17
  -2  -8  -1   35.87    2.02
   2  -8   1   43.05    3.07
  -2   8  -1   37.73    2.46
   2   8   1   36.54    2.16
  -2   8  -1   33.12    2.89
   2   8   1   34.03    3.34
   2   8   1   35.38    1.74
  -4  -8  -1   13.57    1.36
   4  -8   1   15.58    2.50
   4  -8   1   12.99    1.57
   4   8   1   11.60    2.86
  -4   8  -1   13.66    2.18
  -4   8  -1   11.99    1.59
   4   8   1   12.62    1.00
  -6  -8  -1   15.54    1.60
   6  -8   1   11.86    1.71
   6   8   1    9.35    3.26
  -6   8  -1   18.52    2.12
   8  -8   1   11.84    1.66
  -8   8  -1   11.38    2.15
 -10   8  -1    3.46    1.85
  -9  -9   1    5.44    1.54
   9  -9  -1    4.23    1.78
  -9   9   1    9.27    1.89
   7  -9  -1   13.72    2.16
  -7  -9   1    8.30    1.47
  -7   9   1   11.33    1.89
   7   9  -1    9.35    1.59
  -5  -9   1   18.28    1.69
   5  -9  -1   16.43    2.16
  -5   9   1   17.97    1.96
   5   9  -1   18.95    2.14
   5   9  -1   22.62    3.94
   3  -9  -1   12.86    1.73
  -3  -9   1   13.75    1.37
  -3   9   1   12.37    1.56
  -3   9   1   14.46    2.35
   3   9  -1   15.83    2.94
   3   9  -1   13.46    1.89
  -1  -9   1   27.29    2.41
   1  -9  -1   26.80    2.39
  -1  -9   1   29.66    1.96
   1  -9  -1   26.30    1.96
  -1   9   1   29.00    1.94
   1   9  -1   24.83    3.01
   1   9  -1   26.03    2.31
  -1   9   1   27.09    2.00
  -1   9   1   27.42    2.85
   1  -9   1   26.27    1.92
   1  -9   1   28.37    2.53
  -1  -9  -1   26.94    1.86
  -1   9  -1   25.46    2.87
   1   9   1   25.52    1.82
  -1   9  -1   24.96    2.16
   1   9   1   31.81    3.26
   1   9   1   27.22    1.71
   3  -9   1   17.76    2.33
   3  -9   1    9.79    1.40
  -3  -9  -1   11.29    1.30
   3   9   1   13.36    2.80
  -3   9  -1   12.61    2.26
   3   9   1   11.52    1.06
  -3   9  -1   14.60    1.79
  -5  -9  -1   19.71    1.77
   5  -9   1   21.76    2.08
   5   9   1   26.88    4.18
  -5   9  -1   18.29    2.11
   7  -9   1   10.30    1.68
  -7   9  -1    7.56    1.75
   9  -9   1    6.07    1.35
  -9   9  -1    5.39    1.88
   8 -10  -1    3.33    1.73
  -8 -10   1    2.46    1.31
  -8  10   1    1.28    1.44
  -6 -10   1   22.58    2.00
   6 -10  -1   27.74    2.69
   6  10  -1   21.84    2.20
  -6  10   1   24.93    2.43
   4 -10  -1    0.24    1.16
  -4 -10   1    1.06    0.92
  -4  10   1    1.48    1.74
   4  10  -1   -0.60    1.22
  -4  10   1    0.39    1.07
   4  10  -1    1.70    2.45
  -2 -10   1   36.97    2.20
   2 -10  -1   34.05    2.52
   2  10  -1   36.49    2.74
   2  10  -1   37.80    4.14
  -2  10   1   37.16    3.50
  -2  10   1   41.78    2.63
   0 -10  -1    0.63    0.86
   0 -10   1    1.22    0.86
   0 -10   1   -0.73    1.11
   0  10  -1    0.83    1.67
   0  10   1    0.61    0.94
   0  10  -1    0.69    1.16
   0  10   1    0.19    1.66
  -2 -10  -1   39.50    2.29
   2 -10   1   35.24    2.35
  -2  10  -1   31.20    3.41
  -2  10  -1   37.62    2.76
   2  10   1   35.01    1.78
   2  10   1   31.24    3.73
   2  10   1   38.35    2.23
   4 -10   1    2.29    1.18
  -4 -10  -1    1.92    0.93
   4  10   1   -0.32    2.26
  -4  10  -1    2.52    1.30
   6 -10   1   24.21    2.24
  -6  10  -1   29.82    2.80
   6  10   1   14.11    3.90
   8 -10   1   -0.78    1.15
  -8  10  -1    2.04    1.65
   9 -11  -1    2.84    1.65
  -9 -11   1    3.87    1.50
  -9  11   1    2.02    1.59
  -7 -11   1    1.65    1.18
   7 -11  -1   -0.02    1.48
  -7  11   1    3.77    1.51
  -5 -11   1    4.23    1.21
   5 -11  -1    1.66    1.53
   5  11  -1    3.68    1.42
  -5  11   1    3.37    1.31
  -3 -11   1    9.46    1.35
   3 -11  -1    9.37    1.65
  -3  11   1    7.32    2.22
   3  11  -1    3.57    2.62
  -3  11   1    8.48    1.53
   3  11  -1    9.70    1.79
  -1 -11   1    8.43    1.26
   1 -11  -1    9.66    1.51
   1  11  -1   11.66    2.69
  -1  11   1    9.49    1.50
  -1  11   1   17.11    2.86
   1  11  -1   10.91    1.86
   1 -11   1    9.59    1.41
  -1 -11  -1   10.49    1.42
   1  11   1   10.75    1.35
   1  11   1   12.62    2.74
  -1  11  -1   11.15    1.80
  -1  11  -1   11.17    2.53
  -3 -11  -1    9.17    1.37
   3 -11   1   12.56    1.68
  -3  11  -1    6.90    1.58
   3  11   1   12.55    3.15
  -5 -11  -1    2.96    1.19
   5 -11   1    2.57    1.31
  -5  11  -1    1.36    1.39
   5  11   1    1.76    2.96
   7 -11   1    3.27    1.41
  -7  11  -1    3.56    1.64
   9 -11   1    3.69    1.19
  -9  11  -1    3.78    1.88
  -8 -12   1   36.62    2.86
   8 -12  -1   32.47    2.98
  -8  12   1   26.82    2.63
   6 -12  -1   13.88    2.17
  -6 -12   1   11.80    1.69
  -6  12   1   12.01    1.92
   4 -12  -1   67.89    3.72
  -4 -12   1   73.82    3.30
  -4  12   1   71.90    3.54
   4  12  -1   71.85    3.65
  -2 -12   1   23.71    1.95
   2 -12  -1   20.71    2.14
   2  12  -1   22.13    2.37
  -2  12   1   19.38    3.19
  -2  12   1   19.44    1.97
   0 -12   1   81.87    3.48
   0 -12  -1   87.57    3.63
   0  12   1   88.49    3.35
   0  12  -1   82.68    4.10
   0  12   1   88.32    5.64
   2 -12   1   19.33    1.96
  -2 -12  -1   22.38    1.93
  -2  12  -1   20.07    2.35
   2  12   1   22.20    3.78
   4 -12   1   71.90    3.54
  -4 -12  -1   72.55    3.41
  -4  12  -1   68.91    3.87
   4  12   1   78.06    6.85
   6 -12   1    9.77    1.77
  -6  12  -1   12.41    2.21
   8 -12   1   34.14    2.48
  -8  12  -1   29.78    3.19
   7 -13  -1    3.11    1.66
  -7 -13   1    3.01    1.36
  -7  13   1    3.01    1.49
   5 -13  -1    5.96    1.72
  -5 -13   1    4.11    1.37
  -5  13   1    6.79    1.59
   3 -13  -1    7.20    1.70
  -3 -13   1    6.86    1.36
   3  13  -1    8.86    1.81
  -3  13   1    8.52    1.58
   1 -13  -1    8.48    1.63
  -1 -13   1    7.07    1.35
   1  13  -1   10.24    1.86
  -1  13   1    8.96    1.45
  -1  13   1   10.75    3.06
  -1 -13  -1   11.76    1.65
   1 -13   1    8.77    1.51
   1  13   1   11.42    2.98
  -1  13  -1   13.07    2.07
   3 -13   1    8.63    1.58
  -3 -13  -1    5.26    1.34
   3  13   1   12.11    3.43
  -3  13  -1    7.66    1.88
   5 -13   1    8.86    1.69
  -5  13  -1    5.82    1.85
   7 -13   1    2.00    1.35
  -7  13  -1    1.39    1.60
  -6 -14   1   12.72    1.89
   6 -14  -1    9.83    2.07
  -6  14   1   11.14    1.77
  -4 -14   1   13.98    1.86
   4 -14  -1   21.11    2.43
  -4  14   1   14.94    1.86
   2 -14  -1   12.97    1.93
  -2 -14   1    9.79    1.57
   2  14  -1   12.57    2.00
  -2  14   1   11.26    1.57
   0 -14  -1   25.20    2.41
   0 -14   1   24.33    2.20
   0  14  -1   25.12    2.63
   2 -14   1   14.68    1.89
  -2 -14  -1   15.48    1.87
  -2  14  -1   17.89    2.33
   4 -14   1   14.18    1.94
  -4  14  -1   18.23    2.45
   6 -14   1   13.59    1.93
  -6  14  -1   12.67    2.25
  -7 -15   1   11.43    1.92
  -5 -15   1   10.72    1.86
   5 -15  -1   14.92    2.32
  -3 -15   1   23.31    2.32
   3 -15  -1   30.54    2.82
   1 -15  -1   23.33    2.44
  -1 -15   1   23.93    2.23
   1  15  -1   22.89    2.44
  -1 -15  -1   25.81    2.40
   1 -15   1   23.96    2.26
  -1  15  -1   20.87    2.49
   3 -15   1   25.51    2.41
  -3  15  -1   23.80    2.70
   5 -15   1   12.47    1.98
  -5  15  -1   11.66    2.20
  -6 -16   1   -0.17    1.23
   6 -16  -1   -1.18    1.42
  -4 -16   1    4.59    1.54
   4 -16  -1    8.54    1.83
   2 -16  -1    1.07    1.44
  -2 -16   1    0.64    1.16
   0 -16  -1   12.09    1.94
   0 -16   1   10.02    1.75
   0  16  -1    9.53    1.82
   2 -16   1    1.44    1.24
  -2 -16  -1   -1.39    1.20
  -2  16  -1    0.02    1.44
   4 -16   1    7.31    1.69
  -4  16  -1    5.22    1.86
  -6  16  -1    0.76    1.67
  -5 -17   1    3.18    1.49
   5 -17  -1    3.60    1.70
  -3 -17   1    4.97    1.59
   3 -17  -1    2.95    1.63
   1 -17  -1    2.83    1.47
  -1 -17   1    6.93    1.65
   1 -17   1    5.31    1.56
  -1 -17  -1    3.18    1.58
  -1  17  -1    5.55    1.63
   3 -17   1    3.16    1.42
  -3  17  -1    1.63    1.52
  -5  17  -1    2.83    1.68
   2 -18  -1   30.16    2.90
  -2 -18   1   31.66    2.80
   0 -18  -1    9.07    1.95
   0 -18   1    7.40    1.73
  -2 -18  -1   28.82    2.83
   2 -18   1   31.89    2.75
   1 -19  -1    6.44    1.84
  -1 -19  -1    8.10    1.98
 -10   0   2    6.22    1.50
  10   0  -2    7.70    1.97
  -8   0   2   10.89    1.47
   8   0  -2    7.71    1.88
  -6   0   2    5.97    1.47
   6   0  -2    3.56    1.41
   6   0  -2    5.99    2.18
  -6   0   2    7.25    1.11
  -6   0   2    4.19    1.36
  -4   0   2    2.58    1.20
  -4   0   2    0.35    0.53
   4   0  -2    1.67    1.20
   4   0  -2    2.24    1.02
  -2   0   2    0.92    0.63
   2   0  -2    0.92    0.71
  -2   0   2    1.43    0.39
  -2   0   2    0.66    0.76
   2   0  -2    0.32    0.95
   0   0   2    1.74    0.60
   2   0   2    0.03    0.95
   2   0   2    0.79    0.55
   2   0   2    1.80    0.59
  -4   0  -2    1.89    0.77
   4   0   2    2.16    0.53
  -4   0  -2    1.67    0.52
   4   0   2   -0.84    1.26
   4   0   2    0.98    0.37
   6   0   2    5.23    0.61
   6   0   2    7.16    2.28
   6   0   2    4.62    0.76
  -6   0  -2    5.69    0.99
   8   0   2   10.46    3.23
  -8   0  -2   10.90    1.59
 -10   0  -2    7.90    1.89
  11  -1  -2    0.80    1.40
 -11  -1   2    1.72    1.40
  11   1  -2    2.76    1.39
 -11   1   2    2.31    1.51
  -9  -1   2   10.05    1.55
   9  -1  -2   10.66    2.11
   9   1  -2   13.66    2.24
  -9   1   2   13.83    1.78
  -7  -1   2    8.87    1.30
   7  -1  -2   11.42    2.01
  -7   1   2    9.31    1.32
   7   1  -2    6.02    1.77
   7   1  -2    6.25    1.69
   5  -1  -2   18.38    2.48
  -5  -1   2   26.75    1.70
   5  -1  -2   24.72    2.30
  -5  -1   2   18.97    2.19
  -5   1   2   23.62    1.56
   5   1  -2   25.55    2.94
  -5   1   2   22.20    2.02
   5   1  -2   22.98    2.21
  -3  -1   2   26.25    1.91
   3  -1  -2   26.46    2.15
   3  -1  -2   22.93    1.72
  -3  -1   2   24.53    1.29
  -3   1   2   22.95    1.64
  -3   1   2   22.53    1.81
  -3   1   2   26.85    1.28
   3   1  -2   32.51    2.53
   3   1  -2   25.93    1.84
  -1  -1   2   37.95    2.19
  -1  -1   2   35.44    0.97
  -1  -1   2   36.49    1.51
  -1  -1   2   34.98    1.11
   1   1  -2   35.13    2.03
  -1   1   2   34.21    1.78
   1   1  -2   36.16    1.38
  -1   1   2   35.92    1.45
   1  -1   2   36.64    1.71
   1  -1   2   35.66    1.47
   1   1   2   38.05    1.26
   1   1   2   35.66    1.65
   3  -1   2   27.43    0.96
   3  -1   2   27.06    1.15
   3  -1   2   25.76    2.16
  -3  -1  -2   29.35    1.22
   3  -1   2   24.66    1.65
   3   1   2   29.10    1.77
  -3   1  -2   24.91    1.24
   3   1   2   27.03    2.41
  -3   1  -2   28.30    1.64
  -5  -1  -2   24.32    1.58
   5  -1   2   21.72    1.41
   5  -1   2   22.68    1.10
   5  -1   2   26.81    2.88
  -5   1  -2   19.21    1.83
   5   1   2   22.34    0.97
  -5   1  -2   21.04    1.44
   5   1   2   24.73    3.04
  -7  -1  -2    9.60    1.36
   7  -1   2    7.93    2.61
  -7   1  -2    8.25    1.29
   7   1   2    7.60    2.71
  -9   1  -2   11.42    1.88
 -11  -1  -2    1.71    1.62
 -11   1  -2   -1.17    1.38
  10  -2  -2   28.65    2.82
 -10  -2   2   22.75    2.25
  10   2  -2   24.03    2.56
 -10   2   2   25.76    2.50
   8  -2  -2   38.07    3.25
  -8  -2   2   31.71    2.38
  -8   2   2   37.42    2.42
   8   2  -2   37.38    3.27
  -6  -2   2  138.35    4.19
  -6  -2   2  142.89    5.59
   6  -2  -2  134.74    5.27
   6   2  -2  137.58    5.26
  -6   2   2  138.91    4.25
   6   2  -2  139.18    6.79
  -6   2   2  136.82    5.20
  -4  -2   2   56.60    2.07
   4  -2  -2   56.91    2.96
   4  -2  -2   55.48    3.42
  -4  -2   2   53.76    2.90
  -4   2   2   52.27    2.08
   4   2  -2   57.46    3.84
   4   2  -2   52.63    3.07
  -4   2   2   55.12    2.69
   2  -2  -2  597.44   13.68
   2  -2  -2  573.44   12.76
  -2  -2   2  590.68   13.46
  -2  -2   2  593.48   12.22
  -2   2   2  604.08   12.29
  -2   2   2  589.27   13.28
  -2   2   2  601.83   13.91
  -2   2   2  605.78   12.53
   2   2  -2  593.20   12.92
   2   2  -2  592.30   14.30
   0  -2   2   57.67    1.33
   0  -2   2   56.55    1.82
   0  -2   2   57.07    1.29
   0  -2   2   56.88    2.28
   0  -2   2   56.92    1.99
   0   2  -2   59.06    1.55
   0   2   2   54.04    1.72
   0   2  -2   53.42    2.25
   0   2   2   56.62    1.72
   0   2   2   55.48    1.84
   2  -2   2  604.23   12.08
   2  -2   2  594.89   13.39
   2  -2   2  593.08   13.89
   2  -2   2  613.98   12.18
  -2   2  -2  590.81   13.44
   2   2   2  585.84   14.09
  -2   2  -2  609.75   12.31
   2   2   2  596.45   13.30
  -4  -2  -2   54.63    2.27
   4  -2   2   54.33    3.50
   4  -2   2   53.52    1.67
  -4  -2  -2   55.33    1.96
   4  -2   2   50.60    1.97
  -4   2  -2   51.91    2.04
   4   2   2   52.18    3.84
  -4   2  -2   56.46    2.63
   6  -2   2  136.57    3.77
  -6  -2  -2  133.25    4.01
   6  -2   2  130.10    6.29
   6   2   2  123.24    6.49
  -6   2  -2  129.45    4.22
   8  -2   2   32.36    4.39
  -8   2  -2   31.17    2.50
   8   2   2   29.47    4.44
 -10   2  -2   19.68    2.44
 -11  -3   2   -0.19    1.32
  11  -3  -2    0.71    1.41
 -11   3   2    0.28    1.38
   9  -3  -2    2.10    1.67
  -9  -3   2   -0.17    1.12
   9   3  -2   -0.91    1.43
  -9   3   2    0.46    1.21
   7  -3  -2    1.28    1.46
  -7  -3   2    2.03    0.94
  -7   3   2    0.82    0.96
   7   3  -2    1.49    1.43
  -5  -3   2    4.09    0.83
  -5  -3   2    4.83    1.48
   5  -3  -2    3.04    1.30
   5  -3  -2    2.44    1.54
   5   3  -2    4.48    1.45
  -5   3   2    5.61    0.98
   5   3  -2    5.70    2.09
  -5   3   2    5.00    1.30
   3  -3  -2    4.66    1.22
  -3  -3   2    3.73    0.59
  -3  -3   2    4.79    1.11
   3  -3  -2    3.27    0.96
  -3   3   2    1.89    0.85
   3   3  -2    5.54    1.15
  -3   3   2    3.90    0.71
  -3   3   2    5.16    0.98
   3   3  -2    2.36    1.48
   1  -3  -2   12.41    0.95
  -1  -3   2   11.00    0.88
   1  -3  -2   11.85    1.15
  -1  -3   2   13.46    1.20
  -1  -3   2   10.83    0.69
   1   3  -2   11.58    1.07
  -1   3   2   13.63    1.10
   1   3  -2   10.12    1.48
  -1   3   2   11.57    1.21
   1  -3   2   10.08    1.16
   1  -3   2    9.97    1.21
   1  -3   2   10.29    0.61
   1  -3   2   10.76    0.66
  -1   3  -2   11.27    1.23
   1   3   2   12.29    1.27
  -1   3  -2   10.44    0.75
   1   3   2   11.89    1.00
   3  -3   2    3.66    0.49
   3  -3   2    4.67    1.26
  -3  -3  -2    4.53    0.60
   3  -3   2    4.53    0.70
  -3   3  -2    3.18    0.63
  -3   3  -2    5.31    1.01
   3   3   2    3.08    1.52
   3   3   2    2.58    0.84
   5  -3   2    4.39    0.90
   5  -3   2    5.16    0.67
   5  -3   2    6.29    1.95
  -5  -3  -2    3.83    0.77
  -5   3  -2    5.12    0.92
   5   3   2    6.95    2.15
   7  -3   2    0.49    1.97
  -7  -3  -2    0.35    0.81
   7  -3   2    0.46    0.79
  -7   3  -2    1.41    0.97
   7   3   2    3.65    2.45
  -9   3  -2    1.08    1.21
 -11   3  -2    0.55    1.55
  10  -4  -2   12.88    2.20
 -10  -4   2   10.48    1.80
 -10   4   2   15.95    2.12
  10   4  -2   10.96    1.93
   8  -4  -2   22.90    2.71
  -8  -4   2   18.70    1.91
   8   4  -2   18.84    2.43
  -8   4   2   23.57    2.14
   8   4  -2   21.18    2.46
  -6  -4   2   17.77    1.51
   6  -4  -2   15.37    2.11
   6   4  -2   20.07    2.32
   6   4  -2   16.21    3.12
  -6   4   2   19.12    1.74
  -6   4   2   19.84    2.38
   4  -4  -2  115.02    4.67
  -4  -4   2  114.08    4.24
   4  -4  -2  108.90    4.22
  -4  -4   2  115.99    3.27
   4   4  -2   99.10    4.29
   4   4  -2  115.04    5.56
  -4   4   2  112.53    4.21
  -4   4   2  107.07    3.42
  -2  -4   2   12.99    0.93
   2  -4  -2   17.66    1.43
   2  -4  -2   16.47    1.58
   2  -4  -2   13.28    1.30
  -2  -4   2   14.75    1.41
  -2   4   2   15.12    1.04
   2   4  -2   16.49    2.09
   2   4  -2   15.04    1.45
  -2   4   2   15.71    1.19
  -2   4   2   12.27    1.33
   0  -4   2  304.47    6.47
   0  -4   2  299.52    6.62
   0  -4   2  306.20    6.61
   0  -4   2  303.04    7.45
   0   4   2  293.09    7.38
   0   4   2  288.89    6.69
   0   4  -2  301.49    6.86
   0   4   2  299.34    7.26
   0   4  -2  295.75    7.82
   2  -4   2   13.05    0.80
  -2  -4  -2   13.47    0.91
   2  -4   2   14.44    1.00
   2  -4   2   16.03    1.65
   2   4   2   12.92    1.75
   2   4   2   15.36    1.32
  -2   4  -2   13.08    0.99
  -2   4  -2   14.24    1.48
   4  -4   2  109.79    3.40
  -4  -4  -2  110.77    3.25
   4  -4   2  114.96    2.98
   4  -4   2  116.26    4.91
  -4   4  -2  116.85    4.27
  -4   4  -2  110.26    3.42
   4   4   2  104.91    5.37
  -6  -4  -2   19.75    1.58
   6  -4   2   14.30    2.60
   6  -4   2   19.03    1.56
  -6   4  -2   21.68    1.84
   6   4   2   22.23    3.47
  -8   4  -2   22.82    2.26
   8   4   2   15.96    3.88
 -10   4  -2   11.80    2.12
   9  -5  -2    2.97    1.68
  -9  -5   2    4.11    1.37
  -9   5   2    2.98    1.40
   9   5  -2    1.78    1.54
   7  -5  -2   26.07    2.78
  -7  -5   2   26.22    2.01
   7   5  -2   27.80    2.73
  -7   5   2   27.27    2.24
  -5  -5   2   12.85    1.96
  -5  -5   2    9.13    1.10
   5  -5  -2   10.39    1.68
  -5   5   2    9.38    1.73
  -5   5   2    7.72    1.21
   5   5  -2   11.56    1.88
   5   5  -2   16.18    2.95
  -3  -5   2   49.92    2.77
   3  -5  -2   49.09    2.94
   3  -5  -2   44.32    2.62
  -3  -5   2   46.05    1.91
   3   5  -2   48.78    3.81
  -3   5   2   46.34    2.16
   3   5  -2   50.40    2.81
  -3   5   2   43.90    2.65
  -3   5   2   51.83    2.45
  -1  -5   2   29.72    1.24
  -1  -5   2   25.11    1.83
  -1  -5   2   30.39    1.42
   1  -5  -2   27.00    1.81
   1  -5  -2   30.36    1.96
   1   5  -2   26.19    2.37
   1   5  -2   28.12    1.98
  -1   5   2   27.56    1.37
  -1   5   2   29.24    1.33
  -1   5   2   27.86    1.96
  -1   5   2   29.82    1.37
  -1   5   2   30.18    2.25
   1  -5   2   30.90    1.48
   1  -5   2   30.88    2.12
  -1  -5  -2   28.04    1.50
   1   5   2   29.27    2.23
   1   5   2   29.50    1.94
  -1   5  -2   29.56    2.23
  -1   5  -2   29.55    1.71
  -3  -5  -2   45.63    1.88
   3  -5   2   45.23    3.01
   3  -5   2   44.24    2.04
   3  -5   2   47.43    1.77
   3   5   2   49.58    2.61
  -3   5  -2   47.12    2.14
  -3   5  -2   49.32    2.77
   3   5   2   46.07    3.57
   5  -5   2    9.00    1.22
   5  -5   2    8.97    2.06
  -5  -5  -2    9.02    1.09
  -5   5  -2   13.15    1.45
   5   5   2    9.93    2.59
   7  -5   2   26.41    1.80
   7  -5   2   26.11    3.61
   7   5   2   27.16    4.22
  -7   5  -2   30.23    2.40
  -9   5  -2    5.04    1.63
  10  -6  -2    7.68    1.98
 -10  -6   2    4.59    1.55
 -10   6   2    4.28    1.64
  -8  -6   2   11.26    1.62
   8  -6  -2   12.62    2.21
   8   6  -2   10.50    1.92
  -8   6   2    8.35    1.66
  -6  -6   2    1.78    0.86
   6  -6  -2    2.90    1.42
  -6   6   2    0.86    0.99
   6   6  -2    1.30    1.38
  -6   6   2    1.30    1.51
  -4  -6   2    8.88    1.58
   4  -6  -2    6.57    1.44
  -4  -6   2    7.63    0.99
   4  -6  -2    9.48    1.78
  -4   6   2    5.75    1.08
  -4   6   2    5.98    1.57
   4   6  -2    8.26    2.29
   4   6  -2    7.48    1.57
  -2  -6   2    2.58    0.69
   2  -6  -2    3.19    1.11
  -2  -6   2    4.98    1.16
   2  -6  -2    2.30    0.93
  -2   6   2    3.39    0.83
  -2   6   2    2.37    0.75
   2   6  -2    1.86    1.50
  -2   6   2    2.29    1.07
   2   6  -2    2.87    1.04
   0  -6  -2    4.15    0.80
   0  -6  -2    5.43    1.03
   0  -6   2    5.73    0.75
   0  -6   2    5.65    1.18
   0   6   2    4.78    1.28
   0   6  -2    4.82    1.35
   0   6   2    4.68    1.10
   0   6  -2    5.30    0.97
   2  -6   2    1.66    1.17
   2  -6   2    2.63    0.74
  -2  -6  -2    2.51    0.70
  -2   6  -2    3.30    0.82
   2   6   2    1.78    0.94
   2   6   2    2.36    1.47
  -2   6  -2    5.01    1.24
   4  -6   2    8.72    1.14
  -4  -6  -2    7.16    0.96
   4  -6   2    9.03    1.90
   4   6   2    4.82    2.23
  -4   6  -2    8.50    1.62
  -4   6  -2    8.43    1.22
   6  -6   2    1.79    1.77
   6  -6   2    2.26    0.97
  -6   6  -2    4.24    1.29
   6   6   2    0.54    2.30
   8  -6   2    8.84    1.17
  -8   6  -2   10.75    1.87
   8   6   2    8.42    3.47
 -10   6  -2    2.11    1.71
   9  -7  -2    6.03    1.89
  -9  -7   2    4.76    1.50
  -9   7   2    4.53    1.57
   9   7  -2    3.74    1.59
   7  -7  -2    7.81    1.83
  -7  -7   2    4.26    1.19
   7   7  -2    4.48    1.64
  -7   7   2    4.46    1.36
  -5  -7   2   14.46    1.40
   5  -7  -2   14.46    2.00
  -5   7   2   16.18    2.41
  -5   7   2   12.27    1.55
   5   7  -2   12.81    2.95
   5   7  -2   18.79    2.33
   3  -7  -2    8.85    1.46
   3  -7  -2    9.03    1.74
  -3  -7   2    9.34    1.05
  -3  -7   2    9.55    1.60
   3   7  -2    7.06    1.48
  -3   7   2    9.07    1.69
   3   7  -2   10.95    2.44
  -3   7   2    8.96    1.28
  -3   7   2    8.32    1.15
   1  -7  -2   23.03    1.90
  -1  -7   2   20.44    1.95
  -1  -7   2   18.42    1.28
   1  -7  -2   20.91    1.60
  -1  -7   2   19.15    1.08
  -1   7   2   21.46    1.16
  -1   7   2   24.87    1.58
  -1   7   2   20.28    1.37
   1   7  -2   19.01    1.79
  -1   7   2   21.18    2.13
   1   7  -2   23.79    2.60
  -1  -7  -2   20.11    1.42
   1  -7   2   20.14    1.41
   1  -7   2   17.69    1.87
   1   7   2   17.94    2.20
  -1   7  -2   20.85    1.72
  -1   7  -2   22.82    2.37
   3  -7   2    9.49    1.85
  -3  -7  -2    9.24    1.08
   3  -7   2    6.76    1.10
   3   7   2   10.33    2.22
  -3   7  -2    5.39    1.55
  -3   7  -2    9.29    1.30
   5  -7   2   15.17    1.54
   5  -7   2   16.55    2.58
   5   7   2   19.26    3.38
  -5   7  -2   13.50    1.66
   7  -7   2    5.47    1.16
  -7   7  -2    1.45    1.25
   7   7   2    1.93    2.74
  -9   7  -2    6.50    1.82
  10  -8  -2   25.01    2.80
 -10  -8   2   20.12    2.31
 -10   8   2   15.77    2.10
   8  -8  -2   67.09    4.11
  -8  -8   2   63.34    3.28
  -8   8   2   60.38    3.37
   8   8  -2   62.44    3.58
  -6  -8   2   36.96    2.30
   6  -8  -2   40.40    3.11
  -6   8   2   44.18    2.68
   6   8  -2   37.47    3.12
   4  -8  -2  212.19    6.56
  -4  -8   2  212.88    5.70
  -4   8   2  219.15    6.04
  -4   8   2  220.91    7.51
   4   8  -2  218.30    8.95
   4   8  -2  215.52    6.96
  -2  -8   2   51.94    2.26
   2  -8  -2   53.65    3.14
   2  -8  -2   44.44    2.61
  -2   8   2   47.45    2.35
   2   8  -2   48.92    4.03
  -2   8   2   51.43    1.97
  -2   8   2   53.38    2.36
  -2   8   2   48.98    3.31
   2   8  -2   50.82    3.16
   0  -8  -2  387.57    9.87
   0  -8  -2  384.55    9.18
   0  -8   2  397.55   10.33
   0  -8   2  386.09    8.88
   0   8  -2  383.62   11.10
   0   8  -2  385.51    9.76
   0   8   2  390.36   10.92
   2  -8   2   54.00    2.41
  -2  -8  -2   51.13    2.35
   2  -8   2   54.22    3.43
   2   8   2   53.95    3.98
  -2   8  -2   48.25    3.48
  -2   8  -2   48.72    2.76
  -4  -8  -2  227.63    6.02
   4  -8   2  229.55    8.07
   4  -8   2  230.57    6.18
  -4   8  -2  230.33    6.64
   4   8   2  217.96    9.03
   6  -8   2   41.01    2.41
  -6   8  -2   44.39    2.96
   6   8   2   41.33    5.03
   8  -8   2   56.13    2.50
  -8   8  -2   59.93    3.73
 -10   8  -2   18.76    2.78
   9  -9  -2    3.11    1.83
  -9  -9   2    3.11    1.43
  -9   9   2    5.58    1.60
  -7  -9   2    3.87    1.20
   7  -9  -2    4.57    1.73
   7   9  -2    6.46    1.77
  -7   9   2    4.95    1.46
  -5  -9   2    7.00    1.19
   5  -9  -2    6.61    1.61
  -5   9   2    5.37    1.97
  -5   9   2    4.91    1.30
   5   9  -2    5.59    1.72
   3  -9  -2    6.58    1.45
  -3  -9   2    5.47    1.05
  -3   9   2    6.65    1.22
  -3   9   2    3.96    1.71
   3   9  -2    6.99    2.45
   3   9  -2    5.43    1.56
  -1  -9   2    3.95    1.36
  -1  -9   2    2.78    0.84
   1  -9  -2    1.73    1.00
  -1   9   2    3.26    0.84
  -1   9   2    1.39    1.52
   1   9  -2    1.18    1.60
  -1   9   2    3.50    0.81
   1   9  -2    2.71    1.30
  -1  -9  -2    2.56    0.96
   1  -9   2    0.95    1.21
   1  -9   2    3.39    0.95
  -1   9  -2    2.93    1.16
   1   9   2    0.43    1.57
  -1   9  -2    4.01    1.65
   3  -9   2    2.92    1.61
   3  -9   2    4.39    1.11
  -3  -9  -2    2.59    0.91
   3   9   2    2.40    2.12
  -3   9  -2    4.81    1.33
   5  -9   2    6.09    1.30
   5   9   2    5.37    2.84
  -5   9  -2    5.87    1.48
   7  -9   2    6.03    1.28
   7   9   2    7.25    3.49
  -7   9  -2    3.64    1.57
  -9   9  -2    4.60    1.85
  -8 -10   2    5.00    1.42
   8 -10  -2    5.99    1.99
   8  10  -2    2.75    1.45
  -8  10   2    2.29    1.36
   6 -10  -2    6.15    1.84
  -6 -10   2    4.86    1.23
  -6  10   2    3.23    1.28
   6  10  -2    4.81    1.69
  -4 -10   2    2.24    0.97
   4 -10  -2    0.93    1.28
  -4  10   2   -0.26    1.67
   4  10  -2    2.57    1.51
  -4  10   2    2.06    1.08
   2 -10  -2   18.86    1.94
  -2 -10   2   18.05    1.59
   2  10  -2   20.70    3.24
  -2  10   2   20.65    2.74
   2  10  -2   22.10    2.44
  -2  10   2   19.40    1.61
   0 -10   2    0.68    1.28
   0 -10   2    0.31    0.82
   0 -10  -2   -0.12    0.88
   0  10   2    0.99    1.71
   0  10  -2    0.61    1.67
   0  10  -2    1.54    1.24
  -2 -10  -2   19.87    1.74
   2 -10   2   20.51    1.74
   2 -10   2   19.52    2.44
   2  10   2   20.02    3.07
  -2  10  -2   18.11    2.06
   4 -10   2    2.35    1.09
  -4  10  -2    0.97    1.28
   4  10   2   -0.30    2.29
   6 -10   2    5.05    1.32
   6  10   2    5.06    3.31
  -6  10  -2    3.70    1.55
   8 -10   2    2.28    1.03
  -8  10  -2    4.19    1.85
   9 -11  -2   18.21    2.56
  -9 -11   2   16.36    2.16
   7 -11  -2    5.17    1.88
  -7 -11   2    2.50    1.27
   7  11  -2    3.43    1.57
  -7  11   2    2.88    1.39
   5 -11  -2   39.15    3.23
  -5 -11   2   38.10    2.44
  -5  11   2   33.66    2.46
   5  11  -2   31.05    2.92
   3 -11  -2   10.80    1.78
  -3 -11   2   16.09    1.62
  -3  11   2   10.16    1.42
   3  11  -2    8.37    1.89
  -3  11   2   14.34    2.73
  -1 -11   2   33.28    2.15
   1 -11  -2   33.23    2.39
  -1  11   2   34.75    3.71
   1  11  -2   32.98    2.87
  -1 -11  -2   29.77    2.23
   1 -11   2   32.38    2.21
  -1  11  -2   36.65    2.97
   1  11   2   34.74    3.84
   3 -11   2   10.21    1.47
   3  11   2    6.88    2.81
  -3  11  -2   12.30    1.95
   5 -11   2   36.31    2.44
  -5  11  -2   33.00    3.00
   5  11   2   35.09    4.99
   7 -11   2    3.69    1.19
  -7  11  -2    5.44    1.89
  -9  11  -2   14.74    2.65
   8 -12  -2   -0.77    1.54
  -8 -12   2    1.87    1.32
  -6 -12   2   12.48    1.69
   6 -12  -2   15.72    2.46
  -6  12   2   13.09    1.69
   6  12  -2   11.47    1.98
   4 -12  -2    5.10    1.65
  -4 -12   2    3.69    1.20
  -4  12   2    5.24    1.25
   4  12  -2    3.50    1.75
   2 -12  -2   19.97    2.17
  -2 -12   2   15.89    1.63
  -2  12   2   18.66    3.19
   2  12  -2   14.86    2.25
   0 -12   2   12.52    1.49
   0 -12  -2   11.05    1.56
   0  12  -2   10.31    1.95
   0  12   2    9.39    2.68
   2 -12   2   17.22    1.75
  -2  12  -2   16.67    2.31
   2  12   2   19.18    3.44
   4 -12   2    5.68    1.30
   4  12   2    2.59    2.95
  -4  12  -2    1.62    1.48
   6 -12   2   12.89    1.68
  -6  12  -2   17.90    2.53
  -8  12  -2    0.73    1.72
   7 -13  -2    6.13    1.92
  -7 -13   2    3.11    1.38
   5 -13  -2   -0.64    1.42
  -5 -13   2   -0.95    1.00
   5  13  -2   -0.03    1.41
   3 -13  -2    7.14    1.63
  -3 -13   2    5.18    1.31
   3  13  -2    6.11    1.85
  -1 -13   2    1.66    1.05
   1 -13  -2    2.18    1.30
  -1  13   2    3.87    2.45
   1  13  -2    1.28    1.47
   1 -13   2    1.70    1.06
  -1  13  -2    4.02    1.64
   1  13   2   -0.28    2.27
   3 -13   2    6.30    1.39
  -3  13  -2    7.55    1.84
   3  13   2   10.69    3.49
   5 -13   2   -0.55    1.12
  -5  13  -2   -0.93    1.42
   7 -13   2    3.66    1.20
  -7  13  -2    6.46    2.13
  -6 -14   2   48.18    3.02
  -4 -14   2   17.83    2.00
   4 -14  -2   12.83    2.10
   4  14  -2   14.59    2.24
  -2 -14   2  113.58    4.16
   2 -14  -2  107.53    4.73
   2  14  -2  101.12    4.87
   0 -14   2   17.08    1.86
   0  14  -2   20.44    2.63
   0  14   2   22.61    3.91
   2 -14   2  112.55    4.20
  -2  14  -2  103.52    5.09
   2  14   2  116.33    7.54
   4 -14   2   14.34    1.83
  -4  14  -2   20.34    2.65
   6 -14   2   51.19    2.81
  -6  14  -2   47.49    3.86
   5 -15  -2    5.46    1.87
  -5 -15   2    2.98    1.37
   3 -15  -2    4.81    1.74
  -3 -15   2    3.64    1.36
   3  15  -2    5.39    1.79
  -1 -15   2    0.02    1.12
   1  15  -2    1.49    1.64
   1 -15   2    0.40    1.12
  -1  15  -2    0.82    1.61
   3 -15   2    2.49    1.27
  -3  15  -2    0.43    1.65
   5 -15   2    4.99    1.41
  -5  15  -2    5.21    1.99
  -6 -16   2   -1.76    1.16
   6 -16  -2   -1.21    1.60
   4 -16  -2    0.90    1.63
  -4 -16   2    1.76    1.23
  -2 -16   2    0.97    1.26
   2 -16  -2    0.15    1.43
   2  16  -2    3.63    1.69
   0 -16   2   -0.30    1.16
   0  16  -2   -0.97    1.50
   2 -16   2    1.77    1.25
  -2  16  -2    0.94    1.62
   4 -16   2   -1.47    1.06
  -4  16  -2    0.44    1.65
   5 -17  -2    5.53    1.90
   3 -17  -2   24.20    2.74
  -3 -17   2   19.81    2.22
  -1 -17   2   12.53    1.83
   1  17  -2    9.66    2.01
   1 -17   2    8.50    1.69
  -1  17  -2    8.60    2.07
   3 -17   2   22.99    2.28
  -3  17  -2   22.46    2.83
   2 -18  -2   10.98    2.13
  -2 -18   2    7.18    1.66
   0 -18   2   16.24    2.04
   0  18  -2   14.24    2.14
   2 -18   2    5.52    1.61
  -2  18  -2   10.61    2.13
   1 -19  -2    0.59    1.49
  10   0  -3    0.93    1.71
 -10   0   3    3.04    1.33
  -8   0   3    8.19    1.36
   8   0  -3   10.99    2.24
  -6   0   3    7.77    1.07
   6   0  -3    8.02    1.92
  -6   0   3   11.98    1.75
  -6   0   3    9.05    1.94
  -4   0   3   14.16    1.03
  -4   0   3   13.92    1.39
  -4   0   3   18.10    1.94
   4   0  -3   13.88    2.01
   4   0  -3   11.27    1.56
   2   0  -3    5.76    0.85
  -2   0   3    7.67    1.37
   2   0  -3    6.59    1.18
  -2   0   3    7.85    1.02
   0   0   3   -0.16    0.66
   2   0   3    5.12    0.68
   2   0   3    6.31    1.16
   4   0   3   11.35    1.39
   4   0   3   11.33    1.91
  -4   0  -3   15.56    1.01
  -6   0  -3    8.24    1.11
   6   0   3   13.98    2.69
   8   0   3   10.64    3.17
 -11  -1   3    5.49    1.56
  11  -1  -3    7.17    1.96
  11   1  -3    6.08    1.88
 -11   1   3    6.36    1.64
   9  -1  -3   23.72    2.96
  -9  -1   3   23.52    2.13
   9   1  -3   23.69    2.91
  -9   1   3   23.43    2.20
   7  -1  -3   18.67    2.51
  -7  -1   3   21.31    1.75
   7  -1  -3   25.68    2.76
  -7   1   3   19.41    1.73
   7   1  -3   24.44    2.77
   5  -1  -3   85.13    4.52
  -5  -1   3   77.35    2.65
   5  -1  -3   71.62    3.73
  -5  -1   3   77.25    3.82
  -5   1   3   75.73    3.53
  -5   1   3   76.05    2.64
   5   1  -3   69.63    3.69
   5   1  -3   68.47    4.43
  -5   1   3   73.52    3.42
   3  -1  -3   76.00    3.12
   3  -1  -3   82.64    3.57
  -3  -1   3   81.74    2.78
  -3  -1   3   80.35    2.27
  -3  -1   3   82.54    3.11
  -3   1   3   80.37    3.20
   3   1  -3   76.54    3.73
  -3   1   3   83.03    2.30
   3   1  -3   81.14    3.18
  -3   1   3   78.32    2.64
  -1  -1   3  147.43    3.81
  -1  -1   3  146.77    4.47
  -1   1   3  148.79    4.03
  -1   1   3  145.30    3.93
  -1   1   3  151.83    3.73
   1  -1   3  149.96    3.93
   1  -1   3  148.50    3.78
   3  -1   3   79.41    3.57
   3  -1   3   80.13    2.74
  -3   1  -3   78.08    2.16
   3   1   3   81.41    2.82
   3   1   3   73.96    3.66
   5  -1   3   78.18    4.50
  -5  -1  -3   74.61    2.56
   5   1   3   73.43    4.56
  -5   1  -3   74.26    2.68
   7  -1   3   19.13    3.34
   7   1   3   24.81    3.70
  10  -2  -3   46.72    3.78
 -10  -2   3   39.96    2.69
 -10   2   3   41.38    2.80
  10   2  -3   43.77    3.66
   8  -2  -3   17.62    2.57
  -8  -2   3   21.44    1.93
   8   2  -3   16.62    2.51
  -8   2   3   20.42    1.95
  -6  -2   3  146.98    5.68
  -6  -2   3  138.49    4.22
   6  -2  -3  136.19    5.29
  -6   2   3  138.67    4.26
   6   2  -3  145.17    5.52
  -6   2   3  139.06    5.32
   4  -2  -3   79.32    3.46
  -4  -2   3   77.99    3.41
  -4  -2   3   74.83    2.45
   4  -2  -3   75.60    3.84
  -4   2   3   76.33    3.00
   4   2  -3   71.24    3.53
  -4   2   3   73.86    2.49
   4   2  -3   77.47    4.28
  -4   2   3   71.32    3.17
  -2  -2   3  336.99    7.09
  -2  -2   3  329.22    8.19
  -2  -2   3  343.29    7.38
   2  -2  -3  337.48    7.72
   2   2  -3  343.13    7.85
  -2   2   3  339.79    8.63
  -2   2   3  337.94    7.99
   2   2  -3  332.96    8.94
   0  -2   3  151.89    4.22
   0  -2   3  145.96    3.85
   0  -2   3  148.35    3.94
   0   2   3  145.97    3.40
   0   2   3  141.88    3.94
   0   2   3  143.00    3.45
   2  -2   3  338.87    8.58
   2  -2   3  348.93    8.18
   2   2   3  336.85    8.69
   2   2   3  347.32    7.92
   4  -2   3   67.28    3.87
  -4  -2  -3   76.83    2.36
  -4   2  -3   75.66    2.49
   4   2   3   81.92    3.16
   4   2   3   72.92    4.29
   6  -2   3  133.15    6.33
   6   2   3  126.36    6.50
  -6   2  -3  133.77    4.18
   8  -2   3   15.21    3.44
   8   2   3   19.57    3.82
  -9  -3   3    1.38    1.13
   9  -3  -3    3.23    1.84
  -9   3   3    1.12    1.15
   9   3  -3    1.29    1.81
   7  -3  -3    4.71    1.72
  -7  -3   3    3.06    1.02
   7   3  -3    4.43    1.77
  -7   3   3    4.06    1.11
  -5  -3   3   -0.19    1.20
   5  -3  -3   -0.09    1.11
  -5  -3   3    0.38    0.63
  -5   3   3   -0.93    0.60
   5   3  -3   -0.59    1.57
   5   3  -3   -0.21    1.14
  -5   3   3   -1.14    1.06
   3  -3  -3    5.03    1.06
   3  -3  -3    4.97    1.18
  -3  -3   3    5.86    1.17
  -3  -3   3    5.95    0.66
  -3   3   3    5.98    0.82
   3   3  -3    5.13    1.10
  -3   3   3    6.02    1.10
   3   3  -3    6.53    1.67
  -3   3   3    5.05    0.69
  -1  -3   3    2.40    0.80
  -1  -3   3    2.78    0.79
  -1  -3   3    2.20    0.45
  -1  -3   3    2.45    1.18
  -1  -3   3    1.99    0.34
  -1   3   3    1.49    0.79
   1   3  -3    2.46    0.63
   1   3  -3    2.15    1.17
  -1   3   3    1.38    0.63
  -1   3   3    1.83    0.80
   1  -3   3    2.09    0.82
   1  -3   3    1.95    0.91
   1   3   3    1.97    0.82
  -1   3  -3    1.92    0.41
   1   3   3    2.04    0.62
   3  -3   3    5.58    1.03
   3  -3   3    4.74    1.33
   3   3   3    5.23    0.95
  -3   3  -3    4.36    0.96
   3   3   3    6.15    1.58
  -3   3  -3    6.00    0.72
   5  -3   3   -0.25    1.40
  -5  -3  -3    0.30    0.58
   5   3   3   -2.42    1.58
  -5   3  -3    0.22    0.66
   7  -3   3    1.54    2.24
   7   3   3    1.26    2.47
  -7   3  -3    5.17    1.22
  10  -4  -3    7.61    2.12
 -10  -4   3    9.04    1.60
  10   4  -3    7.49    1.96
 -10   4   3   10.40    1.73
  -8  -4   3   90.95    3.69
   8  -4  -3   94.00    4.91
   8   4  -3   86.54    4.46
  -8   4   3   90.86    3.76
  -6  -4   3   32.73    2.06
  -6  -4   3   39.65    3.32
   6  -4  -3   31.39    2.84
  -6   4   3   32.97    3.04
   6   4  -3   30.30    2.97
  -6   4   3   34.72    2.14
   4  -4  -3  224.83    6.69
   4  -4  -3  235.16    7.32
  -4  -4   3  232.13    5.71
  -4  -4   3  245.48    7.03
   4   4  -3  239.21    7.01
  -4   4   3  230.64    5.81
   4   4  -3  248.82    8.45
  -4   4   3  237.03    6.97
  -4   4   3  243.23    6.20
   2  -4  -3   87.90    3.02
  -2  -4   3   84.74    3.27
  -2  -4   3   87.14    2.83
  -2  -4   3   85.17    2.38
  -2   4   3   88.69    3.14
   2   4  -3   88.35    3.29
  -2   4   3   87.84    3.61
   2   4  -3   88.56    4.16
   0  -4   3  407.12    8.40
   0  -4   3  377.85    9.60
   0  -4   3  408.09   10.09
   0  -4   3  403.21    9.06
   0  -4   3  404.02    8.34
   0   4   3  403.21    9.45
   0   4   3  400.90    9.14
   0   4  -3  411.46    8.87
   0   4  -3  411.04   10.10
   0   4   3  404.22    9.38
   2  -4   3   88.26    2.15
   2  -4   3   90.89    2.21
   2  -4   3   92.76    3.60
  -2   4  -3   85.88    3.33
   2   4   3   88.65    3.78
   2   4   3   89.29    3.05
  -2   4  -3   88.37    2.59
   4  -4   3  230.29    7.51
   4  -4   3  233.15    5.11
   4  -4   3  229.45    5.26
  -4  -4  -3  236.57    5.59
   4   4   3  241.27    6.78
  -4   4  -3  233.73    5.86
  -4   4  -3  234.27    6.81
   4   4   3  226.64    8.12
   6  -4   3   44.85    4.06
   6   4   3   36.26    4.22
  -6   4  -3   34.23    2.30
   8   4   3   99.04    7.62
  -8   4  -3   84.17    3.98
 -10   4  -3   13.58    2.27
   9  -5  -3   17.14    2.59
  -9  -5   3   11.73    1.75
  -9   5   3   12.84    1.76
   9   5  -3   10.70    2.32
   9   5  -3   14.75    2.31
   7  -5  -3   35.11    3.20
  -7  -5   3   34.51    2.29
  -7   5   3   35.76    2.36
   7   5  -3   35.65    3.25
  -5  -5   3   56.22    3.42
  -5  -5   3   47.81    2.30
   5  -5  -3   46.78    3.27
   5   5  -3   45.29    3.37
  -5   5   3   53.24    3.28
   5   5  -3   49.62    4.55
  -5   5   3   49.57    2.39
   3  -5  -3   87.94    3.58
   3  -5  -3   95.26    3.60
   3  -5  -3   94.07    3.91
  -3  -5   3   95.11    2.78
  -3  -5   3   96.02    3.82
  -3   5   3   91.65    2.94
  -3   5   3   93.39    2.74
   3   5  -3   97.45    4.97
   3   5  -3   89.25    3.84
  -3   5   3   86.64    3.67
  -1  -5   3  118.64    3.27
  -1  -5   3  119.57    3.33
  -1  -5   3  118.15    3.00
   1  -5  -3  115.20    3.46
  -1  -5   3  115.22    3.95
   1  -5  -3  118.05    3.40
  -1   5   3  117.64    3.90
   1   5  -3  113.18    4.64
   1   5  -3  124.14    3.82
  -1   5   3  118.04    3.38
  -1   5   3  112.77    4.00
   1  -5   3  122.32    4.19
   1  -5   3  122.13    2.99
   1  -5   3  121.33    2.99
  -1   5  -3  127.30    4.40
   1   5   3  118.82    3.78
   1   5   3  110.79    4.15
  -1   5  -3  120.97    3.48
   3  -5   3   95.15    4.18
   3  -5   3   92.29    2.60
  -3  -5  -3   90.19    2.77
   3  -5   3   93.13    2.44
   3   5   3   89.16    4.62
   3   5   3   94.71    3.60
  -3   5  -3   91.69    3.79
  -3   5  -3   95.05    3.01
   5  -5   3   51.39    1.67
   5  -5   3   63.45    4.05
   5  -5   3   45.23    1.86
   5   5   3   48.23    4.45
  -5   5  -3   47.09    2.46
   7  -5   3   37.04    4.16
   7   5   3   37.59    4.73
  -7   5  -3   31.29    2.49
  -9   5  -3   17.68    2.38
  10  -6  -3    1.94    1.80
 -10  -6   3    5.27    1.54
  10   6  -3    6.28    1.90
 -10   6   3    5.14    1.50
   8  -6  -3    4.75    1.91
  -8  -6   3    4.04    1.22
  -8   6   3    4.01    1.31
   8   6  -3    2.29    1.67
  -6  -6   3   13.82    1.43
   6  -6  -3   14.15    2.18
   6   6  -3   11.44    2.10
  -6   6   3   14.02    2.33
  -6   6   3   14.68    1.58
  -4  -6   3    6.41    0.93
  -4  -6   3    5.48    1.50
   4  -6  -3    7.53    1.54
  -4   6   3    4.62    1.06
  -4   6   3    5.51    1.55
  -4   6   3    5.37    0.99
   4   6  -3    7.17    2.18
   4   6  -3    3.12    1.39
  -2  -6   3   10.79    1.50
  -2  -6   3    8.71    0.89
   2  -6  -3   10.22    1.33
  -2   6   3    7.10    1.40
   2   6  -3   11.91    2.06
   2   6  -3    9.22    1.46
   0  -6   3    0.11    0.46
   0  -6  -3    0.45    0.61
   0  -6   3    0.86    0.51
   0  -6   3    1.25    0.96
   0   6   3    0.38    0.96
   0   6  -3    2.10    1.19
   0   6   3   -0.87    0.73
   0   6  -3    0.43    0.75
   2  -6   3   10.85    0.89
  -2  -6  -3   10.96    0.99
   2  -6   3    8.69    1.60
   2  -6   3    8.87    0.76
  -2   6  -3    8.97    1.53
  -2   6  -3    9.25    1.10
   2   6   3    9.08    1.33
   2   6   3   11.03    1.89
   4  -6   3    2.13    0.75
   4  -6   3    4.62    1.69
   4  -6   3    5.52    0.67
  -4   6  -3    5.26    1.07
   4   6   3    1.18    1.96
   6  -6   3   12.69    1.11
   6  -6   3   12.36    2.57
  -6   6  -3   15.59    1.76
   6   6   3   13.01    3.16
  -8   6  -3    3.23    1.53
   8   6   3    2.93    2.97
 -10   6  -3    8.04    2.11
   9  -7  -3    3.97    1.94
  -9  -7   3    4.81    1.45
  -9   7   3    8.07    1.57
   9   7  -3    9.02    2.14
   9   7  -3    7.57    1.86
   7  -7  -3   29.88    3.08
  -7  -7   3   28.15    2.14
   7   7  -3   34.76    3.21
  -7   7   3   38.27    2.43
  -5  -7   3   17.93    1.51
   5  -7  -3   23.66    2.43
  -5   7   3   18.89    2.43
  -5   7   3   17.87    1.63
   5   7  -3   18.56    2.56
  -3  -7   3   73.64    2.59
  -3  -7   3   70.17    3.55
   3  -7  -3   67.66    3.37
   3   7  -3   73.19    3.78
  -3   7   3   68.75    2.50
  -3   7   3   67.13    3.68
  -3   7   3   76.26    2.47
   3   7  -3   76.17    4.93
   1  -7  -3   62.42    2.70
  -1  -7   3   61.28    3.19
  -1  -7   3   60.00    2.18
  -1  -7   3   65.58    2.29
  -1   7   3   71.06    3.52
  -1   7   3   61.70    2.27
   1   7  -3   54.10    3.03
  -1   7   3   63.00    3.28
   1   7  -3   64.41    4.00
   1  -7   3   61.48    2.17
   1  -7   3   62.80    2.21
   1  -7   3   66.68    3.37
  -1  -7  -3   60.26    2.42
   1   7   3   65.58    3.68
  -1   7  -3   64.91    3.71
  -1   7  -3   62.51    2.82
   1   7   3   60.48    3.05
   3  -7   3   72.27    4.02
  -3  -7  -3   67.15    2.62
   3  -7   3   67.64    2.46
   3  -7   3   72.28    2.31
   3   7   3   77.78    4.65
  -3   7  -3   70.42    3.78
  -3   7  -3   75.17    3.06
   5  -7   3   23.19    1.58
   5  -7   3   20.87    2.85
  -5   7  -3   19.90    1.98
   5   7   3   20.94    3.47
  -7   7  -3   29.27    2.69
   7   7   3   42.07    5.17
  -9   7  -3    9.25    2.06
  10  -8  -3    3.46    1.86
 -10  -8   3    4.19    1.47
   8  -8  -3   26.19    2.93
  -8  -8   3   22.15    2.07
   8   8  -3   24.12    2.80
  -8   8   3   22.49    2.09
   6  -8  -3   13.80    2.17
  -6  -8   3   12.84    1.48
   6   8  -3   10.79    2.21
  -6   8   3    9.06    1.43
   4  -8  -3   66.22    3.55
  -4  -8   3   61.40    2.54
  -4   8   3   64.83    3.96
   4   8  -3   64.34    3.94
  -4   8   3   54.38    2.51
  -2  -8   3   37.61    1.80
   2  -8  -3   36.58    2.53
  -2  -8   3   35.45    1.90
  -2  -8   3   35.24    2.74
   2   8  -3   40.48    2.97
   2   8  -3   35.61    3.62
  -2   8   3   36.09    2.89
  -2   8   3   37.28    1.88
   0  -8   3   74.50    3.73
   0  -8  -3   75.85    3.00
   0  -8   3   78.60    2.65
   0   8   3   77.46    4.05
   0   8   3   75.44    3.71
   0   8  -3   83.44    3.54
   0   8  -3   71.36    4.23
   2  -8   3   32.92    2.86
  -2  -8  -3   35.90    2.03
   2  -8   3   38.18    1.91
  -2   8  -3   36.71    2.46
  -2   8  -3   37.22    3.16
   2   8   3   43.31    3.61
   4  -8   3   61.02    4.22
   4  -8   3   59.88    2.41
  -4   8  -3   57.67    3.09
   4   8   3   55.51    4.91
   6  -8   3    9.02    2.58
   6  -8   3   11.27    1.19
  -6   8  -3   16.39    2.09
   6   8   3   14.86    3.57
  -8   8  -3   21.71    2.63
   8   8   3   29.38    5.19
 -10   8  -3    6.84    2.15
  -9  -9   3    3.86    1.43
   9  -9  -3    5.28    2.00
   9   9  -3    1.85    1.69
  -7  -9   3   -0.03    0.99
   7  -9  -3    1.97    1.60
   7   9  -3    1.66    1.70
  -7   9   3    1.13    1.06
   5  -9  -3    4.37    1.59
  -5  -9   3    4.23    1.06
  -5   9   3    6.88    2.05
   5   9  -3    7.45    1.97
  -5   9   3    5.25    1.13
   3  -9  -3    2.14    1.18
  -3  -9   3    0.59    1.35
  -3  -9   3    3.04    0.88
  -3   9   3    1.97    0.94
   3   9  -3    1.68    1.48
  -3   9   3    2.37    1.59
  -1  -9   3    6.14    0.98
  -1  -9   3    8.31    1.71
   1  -9  -3    9.76    1.38
   1   9  -3    8.00    2.19
   1   9  -3    6.35    1.53
  -1   9   3    8.19    1.91
   1  -9   3    8.24    1.06
   1  -9   3    9.45    1.87
  -1  -9  -3    6.73    1.11
   1   9   3    8.28    2.11
  -1   9  -3    7.74    1.49
  -1   9  -3    8.94    1.99
   3  -9   3    1.90    0.89
   3  -9   3    1.03    1.47
   3   9   3    5.95    2.29
  -3   9  -3    3.61    1.23
   5  -9   3    4.22    1.01
   5  -9   3    6.39    2.19
  -5   9  -3    4.01    1.38
   5   9   3    4.53    2.72
   7   9   3   -1.57    2.80
  -7   9  -3    2.29    1.53
  -9   9  -3   -0.06    1.71
  -8 -10   3    4.64    1.35
   8 -10  -3    4.84    1.99
   8  10  -3    4.68    1.77
  -6 -10   3   59.98    2.96
   6 -10  -3   54.78    3.83
   6  10  -3   65.80    4.10
   4 -10  -3    8.61    1.77
  -4 -10   3    7.70    1.20
   4  10  -3   11.25    2.08
  -4  10   3    3.83    1.98
  -2 -10   3  100.22    3.47
   2 -10  -3  101.08    4.09
   2  10  -3   94.77    4.62
  -2  10   3  103.41    5.17
   0 -10   3   10.36    1.99
   0 -10   3   13.81    1.35
   0  10   3   19.59    2.76
   0  10  -3    9.23    1.72
   2 -10   3  100.79    4.90
   2 -10   3   97.04    3.41
  -2  10  -3  102.77    4.38
   2  10   3  109.73    5.88
   4 -10   3   11.76    2.46
   4 -10   3    6.76    1.16
   4  10   3   10.73    3.10
  -4  10  -3    8.58    1.81
   6 -10   3   60.46    2.55
  -6  10  -3   60.63    3.78
   6  10   3   65.46    6.50
  -8  10  -3    2.74    1.78
   9 -11  -3    8.17    2.25
  -7 -11   3   19.32    2.01
   7 -11  -3   19.51    2.80
   7  11  -3   18.47    2.52
   5 -11  -3   25.94    2.79
  -5 -11   3   24.14    1.98
   5  11  -3   25.48    2.95
   3 -11  -3   40.08    2.94
  -3 -11   3   33.31    2.17
   3  11  -3   41.39    3.38
  -3  11   3   39.41    3.91
  -1 -11   3   48.59    2.45
   1  11  -3   53.49    3.79
  -1  11   3   44.76    4.11
   1 -11   3   49.17    2.45
   1 -11   3   50.43    3.79
   1  11   3   46.72    4.37
  -1  11  -3   48.26    3.51
   3 -11   3   39.96    2.28
  -3  11  -3   36.47    3.08
   3  11   3   44.20    4.69
   5 -11   3   24.18    1.83
  -5  11  -3   25.74    2.84
   5  11   3   22.99    4.18
  -7  11  -3   11.73    2.28
   7  11   3   15.88    4.29
  -9  11  -3   10.73    2.54
  -8 -12   3    7.73    1.56
   8 -12  -3    4.31    1.97
   6 -12  -3    0.90    1.66
  -6 -12   3    0.52    1.05
   6  12  -3    1.26    1.67
   4 -12  -3    5.49    1.61
  -4 -12   3    4.59    1.19
  -4  12   3    8.62    2.66
   4  12  -3    9.89    2.16
  -2 -12   3    1.12    0.95
  -2  12   3   -2.33    1.86
   2  12  -3   -0.69    1.42
   0 -12   3    4.57    1.10
   0  12  -3    4.12    1.65
   0  12   3    3.04    2.18
   2 -12   3    0.10    0.88
  -2  12  -3   -0.11    1.32
   2  12   3    0.35    2.25
   4 -12   3    6.10    1.23
  -4  12  -3    6.73    1.88
   4  12   3    3.58    2.92
   6 -12   3    0.83    0.94
  -6  12  -3   -0.33    1.56
   6  12   3   -0.96    3.04
  -8  12  -3    4.80    2.10
   7 -13  -3    3.63    1.97
  -7 -13   3    4.71    1.45
   7  13  -3    3.28    1.60
  -5 -13   3   24.15    2.14
   5 -13  -3   29.56    3.14
   5  13  -3   23.31    2.85
  -3 -13   3   11.41    1.56
   3  13  -3   13.85    2.41
  -3  13   3   14.07    3.12
  -1 -13   3   24.99    1.99
  -1  13   3   31.46    4.07
   1  13  -3   30.49    3.08
   1 -13   3   28.56    2.09
   1  13   3   28.98    4.09
  -1  13  -3   31.40    3.06
   3 -13   3   16.08    1.65
   3  13   3   10.08    3.42
  -3  13  -3   10.03    2.05
   5 -13   3   20.12    1.78
   5  13   3   24.08    4.84
  -5  13  -3   20.11    2.77
  -7  13  -3    5.97    2.14
  -6 -14   3    3.86    1.31
   6 -14  -3    3.77    1.90
   6  14  -3    0.64    1.58
   4 -14  -3    1.01    1.59
  -4 -14   3    1.70    1.14
   4  14  -3    0.29    1.68
  -2 -14   3    4.40    1.27
   2  14  -3   -1.91    1.44
  -2  14   3    5.70    2.79
   0 -14   3    5.80    1.30
   0  14  -3    5.31    1.94
   0  14   3    4.63    2.62
   2 -14   3    2.57    1.13
   2  14   3   -0.63    2.68
  -2  14  -3    5.12    1.84
   4 -14   3    2.46    1.13
   4  14   3   -0.40    3.16
  -4  14  -3    0.83    1.67
   6 -14   3    1.66    0.99
  -6  14  -3    3.80    1.94
  -5 -15   3    2.35    1.25
   5 -15  -3    1.95    1.66
   5  15  -3    0.30    1.54
  -3 -15   3    0.69    1.14
   3  15  -3    1.51    1.81
  -1 -15   3    5.72    1.38
   1  15  -3    5.44    1.95
   1 -15   3    0.41    1.08
  -1  15  -3    2.73    1.84
   1  15   3   -0.32    2.65
   3 -15   3    1.34    1.12
  -3  15  -3    1.18    1.67
   3  15   3    3.50    3.37
   5 -15   3   -0.05    1.01
  -5  15  -3   -0.46    1.72
   6 -16  -3    4.72    1.98
   4 -16  -3   12.99    2.37
  -4 -16   3   11.14    1.74
   4  16  -3   12.19    2.27
  -2 -16   3    2.15    1.20
   2  16  -3   -0.08    1.64
   0 -16   3   10.68    1.64
   0  16  -3    7.97    2.21
   2 -16   3   -0.14    1.08
  -2  16  -3    0.73    1.76
   4 -16   3   11.89    1.60
  -4  16  -3   10.67    2.43
   5 -17  -3    4.07    1.93
  -3 -17   3    7.42    1.55
   3  17  -3    7.29    2.02
  -1 -17   3   10.38    1.71
   1  17  -3   11.56    2.33
   1 -17   3    9.16    1.60
  -1  17  -3   11.68    2.40
   3 -17   3    9.37    1.57
  -3  17  -3    5.22    2.14
  -2 -18   3   -0.46    1.22
   2  18  -3   -0.94    1.65
   0 -18   3    1.32    1.31
   0  18  -3    0.64    1.69
   2 -18   3   -0.20    1.16
  -2  18  -3    3.29    1.97
 -10   0   4    5.62    1.40
  10   0  -4    5.54    2.17
   8   0  -4   31.13    3.19
  -8   0   4   24.28    1.95
   6   0  -4    6.78    1.87
  -6   0   4    3.97    1.40
  -6   0   4    3.60    0.87
  -6   0   4    4.53    1.73
  -4   0   4  130.56    3.31
   4   0  -4  122.76    4.55
  -4   0   4  125.70    4.62
   4   0  -4  122.05    5.03
  -4   0   4  127.68    3.69
  -2   0   4    0.18    0.72
  -2   0   4    3.76    1.22
   0   0   4  382.23    9.00
   2   0   4    0.33    0.54
   2   0   4    0.96    0.90
   4   0   4  133.83    5.18
   4   0   4  119.80    4.18
   6   0   4    2.72    1.92
   8   0   4   24.29    3.98
 -11  -1   4    4.75    1.43
  -9  -1   4    1.33    1.07
   9  -1  -4    0.90    1.87
   9   1  -4    0.14    1.67
   9   1  -4    3.17    2.02
  -9   1   4    1.20    1.08
   7  -1  -4   22.61    2.84
  -7  -1   4   18.66    1.61
  -7   1   4   16.85    1.60
  -7   1   4   19.64    2.46
   7   1  -4   20.99    2.79
  -5  -1   4   20.07    2.32
   5  -1  -4   19.87    2.24
  -5  -1   4   20.60    1.37
   5   1  -4   19.74    2.26
  -5   1   4   20.80    2.39
  -5   1   4   18.92    1.62
  -5   1   4   23.74    2.13
  -5   1   4   22.29    1.49
  -3  -1   4   63.22    1.95
  -3  -1   4   60.56    1.72
   3  -1  -4   65.06    2.77
  -3  -1   4   63.21    2.81
   3   1  -4   61.91    2.74
  -3   1   4   56.82    3.42
   3   1  -4   61.56    3.31
  -3   1   4   61.68    2.85
  -1  -1   4   75.07    3.13
  -1  -1   4   78.70    2.45
  -1  -1   4   77.13    2.73
  -1   1   4   81.45    2.80
  -1   1   4   76.11    2.63
  -1   1   4   73.65    2.28
   1  -1   4   76.15    2.45
   1  -1   4   76.64    2.39
   3  -1   4   67.77    2.51
   3  -1   4   64.90    3.22
   3   1   4   64.06    2.49
   3   1   4   63.69    3.32
   5  -1   4   23.64    2.89
   5   1   4   18.27    2.69
   7  -1   4   25.37    3.63
   7   1   4   16.98    3.23
   9  -1   4    0.52    2.83
   9   1   4    0.27    2.89
 -10  -2   4    1.84    1.16
  10  -2  -4   -2.27    1.58
 -10   2   4   -0.82    1.12
  10   2  -4    0.68    1.79
   8  -2  -4   21.08    2.93
  -8  -2   4   15.09    1.63
  -8   2   4   16.55    1.70
   8   2  -4   12.95    2.44
   6  -2  -4    8.99    2.00
  -6  -2   4    7.44    1.92
  -6  -2   4    6.67    1.01
  -6   2   4    6.22    1.60
   6   2  -4    5.42    1.74
  -6   2   4    6.82    1.04
   4  -2  -4   25.40    2.11
  -4  -2   4   25.22    1.67
  -4  -2   4   23.21    2.11
  -4  -2   4   24.31    1.36
   4  -2  -4   23.19    2.30
   4   2  -4   24.50    2.64
  -4   2   4   19.24    1.84
  -4   2   4   25.00    1.34
   4   2  -4   26.18    2.21
  -4   2   4   25.54    1.57
  -2  -2   4   70.78    3.71
  -2  -2   4   73.17    2.83
  -2   2   4   74.89    2.76
   2   2  -4   75.26    2.65
  -2   2   4   77.02    3.24
   0  -2   4   25.18    1.69
   0  -2   4   25.10    1.61
   0  -2   4   23.68    1.51
   0   2   4   21.89    1.70
   2  -2   4   70.59    2.99
   2  -2   4   75.17    2.64
   2   2   4   73.09    2.29
   2   2   4   73.38    3.10
   4  -2   4   22.63    1.74
   4  -2   4   23.59    2.48
   4   2   4   23.10    2.67
   4   2   4   21.75    1.73
  -4   2  -4   25.68    1.48
   6  -2   4    9.29    2.42
   6   2   4    7.38    2.47
   8  -2   4   15.87    3.45
   8   2   4   18.58    3.79
   9  -3  -4    2.37    1.95
  -9  -3   4    3.70    1.20
   9   3  -4    3.79    1.95
   9   3  -4    4.04    1.81
  -9   3   4    1.96    1.14
   7  -3  -4    4.27    1.81
   7  -3  -4    3.60    1.87
  -7  -3   4    6.28    1.11
  -7   3   4    4.67    1.79
  -7   3   4    4.21    1.07
   7   3  -4    2.60    1.84
  -5  -3   4    3.85    1.44
   5  -3  -4    5.74    1.58
  -5  -3   4    4.77    0.84
  -5   3   4    3.89    0.79
   5   3  -4    3.88    1.55
  -5   3   4    3.32    1.33
  -5   3   4    2.38    0.89
   3  -3  -4   11.08    1.31
  -3  -3   4    9.04    0.74
  -3  -3   4   13.52    1.60
  -3  -3   4   10.15    0.97
  -3   3   4   11.39    1.80
   3   3  -4   11.10    1.96
  -3   3   4   11.16    1.35
   3   3  -4   10.42    1.39
  -1  -3   4    9.36    1.11
  -1  -3   4    9.25    1.57
  -1  -3   4    9.54    1.23
  -1   3   4   10.13    1.14
  -1   3   4    8.89    0.91
  -1   3   4   10.12    1.24
   1   3  -4   11.03    0.91
   1  -3   4   10.97    1.30
   1  -3   4   11.32    1.30
   1   3   4    9.51    0.82
   1   3   4   10.56    1.05
   3  -3   4   10.16    1.23
   3  -3   4   10.17    1.62
  -3   3  -4   10.35    0.84
   3   3   4   10.40    1.16
   3   3   4    9.83    1.82
   5  -3   4    4.12    1.81
   5   3   4    6.23    2.21
  -5   3  -4    3.23    0.82
   7  -3   4    9.73    2.64
   7   3   4    6.04    2.72
   9   3   4    3.54    3.11
 -10  -4   4   24.07    2.17
  10  -4  -4   27.52    3.35
  10   4  -4   25.32    3.12
   8  -4  -4   24.02    3.04
  -8  -4   4   20.47    1.90
  -8   4   4   23.76    1.91
   8   4  -4   23.86    2.95
   6  -4  -4   73.46    3.97
  -6  -4   4   63.67    2.70
  -6  -4   4   66.87    4.07
   6  -4  -4   71.11    4.10
  -6   4   4   68.55    2.70
  -6   4   4   77.15    4.07
   6   4  -4   64.57    4.13
   4  -4  -4  145.70    5.11
  -4  -4   4  153.31    3.94
  -4  -4   4  151.88    4.50
  -4  -4   4  146.85    5.27
   4   4  -4  152.85    5.40
   4   4  -4  139.35    6.28
  -4   4   4  150.26    5.10
  -2  -4   4  119.30    3.13
  -2  -4   4  115.64    3.97
  -2  -4   4  122.46    2.91
   2   4  -4  117.38    4.83
  -2   4   4  121.64    3.84
   2   4  -4  123.95    3.97
  -2   4   4  115.74    4.30
   0  -4   4  348.47    8.94
   0  -4   4  337.25    8.12
   0  -4   4  352.40    8.50
   0   4  -4  335.90    7.55
   0   4   4  337.51    8.06
   0   4   4  339.85    8.05
   0   4   4  336.12    8.20
   2  -4   4  123.73    4.07
   2  -4   4  114.07    4.20
   2   4   4  120.37    3.64
   2   4   4  108.41    4.21
  -2   4  -4  126.43    3.15
   4  -4   4  151.17    5.68
  -4   4  -4  146.28    4.16
   4   4   4  145.11    6.19
   6  -4   4   64.31    4.92
   6   4   4   64.47    5.34
   8  -4   4   23.02    3.84
   8   4   4   23.31    4.36
  -9  -5   4    0.71    1.09
   9  -5  -4   -0.76    1.75
   9   5  -4   -1.36    1.48
   7  -5  -4    6.06    1.85
  -7  -5   4    4.62    1.10
   7   5  -4    5.82    1.92
  -7   5   4    3.41    1.08
   5  -5  -4   11.49    2.03
  -5  -5   4    8.06    1.03
  -5  -5   4    7.22    1.67
   5  -5  -4    6.64    1.65
  -5   5   4    5.79    0.90
  -5   5   4    8.46    1.07
   5   5  -4    8.04    1.87
  -5   5   4    5.18    1.53
   3  -5  -4   17.59    1.71
  -3  -5   4   15.83    1.08
  -3  -5   4   18.91    1.43
  -3  -5   4   13.06    1.72
  -3   5   4   18.36    1.82
   3   5  -4   18.18    1.92
   3   5  -4   18.09    2.55
  -1  -5   4   21.77    1.63
  -1  -5   4   23.94    1.01
  -1  -5   4   24.36    1.18
  -1  -5   4   21.73    1.80
  -1   5   4   22.17    1.80
  -1   5   4   22.29    1.71
   1   5  -4   22.09    2.32
   1   5  -4   20.00    1.55
  -1   5   4   22.14    1.54
   1  -5   4   21.48    1.85
   1  -5   4   24.18    2.00
   1   5   4   18.06    1.71
  -1   5  -4   22.79    1.43
  -1   5  -4   24.09    2.09
   1   5   4   21.63    1.55
   3  -5   4   15.88    2.03
   3   5   4   18.66    1.70
   3   5   4   21.59    2.56
  -3   5  -4   20.36    1.39
   5  -5   4    7.03    2.03
  -5   5  -4    6.64    1.15
   5   5   4    5.98    2.39
   7  -5   4    5.19    2.40
   7   5   4    5.10    2.80
   9   5   4    7.21    3.48
  10  -6  -4    5.19    2.08
 -10  -6   4    4.79    1.39
  10   6  -4    7.85    2.18
   8  -6  -4    2.15    1.92
  -8  -6   4    3.44    1.20
   8   6  -4    4.31    1.93
   6  -6  -4   39.59    3.35
  -6  -6   4   40.94    2.24
  -6   6   4   39.79    3.49
   6   6  -4   38.53    3.47
  -6   6   4   38.18    2.05
  -4  -6   4    0.81    0.65
   4  -6  -4    0.30    1.06
  -4  -6   4    1.24    1.23
   4   6  -4   -0.46    1.20
  -4   6   4   -0.44    1.17
   2  -6  -4  124.57    3.89
  -2  -6   4  112.48    3.08
  -2  -6   4  114.04    4.33
  -2  -6   4  113.31    3.62
  -2  -6   4  117.67    3.42
   2  -6  -4  115.79    3.90
  -2   6   4  115.27    4.27
  -2   6   4  117.53    4.58
   2   6  -4  109.62    5.26
   2   6  -4  114.89    4.28
  -2   6   4  110.07    3.73
   0  -6   4    2.77    0.50
   0  -6   4    4.16    1.19
   0  -6   4    1.99    0.48
   0   6   4    3.88    1.18
   0   6   4    2.95    1.00
   0   6  -4    2.85    0.86
   0   6  -4    5.24    1.44
   0   6   4    2.85    1.02
   2  -6   4  116.93    4.68
   2  -6   4  113.12    2.77
   2  -6   4  115.11    2.73
   2   6   4  117.51    4.79
   2   6   4  118.76    4.08
  -2   6  -4  114.97    4.60
  -2   6  -4  117.99    3.61
   4  -6   4   -0.62    1.38
  -4   6  -4    1.67    0.85
   4   6   4    0.25    1.81
   6  -6   4   37.23    3.88
  -6   6  -4   35.52    2.58
   6   6   4   40.60    4.61
   8   6   4    6.67    3.13
  -9  -7   4   17.29    1.94
   9  -7  -4   17.59    2.83
   9   7  -4   20.08    2.71
   7  -7  -4    5.95    1.97
  -7  -7   4   10.33    1.40
   7   7  -4    9.43    2.16
   5  -7  -4   58.12    3.68
  -5  -7   4   61.12    2.59
  -5  -7   4   60.54    3.87
  -5   7   4   58.59    3.85
   5   7  -4   64.29    4.34
  -3  -7   4   39.39    1.83
  -3  -7   4   39.88    2.94
   3  -7  -4   39.18    2.66
  -3   7   4   39.03    3.01
   3   7  -4   34.32    3.60
   3   7  -4   46.36    3.22
  -1  -7   4   86.65    2.62
   1  -7  -4   93.57    3.30
  -1  -7   4   89.68    3.86
  -1  -7   4   86.46    3.01
  -1  -7   4   88.73    2.80
   1   7  -4   87.89    3.70
  -1   7   4   89.48    3.11
  -1   7   4   90.54    3.86
  -1   7   4   91.58    4.00
   1   7  -4   90.27    4.63
   1  -7   4   88.47    2.47
   1  -7   4   85.37    3.87
   1  -7   4   88.30    2.45
   1   7   4   87.32    3.59
  -1   7  -4   89.74    3.36
  -1   7  -4   84.69    4.25
   1   7   4   82.28    4.05
   3  -7   4   35.24    1.45
   3  -7   4   39.46    1.39
   3  -7   4   39.60    3.26
   3   7   4   42.28    3.69
  -3   7  -4   37.28    2.24
   5  -7   4   62.03    4.28
  -5   7  -4   58.29    3.07
   5   7   4   54.65    5.00
   7  -7   4    7.34    2.60
   7   7   4    3.55    2.83
  -7   7  -4    6.93    1.70
  -8  -8   4    4.07    1.22
   8  -8  -4    4.76    2.00
   8   8  -4    4.81    1.97
   6  -8  -4    3.44    1.70
  -6  -8   4    2.39    0.98
   6   8  -4    1.81    1.74
  -6   8   4    0.76    1.77
  -4  -8   4    0.60    0.70
  -4  -8   4    1.70    1.40
   4  -8  -4    1.60    1.20
  -4   8   4   -0.55    1.36
   4   8  -4   -1.86    1.32
  -2  -8   4    0.07    0.87
  -2  -8   4    1.64    1.31
  -2  -8   4    0.43    0.61
   2  -8  -4    3.26    1.11
  -2   8   4    0.43    1.26
   2   8  -4    1.64    1.73
   2   8  -4    2.16    1.25
  -2   8   4   -0.15    0.93
   0  -8   4    1.72    0.62
   0  -8   4    0.96    0.54
   0  -8   4    0.68    1.20
   0   8   4    2.40    1.20
   0   8  -4    0.15    0.90
   0   8  -4    3.78    1.64
   0   8   4    1.11    1.32
   2  -8   4   -0.55    0.52
   2  -8   4   -1.93    1.15
   2  -8   4    0.15    0.46
   2   8   4    2.63    1.68
  -2   8  -4    0.98    0.90
   4  -8   4    0.40    0.55
   4  -8   4    2.67    1.75
  -4   8  -4    0.45    0.97
   4   8   4    2.27    2.10
   6  -8   4    0.62    2.02
   6   8   4    1.43    2.69
  -6   8  -4    2.43    1.37
   8   8   4    5.84    3.47
  -8   8  -4    5.51    1.82
 -10   8  -4    4.54    2.14
  -9  -9   4    1.07    1.23
   9  -9  -4   -0.84    1.72
   9   9  -4    0.95    1.71
  -7  -9   4    1.33    1.07
   7  -9  -4    6.78    1.96
   7   9  -4    3.56    1.97
   5  -9  -4    2.78    1.45
  -5  -9   4    2.49    0.90
   5   9  -4    3.91    1.82
  -5   9   4    2.58    1.86
  -3  -9   4    3.04    0.85
  -3  -9   4    0.56    1.33
  -3  -9   4    1.64    1.08
  -3   9   4    2.46    1.55
   3   9  -4    2.71    1.57
  -3   9   4    1.23    1.05
  -1  -9   4    0.65    0.69
  -1  -9   4    1.30    0.94
  -1  -9   4    2.44    1.35
   1   9  -4    3.19    1.32
  -1   9   4    2.16    1.51
  -1   9   4    2.79    1.03
   1  -9   4    2.34    1.45
   1  -9   4    1.73    0.70
  -1   9  -4    1.55    1.15
   1   9   4   -0.33    1.46
   3  -9   4    1.93    0.70
   3  -9   4    3.99    1.69
   3   9   4    0.04    1.89
  -3   9  -4    0.98    1.10
   5  -9   4    3.06    2.13
  -5   9  -4    2.70    1.34
   5   9   4    9.86    3.08
   7   9   4    7.78    3.39
  -7   9  -4    5.70    1.77
  -9   9  -4    0.05    1.75
  -8 -10   4   47.16    2.88
   8 -10  -4   52.05    4.20
   8  10  -4   49.23    3.93
  -6 -10   4   93.98    3.62
   6 -10  -4   87.62    4.71
   6  10  -4   95.14    5.12
  -4 -10   4  104.79    3.58
   4  10  -4  108.32    5.27
  -4  10   4  107.71    5.61
  -2 -10   4  227.68    7.82
  -2 -10   4  246.31    6.17
   2  10  -4  245.70    7.85
  -2  10   4  244.92    8.39
   0 -10   4  144.19    4.11
   0 -10   4  151.42    5.88
   0  10  -4  145.75    5.50
   0  10   4  145.11    6.28
   2 -10   4  223.80    7.85
   2 -10   4  243.97    5.83
  -2  10  -4  231.33    7.13
   2  10   4  233.75    8.78
   4 -10   4  101.95    3.10
   4 -10   4  104.81    5.55
   4  10   4  103.48    6.56
  -4  10  -4  107.26    4.61
  -6  10  -4   90.59    4.61
   6  10   4   99.22    7.25
  -8  10  -4   63.10    4.28
   8  10   4   54.92    6.76
   9 -11  -4    4.40    2.15
  -7 -11   4    9.23    1.53
   7 -11  -4    5.66    2.00
   7  11  -4    7.23    2.15
  -5 -11   4    2.10    0.99
  -5  11   4    7.53    2.55
   5  11  -4    4.11    2.01
  -3 -11   4   11.69    1.36
   3  11  -4   15.00    2.53
  -3  11   4   13.79    2.62
  -1 -11   4    8.46    1.93
  -1 -11   4    8.59    1.17
  -1  11   4    7.89    2.36
   1  11  -4    5.30    1.75
   1 -11   4    9.08    1.15
   1 -11   4    9.72    2.07
   1  11   4    9.94    2.54
  -1  11  -4    4.48    1.60
   3 -11   4   13.35    1.28
   3 -11   4   16.68    2.63
  -3  11  -4   11.98    1.98
   3  11   4   12.41    3.13
   5 -11   4    0.96    0.70
  -5  11  -4    4.17    1.69
   5  11   4   -1.28    2.60
  -7  11  -4    5.84    2.07
   7  11   4    9.30    3.88
  -9  11  -4   -2.04    1.74
  -8 -12   4    3.57    1.35
   8 -12  -4    1.78    2.00
   8  12  -4    8.74    2.19
  -6 -12   4    0.72    1.07
   6 -12  -4    3.41    1.86
   6  12  -4   -0.40    1.75
  -4 -12   4   16.03    1.65
   4  12  -4   15.64    2.69
  -4  12   4   14.45    3.03
  -2 -12   4    0.12    0.84
   2  12  -4    0.85    1.57
  -2  12   4    1.23    2.00
   0 -12   4   30.25    1.97
   0  12   4   26.60    3.62
   0  12  -4   30.07    3.06
   2 -12   4    0.78    0.82
  -2  12  -4    0.22    1.39
   2  12   4   -0.01    2.20
   4 -12   4   15.20    1.37
   4  12   4   16.91    3.77
  -4  12  -4   16.77    2.45
   6  12   4    4.68    3.43
  -6  12  -4    0.03    1.67
  -8  12  -4    2.64    2.12
  -7 -13   4   31.36    2.45
   7 -13  -4   33.14    3.57
   7  13  -4   28.71    3.13
  -5 -13   4   11.03    1.53
   5  13  -4   11.61    2.53
  -3 -13   4   53.59    2.67
   3  13  -4   50.66    4.13
  -3  13   4   53.90    5.10
  -1 -13   4   42.63    2.36
  -1  13   4   42.26    4.50
   1  13  -4   42.73    3.73
   1 -13   4   37.17    2.18
   1  13   4   37.49    4.43
  -1  13  -4   39.87    3.54
   3 -13   4   52.95    2.46
   3  13   4   62.82    6.07
  -3  13  -4   62.85    4.10
  -5  13  -4   14.45    2.55
   5  13   4    7.99    3.68
  -7  13  -4   26.14    3.29
   6 -14  -4    2.70    1.91
  -6 -14   4    4.75    1.38
   6  14  -4    6.36    2.11
  -4 -14   4    0.18    1.01
   4  14  -4    2.38    1.93
  -2 -14   4    4.07    1.21
  -2  14   4    1.03    2.41
   2  14  -4    6.04    2.14
   0 -14   4    1.24    0.99
   0  14   4    3.27    2.54
   0  14  -4    1.88    1.87
   2 -14   4    2.71    1.06
   2  14   4    1.51    2.71
  -2  14  -4    0.94    1.73
   4 -14   4    0.60    0.89
  -4  14  -4   -1.43    1.52
   4  14   4    2.42    3.15
  -6  14  -4    0.28    1.86
  -5 -15   4    2.51    1.19
   5  15  -4    4.07    1.97
  -3 -15   4    1.04    1.06
   3  15  -4    2.85    1.98
  -1 -15   4    2.34    1.10
   1  15  -4    2.07    1.90
  -1  15   4    6.18    3.01
   1 -15   4    4.08    1.17
   1  15   4    7.24    3.15
  -1  15  -4    4.80    2.07
   3 -15   4   -0.40    0.94
  -3  15  -4   -0.21    1.70
   3  15   4   -3.18    2.75
  -5  15  -4    5.50    2.14
   6 -16  -4   32.84    3.47
  -4 -16   4   82.53    3.55
   4  16  -4   80.55    4.81
  -2 -16   4   69.80    3.15
   2  16  -4   57.89    4.46
   0 -16   4  121.64    4.16
   0  16   4  120.73    7.85
   0  16  -4  100.71    5.57
   2 -16   4   68.36    3.02
   2  16   4   64.28    6.89
  -2  16  -4   79.02    4.86
  -4  16  -4   82.58    5.11
  -3 -17   4    5.50    1.38
   3  17  -4    8.24    2.26
  -1 -17   4   11.32    1.61
   1  17  -4   14.30    2.63
   1 -17   4   16.40    1.72
  -1  17  -4   12.89    2.63
   3 -17   4    5.74    1.22
  -3  17  -4    6.73    2.32
  -2 -18   4    1.83    1.20
   2  18  -4    3.87    2.07
   0 -18   4   -1.43    1.00
   0  18  -4    0.54    1.89
   2 -18   4    2.00    1.08
  -2  18  -4    2.55    2.00
  10   0  -5    1.86    2.09
   8   0  -5   -1.16    1.72
  -8   0   5    0.85    0.89
   6   0  -5    6.80    1.93
  -6   0   5    3.83    1.78
  -6   0   5    6.01    0.91
  -4   0   5    5.94    1.42
   4   0  -5    5.06    1.20
  -2   0   5    3.25    0.86
  -2   0   5    2.19    1.16
   0   0   5    0.88    0.95
   2   0   5    3.51    0.62
   2   0   5    3.43    0.95
   4   0   5    6.23    1.66
   4   0   5    5.11    1.14
   6   0   5    4.12    2.23
   8   0   5    2.55    2.52
   9  -1  -5    8.15    2.44
  -9  -1   5    4.55    1.17
   9   1  -5    3.43    1.98
   9   1  -5    2.41    2.08
  -9   1   5    5.07    1.14
  -7  -1   5   49.22    2.29
  -7  -1   5   60.21    4.49
   7  -1  -5   51.85    4.07
   7   1  -5   49.40    3.99
  -7   1   5   52.80    3.64
  -7   1   5   49.80    2.24
   5  -1  -5   21.96    2.39
  -5  -1   5   21.11    1.33
  -5  -1   5   20.47    2.36
  -5  -1   5   17.34    1.31
  -5   1   5   17.09    2.29
   5   1  -5   19.83    2.33
  -3  -1   5   94.06    3.49
   3  -1  -5   84.90    3.22
  -3  -1   5   90.85    4.48
  -3   1   5   86.14    3.50
   3   1  -5   88.27    3.34
  -3   1   5   96.64    4.28
  -1  -1   5   67.99    2.75
  -1  -1   5   68.69    2.35
  -1  -1   5   66.51    3.00
  -1   1   5   68.63    2.18
  -1   1   5   67.29    2.75
  -1   1   5   68.09    2.53
   1  -1   5   68.52    2.30
   1  -1   5   66.64    2.25
   3  -1   5   98.05    3.11
   3  -1   5   88.09    3.75
   3   1   5   91.51    3.07
   3   1   5   88.65    3.85
   5  -1   5   20.41    2.69
   5   1   5   19.24    2.71
   7  -1   5   44.68    4.53
   7   1   5   46.98    4.76
   9  -1   5    8.62    3.41
   9   1   5    6.41    3.25
  10  -2  -5   40.54    3.98
 -10  -2   5   32.16    2.19
  10   2  -5   34.73    3.79
  -8  -2   5   16.12    1.54
   8  -2  -5   15.21    2.68
   8  -2  -5   16.13    2.65
   8   2  -5   17.27    2.76
  -8   2   5   13.26    1.39
  -6  -2   5   93.55    4.87
  -6  -2   5  102.18    3.12
  -6   2   5  108.63    4.61
   6   2  -5   88.79    4.82
  -4  -2   5   52.30    1.65
  -4  -2   5   55.86    3.03
  -4  -2   5   50.36    1.87
   4  -2  -5   57.39    3.18
   4   2  -5   48.15    3.05
  -4   2   5   48.70    2.66
  -4   2   5   45.55    2.92
   4   2  -5   50.48    3.60
  -2  -2   5  208.62    5.66
  -2  -2   5  205.42    5.76
  -2  -2   5  206.73    6.70
  -2   2   5  205.14    6.03
  -2   2   5  206.14    5.80
  -2   2   5  207.54    5.58
   0  -2   5   85.38    3.21
   0  -2   5   91.99    2.79
   0  -2   5   90.85    3.24
   0   2   5   81.39    3.18
   2  -2   5  208.96    5.48
   2  -2   5  198.62    5.72
   2   2   5  211.08    5.71
   2   2   5  208.32    5.01
   4  -2   5   54.33    2.63
   4  -2   5   54.80    3.50
   4   2   5   53.22    3.69
   4   2   5   52.16    2.52
   6  -2   5   97.23    5.46
   6   2   5   94.74    5.62
   8  -2   5   16.67    3.46
   8   2   5   16.93    3.64
  -9  -3   5   -0.26    0.95
   9  -3  -5    4.79    2.17
   9   3  -5    3.28    1.88
  -7  -3   5   -0.76    0.73
   7  -3  -5    1.23    1.76
   7   3  -5   -3.32    1.43
  -7   3   5    3.25    1.72
   5  -3  -5    3.40    1.52
  -5  -3   5    5.30    1.62
  -5  -3   5    3.21    0.70
   5   3  -5    4.73    1.61
  -5   3   5    5.75    1.50
   3  -3  -5    0.83    0.83
  -3  -3   5    0.29    1.02
  -3   3   5    0.79    1.19
   3   3  -5   -0.66    1.17
  -3   3   5    1.66    0.91
   3   3  -5    0.96    0.89
  -1  -3   5    4.74    1.14
  -1  -3   5    6.44    1.04
  -1  -3   5    6.54    1.49
  -1   3   5    5.40    1.15
  -1   3   5    5.91    0.97
  -1   3   5    6.62    0.79
   1  -3   5    6.93    1.09
   1  -3   5    6.17    1.09
   1   3   5    5.42    0.78
   1   3   5    5.89    0.64
   3  -3   5    0.97    0.84
   3  -3   5    2.00    1.16
   3   3   5    0.47    0.75
   3   3   5    0.02    1.25
   5  -3   5    4.70    1.87
   5   3   5    4.78    2.09
   7  -3   5    0.95    2.05
   7   3   5   -1.76    2.04
   9  -3   5   -3.68    2.40
   9   3   5   -2.70    2.62
 -10  -4   5    6.15    1.35
  10  -4  -5    9.63    2.59
  10   4  -5    8.52    2.56
  10   4  -5    7.49    2.20
  -8  -4   5   66.57    2.83
   8  -4  -5   64.20    4.71
   8   4  -5   68.30    4.64
  -6  -4   5   36.59    3.32
   6  -4  -5   38.52    3.33
  -6  -4   5   31.92    1.82
  -6   4   5   29.18    2.88
   6   4  -5   35.08    3.36
  -4  -4   5  147.76    4.08
  -4  -4   5  148.10    3.72
  -4  -4   5  155.06    5.33
   4  -4  -5  139.08    5.02
  -4   4   5  142.50    5.02
   4   4  -5  147.35    5.26
  -2  -4   5   77.37    3.07
  -2  -4   5   71.69    4.16
  -2  -4   5   83.48    3.29
  -2   4   5   86.05    3.59
  -2   4   5   76.32    3.16
   2   4  -5   77.70    3.09
  -2   4   5   76.91    2.96
   0  -4   5  204.25    5.62
   0  -4   5  205.32    6.16
   0  -4   5  207.22    5.66
   0   4   5  189.71    5.62
   0   4   5  201.15    5.11
   0   4   5  195.16    5.12
   2  -4   5   79.36    3.24
   2  -4   5   78.10    3.40
   2   4   5   75.78    3.34
   2   4   5   77.62    2.72
   4  -4   5  140.16    5.54
   4   4   5  143.98    6.08
   6  -4   5   32.95    3.62
   6   4   5   25.45    3.73
   8  -4   5   70.13    5.90
   8   4   5   73.71    6.52
   9  -5  -5   22.92    3.26
  -9  -5   5   24.27    1.98
   9   5  -5   25.62    3.21
  -7  -5   5    9.16    1.24
   7  -5  -5   14.37    2.38
   7   5  -5    6.35    2.08
  -7   5   5    7.35    2.13
   5  -5  -5   66.71    3.76
  -5  -5   5   63.11    3.76
  -5  -5   5   65.89    2.37
  -5   5   5   61.44    3.65
   5   5  -5   55.48    3.96
  -3  -5   5   41.29    1.79
  -3  -5   5   41.48    1.52
  -3  -5   5   39.81    2.77
   3  -5  -5   40.45    2.56
  -3   5   5   36.67    3.01
  -3   5   5   40.15    2.56
   3   5  -5   43.04    3.61
   3   5  -5   42.77    2.84
  -1  -5   5   91.61    4.31
  -1  -5   5   88.19    3.31
  -1  -5   5   93.11    3.61
  -1   5   5   86.49    3.34
   1   5  -5   91.77    3.22
  -1   5   5   94.45    3.29
  -1   5   5   92.04    3.53
   1  -5   5   92.30    3.81
   1  -5   5   96.22    3.76
   1   5   5   89.61    3.50
   1   5   5   90.81    3.15
  -1   5  -5   95.66    2.84
   3  -5   5   40.65    3.01
   3  -5   5   41.31    2.69
  -3   5  -5   39.24    1.91
   3   5   5   39.38    2.44
   3   5   5   40.08    3.18
   5  -5   5   61.44    4.17
   5   5   5   65.24    4.81
   7  -5   5   10.55    2.83
   7   5   5   11.44    3.16
   9   5   5   17.84    4.33
  10  -6  -5   -0.78    1.92
 -10  -6   5    1.06    1.10
  10   6  -5    2.67    1.86
  10   6  -5    2.96    2.13
   8  -6  -5    2.05    1.84
  -8  -6   5    1.68    1.04
   8   6  -5   -0.36    1.83
   6  -6  -5    4.14    1.71
  -6  -6   5   10.69    1.20
   6   6  -5   11.08    2.35
  -6   6   5    7.66    2.05
  -4  -6   5    4.48    1.53
  -4  -6   5    5.73    0.82
   4   6  -5    4.20    1.53
  -4   6   5    4.87    1.51
  -2  -6   5   14.40    1.63
  -2  -6   5   15.21    0.97
  -2  -6   5   14.99    0.98
  -2  -6   5   13.74    1.76
  -2   6   5   17.52    1.97
  -2   6   5   12.62    1.60
   2   6  -5   10.24    2.07
  -2   6   5   17.38    1.83
   2   6  -5   17.56    1.84
   0  -6   5    0.97    1.10
   0  -6   5    1.07    1.02
   0   6  -5    0.90    0.72
   0   6   5    0.47    0.94
   0   6   5   -1.15    0.93
   0   6   5   -0.53    0.83
   2  -6   5   16.38    2.05
   2   6   5   15.39    2.04
   2   6   5   11.84    1.45
  -2   6  -5   13.60    1.25
   4  -6   5    4.16    1.76
   4   6   5    4.84    2.11
   6  -6   5   11.52    2.64
   6   6   5    6.63    2.83
   8  -6   5    3.02    2.54
   8   6   5   -0.42    2.65
  -9  -7   5   30.35    2.24
   9  -7  -5   26.81    3.46
   9   7  -5   24.54    3.26
   7  -7  -5    4.25    1.98
  -7  -7   5    6.99    1.22
   7   7  -5    5.97    2.10
  -5  -7   5   48.99    3.68
  -5  -7   5   46.27    2.17
  -5   7   5   48.24    3.80
   5   7  -5   50.78    4.01
  -3  -7   5   20.28    1.96
  -3  -7   5   22.87    1.38
  -3  -7   5   21.69    2.32
  -3   7   5   22.71    2.11
   3   7  -5   28.57    2.65
  -3   7   5   15.05    2.06
  -1  -7   5   41.70    2.85
  -1  -7   5   39.60    1.39
  -1  -7   5   38.94    2.16
  -1  -7   5   38.83    1.52
   1   7  -5   47.44    3.70
  -1   7   5   33.86    2.59
   1   7  -5   44.05    2.66
  -1   7   5   40.98    2.92
  -1   7   5   38.30    2.19
   1  -7   5   42.07    2.90
   1   7   5   41.58    3.00
   1   7   5   46.86    2.66
  -1   7  -5   41.78    2.40
   3  -7   5   20.19    2.51
   3   7   5   19.28    2.72
  -3   7  -5   20.15    1.73
   5  -7   5   42.82    3.97
   5   7   5   36.86    4.25
   7  -7   5    9.92    2.88
   7   7   5   -0.33    2.70
   9   7   5   31.04    5.26
  -8  -8   5   25.96    2.07
   8  -8  -5   27.57    3.37
   8   8  -5   19.06    2.97
  -6  -8   5    5.67    1.11
   6   8  -5    8.18    2.35
  -6   8   5    7.33    2.26
  -4  -8   5   49.83    3.70
  -4  -8   5   51.41    2.19
  -4   8   5   46.39    3.72
   4   8  -5   56.12    4.02
  -2  -8   5   15.41    1.68
  -2  -8   5   16.97    2.20
  -2  -8   5   13.30    1.04
  -2   8   5   17.81    1.84
  -2   8   5   16.83    2.14
   2   8  -5   13.49    1.98
   0  -8   5   63.63    1.97
   0  -8   5   65.21    1.94
   0  -8   5   62.81    3.55
   0   8   5   68.99    3.56
   0   8  -5   65.05    3.30
   0   8   5   69.70    3.70
   2  -8   5   14.29    2.15
   2   8   5   15.62    2.46
  -2   8  -5   14.88    1.67
   4  -8   5   49.42    4.03
   4   8   5   45.15    4.47
  -4   8  -5   49.47    2.90
   6  -8   5    6.65    2.47
   6   8   5    9.88    3.23
   8   8   5   28.24    4.93
   9  -9  -5    4.07    2.11
  -9  -9   5    2.07    1.15
   9   9  -5    0.37    1.90
  -7  -9   5    3.29    1.08
   7   9  -5    0.54    1.91
  -5  -9   5    2.98    0.91
   5   9  -5    0.28    1.80
  -5   9   5    1.21    1.79
  -3  -9   5    8.66    1.00
  -3  -9   5   11.88    2.02
  -3  -9   5   10.63    1.67
  -3   9   5   11.99    1.68
   3   9  -5    9.86    2.05
  -3   9   5   12.00    2.24
  -1  -9   5   15.58    2.13
  -1  -9   5   13.18    1.59
  -1  -9   5   12.09    1.01
  -1   9   5   14.46    1.68
   1   9  -5   15.06    2.03
  -1   9   5    8.98    1.96
   1  -9   5   12.50    0.88
   1  -9   5   16.15    2.19
   1  -9   5   12.34    0.90
  -1   9  -5   15.02    1.80
   1   9   5   12.67    2.30
   3  -9   5   10.17    2.17
  -3   9  -5   11.41    1.68
   3   9   5    9.12    2.53
   5  -9   5    4.82    2.20
  -5   9  -5    0.04    1.32
   5   9   5    6.54    2.71
   7   9   5    7.56    3.34
   8 -10  -5    3.37    2.00
  -8 -10   5    6.88    1.38
   8  10  -5    2.74    2.11
  -6 -10   5   41.51    2.35
   6  10  -5   39.62    4.01
  -4 -10   5   12.21    1.28
   4  10  -5   14.06    2.47
  -4  10   5    9.91    2.37
  -2 -10   5   47.12    2.01
  -2 -10   5   46.84    3.62
   2  10  -5   44.59    3.57
  -2  10   5   44.74    3.71
   0 -10   5   21.37    1.36
   0 -10   5   20.36    2.52
   0  10   5   19.30    2.74
   0  10  -5   21.11    2.37
   2 -10   5   45.51    1.70
   2 -10   5   51.80    3.65
   2  10   5   42.70    4.13
  -2  10  -5   46.56    3.23
   4 -10   5   17.73    2.87
   4  10   5   10.82    3.16
  -4  10  -5   15.69    2.15
  -6  10  -5   40.17    3.47
   6  10   5   45.78    5.55
   8  10   5    3.39    3.70
  -7 -11   5   13.90    1.66
   7  11  -5   13.06    2.69
  -5 -11   5    8.96    1.28
   5  11  -5    8.46    2.30
  -5  11   5    7.98    2.56
  -3 -11   5   32.95    1.89
   3  11  -5   38.16    3.58
  -3  11   5   37.54    3.75
  -1 -11   5   32.11    1.73
  -1 -11   5   31.47    3.14
  -1  11   5   31.34    3.44
   1  11  -5   26.45    2.95
   1 -11   5   32.85    3.23
   1 -11   5   32.69    1.64
   1  11   5   29.88    3.57
  -1  11  -5   41.93    3.27
   3 -11   5   38.51    3.71
   3  11   5   38.02    4.45
  -3  11  -5   41.50    3.29
  -5  11  -5   11.12    2.14
   5  11   5    6.74    3.34
   7  11   5   15.44    4.34
  -7  11  -5   21.34    2.88
  -9  11  -5    3.04    2.35
  -8 -12   5    3.53    1.28
   8 -12  -5    7.13    2.35
   8  12  -5    2.74    2.01
  -6 -12   5    1.70    1.04
   6  12  -5    3.27    2.09
  -4 -12   5   10.29    1.34
  -4  12   5   12.37    2.94
   4  12  -5   14.50    2.66
  -2 -12   5    0.87    0.81
   2  12  -5    1.65    1.71
  -2  12   5    1.19    1.98
   0 -12   5   14.10    1.29
   0  12  -5   15.92    2.51
   0  12   5   17.90    3.07
   2 -12   5   -0.15    0.64
   2  12   5    1.00    2.13
  -2  12  -5    0.93    1.46
   4  12   5   17.16    3.82
  -4  12  -5   13.58    2.32
  -6  12  -5   -1.89    1.55
   6  12   5   -0.09    3.02
  -8  12  -5    6.73    2.38
  -7 -13   5   15.18    1.73
   7  13  -5   15.10    2.75
  -5 -13   5    6.17    1.26
   5  13  -5    6.29    2.37
  -3 -13   5   15.31    1.51
   3  13  -5   15.28    2.73
  -3  13   5   14.43    3.13
  -1 -13   5   11.41    1.27
  -1  13   5   12.86    3.03
   1  13  -5   12.29    2.45
   1 -13   5   10.65    1.19
  -1  13  -5   12.66    2.47
   1  13   5   12.07    3.04
   3  13   5   16.08    3.68
  -3  13  -5   11.21    2.34
  -5  13  -5    3.93    1.94
   5  13   5    9.61    3.80
  -7  13  -5   13.13    2.67
   7  13   5   10.98    4.36
  -6 -14   5    2.24    1.12
   6  14  -5    6.51    2.39
  -4 -14   5    1.99    1.02
   4  14  -5   -0.98    1.81
  -2 -14   5    5.49    1.14
   2  14  -5    4.95    2.12
  -2  14   5    5.59    2.88
   0 -14   5   -0.38    0.80
   0  14   5    3.82    2.61
   0  14  -5    2.40    1.87
   2 -14   5    5.89    0.98
  -2  14  -5    3.50    1.95
   2  14   5    7.52    3.10
  -4  14  -5    0.00    1.71
   4  14   5    0.58    3.09
   6  14   5   10.71    4.22
  -6  14  -5    5.84    2.29
  -5 -15   5    1.94    1.13
   5  15  -5    2.89    2.17
  -3 -15   5    5.73    1.20
   3  15  -5    5.86    2.19
  -1 -15   5    8.40    1.26
  -1  15   5   11.23    3.47
   1  15  -5   10.83    2.53
   1 -15   5   11.92    1.29
  -1  15  -5    4.70    2.18
   1  15   5    6.94    3.26
   3  15   5    9.75    3.64
  -3  15  -5    9.22    2.38
  -5  15  -5    4.25    2.06
   5  15   5   -2.08    3.39
  -4 -16   5    2.17    1.11
   4  16  -5    2.12    2.10
  -2 -16   5    0.40    0.93
   2  16  -5    0.70    1.88
   0 -16   5    1.50    0.93
   0  16   5   -0.18    2.80
   0  16  -5   -0.49    1.83
   2  16   5    1.83    3.26
  -2  16  -5    2.08    2.03
  -4  16  -5    2.37    2.14
   4  16   5    2.04    3.40
  -3 -17   5    4.68    1.20
   3  17  -5    5.80    2.34
  -1 -17   5    6.00    1.19
   1  17  -5    6.20    2.48
  -1  17  -5    5.34    2.34
  -3  17  -5    1.48    2.03
  -2 -18   5    3.47    1.13
   0 -18   5    1.48    0.94
   0  18  -5    2.67    2.21
  10   0  -6    2.27    2.11
   8   0  -6    4.63    2.23
   6   0  -6   -0.83    1.50
  -6   0   6    0.98    1.56
  -4   0   6    2.22    1.29
   4   0  -6    3.88    1.19
  -2   0   6   11.38    1.60
  -2   0   6    8.40    1.51
  -2   0   6    8.94    1.14
   0   0   6    0.71    1.04
   2   0   6    9.01    1.16
   2   0   6   10.75    0.89
   4   0   6    3.51    1.05
   4   0   6    3.21    1.42
   6   0   6   -0.54    1.75
   8   0   6    5.58    2.81
   9  -1  -6   11.42    2.73
   9  -1  -6    1.86    2.02
   9   1  -6    3.24    2.09
  -7  -1   6   18.13    2.84
   7  -1  -6   14.51    2.71
   7   1  -6   16.85    2.75
  -7   1   6   12.87    2.34
   5  -1  -6   22.99    2.50
  -5  -1   6   20.36    2.43
  -5   1   6   19.62    2.44
   5   1  -6   18.46    2.28
  -3  -1   6   34.00    3.04
  -3  -1   6   30.62    2.24
  -3   1   6   33.25    2.81
   3   1  -6   30.51    2.02
  -3   1   6   31.01    2.30
  -1  -1   6   39.73    2.54
  -1  -1   6   37.87    1.80
  -1  -1   6   37.55    2.27
  -1   1   6   37.97    2.29
  -1   1   6   38.81    1.67
  -1   1   6   37.96    2.02
   1  -1   6   39.26    1.74
   3  -1   6   27.22    2.22
   3  -1   6   31.84    1.84
   3   1   6   29.20    1.71
   3   1   6   29.75    2.28
   5  -1   6   19.29    2.62
   5   1   6   18.10    2.65
   7  -1   6   16.14    3.14
   7   1   6   10.78    2.92
   9  -1   6    2.12    2.90
   9   1   6    7.47    3.22
  10  -2  -6   19.48    3.23
  10   2  -6   17.68    3.18
  10   2  -6   13.31    2.64
   8  -2  -6   46.78    4.24
   8   2  -6   46.60    4.41
  -6  -2   6  104.39    5.06
  -6   2   6   92.48    4.56
   6   2  -6   94.33    4.95
  -4  -2   6   63.03    3.39
   4   2  -6   70.89    3.44
  -4   2   6   61.40    3.01
  -4   2   6   67.83    3.57
  -2  -2   6  317.76    8.38
  -2  -2   6  329.20    9.23
  -2  -2   6  313.18    8.05
  -2   2   6  310.45    8.41
  -2   2   6  323.95    8.49
  -2   2   6  315.23    7.92
   0  -2   6   77.51    3.26
   0  -2   6   80.36    3.15
   0  -2   6   79.50    2.66
   0   2   6   77.87    3.29
   2  -2   6  310.32    7.73
   2  -2   6  315.87    7.99
   4  -2   6   62.69    2.90
   4  -2   6   66.02    3.77
   4   2   6   65.29    3.94
   4   2   6   66.90    2.80
   6  -2   6   99.38    5.51
   6   2   6   96.47    5.61
   8  -2   6   37.67    4.62
   8   2   6   44.23    5.11
  10   2   6   17.31    4.32
   9  -3  -6   -1.45    1.79
   9   3  -6    0.43    1.93
   7  -3  -6   12.79    2.60
  -7  -3   6   10.18    1.07
  -7  -3   6   12.87    2.59
  -7   3   6    8.70    2.14
   7   3  -6   12.18    2.59
  -5  -3   6   10.31    1.94
   5   3  -6   12.31    2.14
  -5   3   6   10.65    1.79
  -3  -3   6   31.54    2.43
  -3  -3   6   34.90    3.26
   3   3  -6   30.29    2.22
  -3   3   6   33.28    2.21
  -3   3   6   33.32    2.76
  -1  -3   6   35.69    2.11
  -1  -3   6   34.77    2.21
  -1  -3   6   42.28    2.93
  -1   3   6   33.77    1.97
  -1   3   6   36.03    2.28
  -1   3   6   38.78    1.64
   1  -3   6   35.52    2.26
   1  -3   6   30.86    2.10
   3  -3   6   33.29    2.54
   3  -3   6   35.64    2.24
   3   3   6   30.30    1.96
   3   3   6   30.85    2.56
   5  -3   6    9.22    2.16
   5   3   6   10.97    2.47
   7  -3   6   12.44    2.88
   7   3   6    9.89    2.95
   9  -3   6    4.79    2.87
   9   3   6   -0.48    2.83
  10  -4  -6   18.62    3.15
  10   4  -6   15.44    2.68
  10   4  -6   16.70    3.12
   8  -4  -6   19.16    2.93
  -8  -4   6   14.16    1.32
   8   4  -6   16.19    2.97
  -6  -4   6   25.49    2.89
  -6  -4   6   28.48    1.46
  -6   4   6   28.56    2.91
   6   4  -6   29.65    3.24
  -4  -4   6   93.17    4.16
  -4   4   6   89.24    3.89
   4   4  -6   88.63    4.18
  -2  -4   6   26.81    2.26
  -2  -4   6   32.37    2.31
  -2  -4   6   34.44    3.08
  -2   4   6   32.23    2.25
  -2   4   6   32.45    2.38
  -2   4   6   28.34    1.91
   2   4  -6   29.18    1.97
   0  -4   6  181.85    5.90
   0  -4   6  193.67    5.67
   0  -4   6  193.05    5.44
   0   4   6  179.61    4.83
   0   4   6  189.83    5.73
   0   4   6  185.87    4.79
   2  -4   6   30.51    2.25
   2  -4   6   31.59    2.40
   2   4   6   31.21    2.18
   2   4   6   26.53    1.70
   4  -4   6   83.80    4.35
   4   4   6   89.35    4.86
   4   4   6   92.57    3.68
   6  -4   6   29.51    3.46
   6   4   6   27.66    3.64
   8  -4   6   15.14    3.40
   8   4   6   17.52    3.84
  10   4   6   19.43    4.46
   9  -5  -6   11.58    2.78
   9   5  -6   12.86    2.75
  -7  -5   6   12.80    1.23
   7   5  -6   13.30    2.76
  -7   5   6   12.39    2.50
  -5  -5   6   14.66    2.23
  -5  -5   6   19.04    1.16
   5   5  -6   19.31    2.57
  -5   5   6   19.65    2.41
  -3  -5   6   38.99    2.80
  -3  -5   6   29.47    2.43
  -3   5   6   26.05    2.37
   3   5  -6   29.36    2.40
  -3   5   6   31.31    2.36
  -1  -5   6   31.25    2.74
  -1  -5   6   27.47    2.16
  -1  -5   6   28.57    2.31
  -1   5   6   27.28    1.94
  -1   5   6   27.89    2.01
   1   5  -6   27.92    1.82
  -1   5   6   27.61    2.32
   1  -5   6   30.57    2.45
   1  -5   6   26.28    2.15
   1   5   6   28.82    2.00
   1   5   6   29.06    1.82
   3  -5   6   32.41    2.80
   3   5   6   29.84    2.18
   3   5   6   29.57    2.81
   5  -5   6   14.73    2.52
   5   5   6   19.01    3.13
   7  -5   6   15.33    3.06
   7   5   6   21.47    3.76
   9   5   6   18.08    4.19
  10  -6  -6    5.94    2.42
  10   6  -6   -0.42    1.93
  -8  -6   6    0.28    0.83
   8   6  -6    2.96    2.15
  -6  -6   6    3.00    0.79
  -6  -6   6   -0.14    1.56
   6   6  -6    6.57    2.27
  -6   6   6    0.75    1.63
  -4  -6   6    0.19    0.54
  -4  -6   6    1.13    0.52
  -4  -6   6   -0.42    1.19
  -4   6   6    1.78    1.30
   4   6  -6   -0.65    1.36
  -2  -6   6    0.08    1.10
  -2  -6   6   -0.84    1.10
   2   6  -6    0.84    0.99
  -2   6   6    0.14    1.00
  -2   6   6    0.07    1.14
  -2   6   6    1.59    1.18
   0  -6   6    2.91    1.41
   0  -6   6    1.20    1.13
   0  -6   6    1.57    1.20
   0   6  -6    1.89    0.77
   0   6   6    2.84    1.00
   0   6   6    2.72    1.06
   0   6   6    2.20    1.31
   2  -6   6    0.13    1.23
   2   6   6   -0.32    1.22
   2   6   6   -1.14    0.81
   4  -6   6    1.48    1.61
   4   6   6    1.52    1.87
   6  -6   6    1.30    1.89
   6   6   6    0.16    2.13
   8  -6   6    2.51    2.46
   8   6   6    6.99    3.13
   9  -7  -6    5.54    2.47
   9   7  -6    8.16    2.49
  -7  -7   6    3.88    0.97
  -7   7   6    4.68    2.33
   7   7  -6    5.71    2.27
  -5  -7   6   18.02    2.43
  -5  -7   6   22.97    1.43
   5   7  -6   25.36    3.11
  -5   7   6   20.18    2.65
  -3  -7   6   18.07    2.18
  -3  -7   6   15.15    0.98
  -3  -7   6   17.84    2.02
   3   7  -6   15.85    2.19
  -3   7   6   17.62    2.13
  -3   7   6   16.11    2.08
  -1  -7   6   27.03    2.25
  -1  -7   6   29.53    2.56
  -1   7   6   24.52    2.25
   1   7  -6   31.31    2.33
  -1   7   6   27.11    2.31
  -1   7   6   30.19    2.36
   1  -7   6   26.67    2.46
   1   7   6   26.98    2.11
  -1   7  -6   30.30    2.10
   1   7   6   31.14    2.63
   3  -7   6   11.79    2.18
   3   7   6   14.50    2.40
   5  -7   6   17.82    2.84
   5   7   6   23.86    3.53
   7  -7   6    3.77    2.43
   7   7   6    1.39    2.78
   9   7   6    3.93    3.27
  -8  -8   6   44.73    2.19
   8   8  -6   47.69    4.38
  -6  -8   6   41.71    2.05
   6   8  -6   43.25    4.21
  -6   8   6   38.95    3.93
  -4  -8   6  137.59    5.84
  -4  -8   6  138.33    3.71
  -4  -8   6  149.05    5.19
   4   8  -6  144.07    6.00
  -4   8   6  134.73    5.81
  -4   8   6  144.44    5.33
  -2  -8   6   59.91    2.92
  -2  -8   6   55.49    1.76
  -2  -8   6   59.26    3.58
  -2   8   6   60.75    3.53
  -2   8   6   55.14    2.94
   2   8  -6   56.30    3.65
   0  -8   6  234.74    7.42
   0   8   6  233.51    7.41
   0   8  -6  234.34    6.81
   2  -8   6   64.18    3.79
   2   8   6   57.84    3.94
   4  -8   6  151.64    6.46
   4   8   6  135.92    6.89
   6  -8   6   48.36    4.63
   6   8   6   40.05    4.92
   8   8   6   50.87    6.04
   9  -9  -6    8.06    2.45
   9   9  -6    3.58    2.29
  -7  -9   6    1.65    0.95
   7   9  -6   -3.74    1.67
  -5  -9   6   16.49    1.34
  -5   9   6   15.87    2.81
   5   9  -6   19.86    3.10
  -5   9   6   19.17    2.44
  -3  -9   6    7.51    0.82
  -3  -9   6    4.98    1.68
  -3  -9   6    7.92    1.59
  -3   9   6    8.32    1.63
   3   9  -6    6.93    1.97
  -3   9   6    5.78    1.90
  -1  -9   6   22.18    2.10
  -1  -9   6   18.16    2.37
  -1   9   6   19.37    2.04
  -1   9   6   18.29    2.39
   1   9  -6   18.58    2.27
   1  -9   6   17.05    2.29
  -1   9  -6   22.05    2.17
   1   9   6   18.30    2.55
   3  -9   6    7.38    2.07
   3   9   6   12.41    2.67
   5  -9   6   12.52    2.78
   5   9   6   14.97    3.43
   7   9   6   -0.91    3.00
   9   9   6    4.33    3.58
  -8 -10   6    7.86    1.27
   8  10  -6    9.98    2.57
  -6 -10   6    5.97    1.06
  -6  10   6    4.41    2.51
   6  10  -6   13.34    2.82
  -4 -10   6    7.53    0.99
   4  10  -6   10.02    2.38
  -4  10   6    6.74    2.23
  -2 -10   6   29.15    2.98
  -2 -10   6   22.13    1.28
   2  10  -6   27.25    2.92
  -2  10   6   25.39    2.92
   0 -10   6    4.83    1.71
   0  10  -6    4.21    1.57
   0  10   6    6.18    2.09
   2 -10   6   22.62    2.79
   2  10   6   27.46    3.35
  -2  10  -6   24.67    2.47
   4 -10   6   11.10    2.56
   4  10   6   10.95    3.05
   6  10   6   12.93    3.57
   8  10   6    6.43    3.79
  -7 -11   6   11.38    1.40
   7  11  -6   11.88    2.72
  -5 -11   6   21.20    1.59
  -5  11   6   17.76    3.26
   5  11  -6   22.99    3.35
  -3 -11   6   14.44    1.19
  -3  11   6   10.68    2.56
   3  11  -6   14.56    2.71
  -1 -11   6   21.16    2.72
  -1 -11   6   23.42    1.24
   1  11  -6   27.92    3.03
  -1  11   6   22.44    3.01
   1 -11   6   23.76    2.90
  -1  11  -6   20.49    2.49
   1  11   6   20.20    3.14
   3 -11   6   17.03    2.74
   3  11   6   14.13    3.14
   5  11   6   28.99    4.59
   7  11   6   12.56    4.11
  -6 -12   6    3.49    1.03
   6  12  -6    6.89    2.56
  -4 -12   6    3.07    0.90
   4  12  -6    3.04    2.08
  -4  12   6    4.28    2.38
  -2 -12   6    4.67    0.83
   2  12  -6    5.86    2.03
  -2  12   6    7.20    2.44
   0 -12   6    6.08    2.09
   0  12   6    8.07    2.58
   0  12  -6    7.89    2.14
   2 -12   6    3.36    1.97
  -2  12  -6    6.34    1.92
   2  12   6    8.10    2.63
   4  12   6    1.32    2.81
  -4  12  -6    3.71    1.86
   6  12   6    7.41    3.58
   8  12   6   -2.45    3.36
  -7 -13   6    5.64    1.17
   7  13  -6    7.31    2.42
  -5 -13   6   -0.07    0.91
   5  13  -6    1.20    2.09
  -3 -13   6   10.38    1.16
  -3  13   6    7.87    2.82
   3  13  -6   11.10    2.67
  -1 -13   6    5.04    0.83
  -1  13   6    5.98    2.62
   1  13  -6    3.71    2.04
  -1  13  -6   10.00    2.33
   1  13   6    5.49    2.66
  -3  13  -6   10.59    2.29
   3  13   6   16.69    3.71
   5  13   6    0.38    3.07
  -5  13  -6    3.37    1.94
  -7  13  -6    2.76    2.25
   7  13   6    4.19    3.92
  -6 -14   6   32.96    1.98
   6  14  -6   31.85    3.81
  -4 -14   6   17.29    1.49
   4  14  -6   17.12    3.07
  -4  14   6   11.58    3.28
  -2 -14   6   63.13    2.36
   2  14  -6   57.82    4.80
  -2  14   6   64.05    5.74
   0  14   6   24.61    3.95
   0  14  -6   22.16    3.12
   2  14   6   63.29    6.13
  -2  14  -6   69.36    4.68
   4  14   6   17.65    4.39
  -4  14  -6   13.20    2.70
   6  14   6   23.35    5.07
  -6  14  -6   31.49    3.81
  -5 -15   6    0.27    0.89
   5  15  -6    0.16    2.10
  -3 -15   6    9.05    1.17
  -3  15   6   10.32    3.45
   3  15  -6    6.52    2.45
  -1 -15   6    0.52    0.71
   1  15  -6    3.93    2.20
  -1  15   6    0.29    2.81
   1  15   6    4.91    3.13
  -1  15  -6    3.23    2.05
   3  15   6    7.72    3.64
  -3  15  -6    7.55    2.46
   5  15   6   -1.18    3.40
  -5  15  -6    1.51    2.05
   4  16  -6   -0.94    2.02
   2  16  -6    1.69    2.10
  -2  16   6    3.82    3.04
   0  16   6    0.40    2.79
   0  16  -6    2.78    2.19
  -2  16  -6   -1.64    1.81
   2  16   6    5.88    3.51
  -4  16  -6    2.14    2.04
   4  16   6   -3.25    3.23
   3  17  -6   10.32    2.78
   1  17  -6    5.15    2.48
   1  17   6    9.53    3.81
  -1  17  -6    5.40    2.43
  -3  17  -6   11.17    2.84
   3  17   6   18.59    4.61
  10   0  -7   -1.30    1.88
  10   0  -7    2.88    2.31
  -6   0   7    2.42    1.67
  -4   0   7   26.46    2.45
  -2   0   7   -1.72    1.05
  -2   0   7   -0.26    1.13
  -2   0   7   -0.51    0.82
   0   0   7   -0.31    1.09
   2   0   7    0.37    0.78
   2   0   7   -0.70    0.52
   4   0   7   25.70    1.91
   4   0   7   25.24    2.52
   4   0   7   29.18    1.86
   6   0   7   -1.07    1.74
   8   0   7   24.71    4.00
  10   0   7    1.82    2.99
   9  -1  -7    6.54    2.41
   9   1  -7    7.65    2.59
  -7  -1   7   12.89    2.61
  -7   1   7   12.57    2.33
  -5  -1   7    9.72    2.01
  -5   1   7   14.43    2.31
  -3  -1   7   29.13    2.96
  -3  -1   7   27.47    2.17
  -3  -1   7   26.79    2.50
  -3   1   7   24.79    2.55
  -3   1   7   21.90    2.30
  -3   1   7   21.75    2.00
  -1  -1   7   27.22    2.16
  -1  -1   7   26.44    1.65
  -1  -1   7   30.80    2.55
  -1   1   7   24.51    2.42
  -1   1   7   25.00    1.51
  -1   1   7   27.82    1.91
   1  -1   7   25.48    1.54
   3  -1   7   27.10    2.20
   3  -1   7   27.10    1.85
   3   1   7   27.33    2.18
   3   1   7   24.67    1.57
   5  -1   7   10.51    2.23
   5   1   7   17.11    2.56
   7  -1   7   12.48    2.94
   7   1   7   10.63    2.81
   9  -1   7    6.96    3.11
   9   1   7    3.16    3.00
  10  -2  -7   -0.10    2.09
  10   2  -7    3.83    2.09
  10   2  -7    2.71    2.28
   8   2  -7   -1.27    1.95
  -6  -2   7    8.02    2.06
  -6   2   7   10.57    2.01
  -4  -2   7    1.84    1.31
  -4   2   7    2.31    1.46
  -2  -2   7    3.05    1.41
  -2  -2   7    5.95    1.60
  -2  -2   7    4.25    1.12
  -2   2   7    4.65    1.46
  -2   2   7    3.58    1.24
  -2   2   7    4.56    1.06
   0  -2   7    5.12    1.45
   0  -2   7    5.52    0.95
   0  -2   7    8.34    1.31
   0   2   7    5.30    1.49
   2  -2   7    2.90    0.89
   2  -2   7    3.30    1.05
   4  -2   7    2.54    1.03
   4  -2   7    4.73    1.63
   4   2   7    3.22    1.03
   4   2   7    2.90    1.53
   6  -2   7    9.30    2.42
   6   2   7   10.51    2.58
   8  -2   7    1.05    2.33
   8   2   7   -2.94    2.21
  10   2   7    1.34    3.20
   9   3  -7    8.50    2.69
  -7  -3   7    6.02    2.11
  -7   3   7    3.37    1.92
   7   3  -7   -0.80    1.84
  -5  -3   7   12.81    2.08
  -5   3   7   14.60    1.99
  -3  -3   7    2.50    1.39
  -3  -3   7    2.06    1.22
  -3   3   7    1.70    1.37
  -3   3   7    1.80    1.44
  -3   3   7    2.92    1.06
  -1  -3   7    4.74    1.03
  -1  -3   7    5.34    1.50
  -1  -3   7    4.43    1.48
  -1   3   7    3.15    0.97
  -1   3   7    3.92    0.77
  -1   3   7    5.79    1.51
   1  -3   7    4.61    1.16
   1  -3   7    4.11    1.06
   3  -3   7    2.18    1.25
   3  -3   7    0.98    0.97
   3   3   7    1.26    0.79
   3   3   7    1.45    1.39
   5  -3   7   13.83    2.37
   5   3   7    9.29    2.34
   7  -3   7    3.24    2.32
   7   3   7    1.53    2.30
   9  -3   7   10.50    3.36
   9   3   7   10.11    3.49
  10  -4  -7    2.92    2.28
  10   4  -7    0.06    1.93
   8   4  -7   10.06    2.62
  -6  -4   7    3.31    1.73
   6   4  -7    6.03    2.10
  -6   4   7    5.06    1.81
  -4  -4   7   16.70    2.13
  -4   4   7   21.15    2.13
  -2  -4   7    3.83    1.19
  -2  -4   7   -0.38    1.37
  -2  -4   7    1.53    1.29
  -2   4   7    0.96    1.22
  -2   4   7    0.55    1.11
  -2   4   7    0.12    0.79
   0  -4   7   16.62    1.94
   0  -4   7   17.80    1.67
   0  -4   7   14.49    2.00
   0   4   7   17.08    1.20
   0   4   7   16.32    1.25
   0   4   7   15.40    2.02
   2  -4   7    2.26    1.23
   2  -4   7    2.71    1.11
   2   4   7    1.24    1.04
   2   4   7    1.09    0.71
   4  -4   7   17.33    2.33
   4   4   7   15.61    2.51
   4   4   7   18.63    1.74
   6  -4   7    1.26    1.89
   6   4   7    2.08    2.17
   8  -4   7   12.59    3.16
   8   4   7   15.39    3.57
  10   4   7    1.24    3.15
   9   5  -7    6.87    2.42
   7   5  -7    8.09    2.48
  -7   5   7    7.85    2.29
  -5  -5   7   13.03    2.22
  -5   5   7   14.30    2.18
   5   5  -7   19.10    2.66
  -3  -5   7   10.35    1.83
  -3  -5   7   11.14    1.80
  -3   5   7    8.75    1.57
  -3   5   7    8.33    1.86
  -1  -5   7   22.58    2.05
  -1  -5   7   20.24    2.15
  -1  -5   7   24.62    2.60
  -1   5   7   18.78    1.74
  -1   5   7   16.81    2.12
  -1   5   7   20.89    1.65
   1  -5   7   23.95    2.21
   1  -5   7   21.61    2.06
   1   5   7   22.27    1.51
   1   5   7   21.53    1.74
   3  -5   7   10.56    1.88
   3   5   7    7.93    1.28
   3   5   7   11.01    1.97
   5  -5   7   12.30    2.40
   5   5   7   17.05    3.02
   7  -5   7    7.66    2.58
   7   5   7    7.43    2.91
   9  -5   7    7.61    3.16
   9   5   7    3.64    3.08
  10  -6  -7   15.63    3.20
   8   6  -7   11.81    2.76
  -6  -6   7   34.36    3.36
  -6   6   7   32.75    3.37
   6   6  -7   38.19    3.85
  -4  -6   7   26.63    2.77
  -4  -6   7   22.19    2.47
  -4   6   7   21.74    2.51
   4   6  -7   26.41    2.81
  -4   6   7   20.66    2.33
  -2  -6   7   35.11    2.48
  -2  -6   7   29.87    2.51
  -2   6   7   28.62    2.26
  -2   6   7   31.94    2.69
  -2   6   7   31.64    2.72
   0  -6   7   42.56    2.99
   0  -6   7   38.60    2.73
   0   6   7   38.70    2.35
   0   6   7   44.87    2.53
   0   6   7   44.74    2.96
   2  -6   7   28.58    2.59
   2   6   7   31.06    2.60
   2   6   7   30.25    2.14
   4  -6   7   27.98    3.02
   4   6   7   26.92    3.22
   6  -6   7   30.97    3.61
   6   6   7   29.85    3.97
   8  -6   7    9.40    2.96
   8   6   7    8.73    3.32
  10   6   7   18.20    4.53
   9   7  -7    4.18    2.33
   7   7  -7   12.05    2.86
  -7   7   7    7.85    2.50
  -5  -7   7   10.37    2.07
  -5   7   7   10.60    2.24
  -5   7   7    8.54    2.00
   5   7  -7   10.68    2.34
  -3  -7   7   20.85    2.32
  -3  -7   7   23.61    2.53
  -3   7   7   21.73    2.43
  -3   7   7   18.21    2.19
   3   7  -7   20.19    2.38
  -1  -7   7   20.38    2.18
  -1  -7   7   26.17    2.41
  -1   7   7   17.96    1.97
  -1   7   7   21.40    2.22
  -1   7   7   24.65    2.27
   1  -7   7   22.25    2.33
   1   7   7   20.73    2.20
   1   7   7   21.22    1.86
   3  -7   7   18.29    2.52
   3   7   7   15.99    2.57
   5  -7   7    7.65    2.39
   5   7   7   11.68    2.91
   7  -7   7    9.32    2.84
   7   7   7    3.57    2.87
   9   7   7    0.70    3.07
   8   8  -7    4.17    2.34
  -6   8   7    7.97    2.16
  -6   8   7    5.37    2.24
   6   8  -7   12.81    2.73
  -4  -8   7   18.20    2.40
  -4  -8   7   18.63    2.54
   4   8  -7   25.54    3.05
  -4   8   7   18.28    2.56
  -4   8   7   16.19    2.37
  -2  -8   7   17.81    2.34
  -2  -8   7   14.77    2.09
  -2   8   7   14.93    2.08
  -2   8   7   18.12    2.17
   0  -8   7   30.63    2.78
   0   8   7   23.39    2.46
   2  -8   7   17.48    2.39
   2   8   7   19.75    2.54
   4  -8   7   17.91    2.86
   4   8   7   15.20    3.02
   6  -8   7   10.75    2.78
   6   8   7    8.80    3.11
   8   8   7    9.76    3.67
   9   9  -7    0.37    2.15
   7   9  -7   19.43    3.34
  -5  -9   7    3.37    1.73
  -5   9   7    3.98    1.77
  -5   9   7    4.43    2.08
   5   9  -7    4.51    2.14
  -3  -9   7   18.83    2.44
  -3  -9   7   18.05    2.23
   3   9  -7   22.70    2.78
  -3   9   7   15.59    2.24
  -3   9   7   17.33    2.43
  -1  -9   7   10.80    1.87
  -1  -9   7   12.49    2.10
  -1   9   7   13.56    1.97
  -1   9   7    9.83    1.97
   1  -9   7    8.71    1.95
   1   9   7    7.93    2.06
   3  -9   7   14.57    2.48
   3   9   7   20.25    3.17
   5  -9   7    3.98    2.21
   5   9   7    4.37    2.63
   7  -9   7   19.17    3.69
   7   9   7   23.29    4.37
   9   9   7    1.11    3.44
   8  10  -7   -0.75    2.04
   6  10  -7   13.87    3.08
  -6  10   7   10.10    2.75
  -4  10   7    1.25    1.86
   4  10  -7    0.02    1.91
  -2 -10   7   22.23    2.74
   2  10  -7   19.44    2.63
  -2  10   7   19.18    2.70
   0 -10   7   -2.41    1.34
   0  10   7   -1.61    1.58
   2 -10   7   25.05    2.90
   2  10   7   15.54    2.82
   4 -10   7    1.31    1.91
   4  10   7    0.14    2.34
   6 -10   7   11.08    3.11
   6  10   7    4.97    3.15
   8  10   7    3.25    3.31
   7  11  -7    5.46    2.54
  -5  11   7    1.17    2.16
   5  11  -7    0.33    2.01
  -3  11   7   10.52    2.51
   3  11  -7   10.85    2.56
  -1 -11   7    7.93    2.04
   1  11  -7    3.75    1.83
  -1  11   7    4.88    1.95
   1 -11   7    7.96    2.14
   1  11   7    8.97    2.42
   3 -11   7    9.72    2.39
   3  11   7   11.40    3.01
   5 -11   7    3.28    2.35
   5  11   7    6.43    3.15
   7  11   7    2.26    3.24
   6  12  -7   18.94    3.37
   4  12  -7   33.65    3.84
  -4  12   7   32.84    3.96
   2  12  -7   41.37    3.94
  -2  12   7   38.51    4.08
   0 -12   7   37.68    3.74
   0  12  -7   46.32    4.02
   0  12   7   34.74    3.93
   2 -12   7   42.27    4.02
   2  12   7   36.41    4.21
   4  12   7   31.02    4.60
   6  12   7   21.61    4.53
   7  13  -7    1.38    2.30
  -5  13   7    8.10    3.06
   5  13  -7   12.53    2.95
   3  13  -7    9.23    2.63
  -3  13   7   13.65    3.12
   1  13  -7   15.38    2.82
  -1  13   7   20.56    3.51
  -1  13  -7   15.41    2.65
   1  13   7   13.49    3.18
   3  13   7   10.99    3.40
   5  13   7   12.25    3.93
   7  13   7   -0.18    3.41
   6  14  -7   12.14    3.09
   4  14  -7    9.02    2.58
  -4  14   7    8.22    3.10
   2  14  -7   30.27    3.71
  -2  14   7   33.31    4.40
   0  14   7   11.33    3.17
   0  14  -7   19.52    3.08
   2  14   7   27.26    4.36
  -2  14  -7   25.74    3.27
   4  14   7    7.01    3.66
   6  14   7   12.74    4.48
   5  15  -7   14.06    3.02
  -3  15   7   15.27    3.85
   3  15  -7   10.74    2.93
   1  15  -7   21.04    3.28
  -1  15   7   19.51    3.90
   1  15   7   17.79    3.88
  -1  15  -7   13.04    2.78
  -3  15  -7   13.37    2.70
   3  15   7   14.12    3.98
  -5  15  -7   12.95    2.93
   5  15   7   18.23    4.78
   4  16  -7    8.30    2.75
   2  16  -7   -0.23    2.06
  -2  16   7    2.89    2.89
   0  16  -7    5.45    2.44
   0  16   7   14.44    3.71
  -2  16  -7    1.73    2.02
   2  16   7   -2.53    2.91
   4  16   7    4.24    3.68
  -4  16  -7    5.95    2.43
   1  17  -7    4.60    2.53
  -1  17   7    4.71    3.42
   1  17   7   -0.34    3.40
  -1  17  -7    9.12    2.73
   3  17   7    1.13    3.68
  -3  17  -7    5.12    2.46
  10   0  -8   54.56    4.85
  10   0  -8   62.04    5.34
  -6   0   8  169.11    6.94
  -4   0   8  401.19   10.92
  -4   0   8  372.69   10.47
  -2   0   8  298.89    7.67
  -2   0   8  298.27    8.60
  -2   0   8  295.52    8.56
   0   0   8  629.37   15.38
   4   0   8  369.80   10.24
   4   0   8  358.04    9.22
   4   0   8  380.08    9.07
   6   0   8  153.55    6.77
   8   0   8   97.23    6.46
  10   0   8   51.65    6.02
  -7  -1   8    2.50    2.00
  -7   1   8   -1.22    1.55
  -5  -1   8   12.55    2.18
  -5   1   8   13.75    2.26
  -3  -1   8   15.30    2.47
  -3  -1   8   17.22    2.35
  -3  -1   8   11.65    1.66
  -3   1   8   23.62    2.63
  -3   1   8   17.50    2.39
  -3   1   8   15.34    1.81
  -1  -1   8   27.38    2.30
  -1  -1   8   26.81    1.78
  -1  -1   8   24.44    2.52
  -1   1   8   27.91    1.64
  -1   1   8   28.23    2.09
  -1   1   8   28.14    2.69
   3  -1   8   14.34    1.33
   3  -1   8   10.53    1.63
   3   1   8   14.94    1.74
   3   1   8   13.91    1.11
   3   1   8   15.32    1.23
   5  -1   8   13.83    2.39
   5   1   8   12.69    2.36
   7  -1   8    5.73    2.46
   7   1   8    6.48    2.54
   9  -1   8    1.44    2.74
   9   1   8    1.39    2.72
  10   2  -8   -1.16    1.96
  -6  -2   8    1.60    1.59
  -6   2   8    2.22    1.60
  -4  -2   8    5.29    1.78
  -4  -2   8    3.80    1.42
  -4   2   8    4.97    1.61
  -4   2   8    1.41    1.49
  -2  -2   8   -0.12    1.42
  -2  -2   8    1.47    1.34
  -2  -2   8    0.35    1.01
  -2   2   8    4.56    1.29
  -2   2   8   -0.55    1.33
  -2   2   8    3.85    1.04
   0  -2   8   15.29    1.36
   0  -2   8   14.67    2.12
   0  -2   8   14.73    1.67
   0   2   8   16.07    2.17
   2  -2   8    2.57    0.90
   2  -2   8    1.97    1.06
   4  -2   8    0.57    1.38
   4   2   8    2.39    1.50
   4   2   8    4.10    1.06
   6  -2   8    1.81    1.93
   6   2   8    0.70    2.02
   8  -2   8    0.54    2.24
   8   2   8    0.44    2.46
  10  -2   8    4.02    3.22
  10   2   8    8.80    3.59
   9   3  -8   33.93    4.11
  -7  -3   8   54.22    4.54
  -7   3   8   47.67    4.05
  -5  -3   8   93.64    4.61
  -5   3   8   94.99    4.30
  -3  -3   8  131.11    5.28
  -3  -3   8  130.12    4.91
  -3   3   8  142.18    5.63
  -3   3   8  133.68    4.53
  -3   3   8  151.89    4.67
  -3   3   8  127.02    5.32
  -1  -3   8  186.44    6.11
  -1  -3   8  176.25    5.26
  -1  -3   8  180.24    6.29
  -1   3   8  182.18    4.64
  -1   3   8  176.79    6.11
  -1   3   8  178.18    5.16
   1  -3   8  188.37    5.68
   1  -3   8  183.39    5.38
   3  -3   8  140.68    4.58
   3  -3   8  132.51    4.91
   3   3   8  129.68    3.93
   3   3   8  131.03    4.90
   5  -3   8   98.84    4.97
   5   3   8   92.63    5.08
   7  -3   8   48.20    4.59
   7   3   8   40.81    4.53
   9  -3   8   24.39    4.12
   9   3   8   38.75    5.15
  10   4  -8   -3.00    2.09
  -6  -4   8   -0.92    1.54
  -6   4   8   -0.81    1.45
  -4  -4   8    3.95    1.55
  -4  -4   8    2.48    1.51
  -4   4   8    1.86    1.58
  -4   4   8    2.96    1.33
  -2  -4   8    2.09    1.17
  -2  -4   8    3.16    1.48
  -2   4   8   -0.80    1.28
  -2   4   8    2.43    1.32
  -2   4   8    2.90    1.02
   0  -4   8    7.94    1.34
   0  -4   8   10.31    1.73
   0  -4   8    6.89    1.73
   0   4   8    6.45    1.72
   2  -4   8    4.27    1.31
   2  -4   8    3.48    1.20
   2   4   8    2.08    1.11
   4  -4   8    1.06    1.44
   4   4   8    0.88    1.72
   4   4   8    1.88    1.15
   6  -4   8    0.30    1.79
   6   4   8    0.13    1.89
   8  -4   8    1.59    2.30
   8   4   8    2.27    2.68
  10   4   8    1.99    3.14
   9   5  -8    0.33    2.14
  -7   5   8    9.00    2.43
  -5  -5   8    5.84    1.87
  -5  -5   8    6.60    2.02
  -5   5   8    5.18    1.71
  -5   5   8    3.57    1.80
  -3  -5   8   18.73    2.41
  -3  -5   8   20.12    2.27
  -3   5   8   20.34    2.07
  -3   5   8   20.56    2.52
  -1  -5   8   21.12    2.03
  -1  -5   8   21.11    2.41
  -1   5   8   16.64    2.26
  -1   5   8   17.26    1.55
  -1   5   8   19.19    1.81
   1  -5   8   23.28    2.31
   1  -5   8   17.10    1.92
   1   5   8   22.38    1.49
   1   5   8   20.04    1.65
   3  -5   8   21.27    2.48
   3   5   8   18.67    1.69
   3   5   8   23.49    2.54
   5  -5   8    9.81    2.31
   5   5   8    6.52    2.36
   7  -5   8    7.40    2.71
   7   5   8   14.66    3.36
   9  -5   8    0.18    2.58
   9   5   8    3.98    3.15
   8   6  -8   68.52    5.38
  -6  -6   8  136.53    6.13
  -6   6   8  129.85    6.00
  -4  -6   8  144.22    5.71
  -4  -6   8  139.44    5.77
  -4   6   8  145.54    5.52
  -4   6   8  142.19    5.76
  -2  -6   8  337.51    9.48
  -2  -6   8  352.91    9.50
  -2   6   8  330.03    8.98
  -2   6   8  325.39    9.56
   0  -6   8  192.58    6.51
   0  -6   8  198.13    6.33
   0   6   8  191.63    6.50
   0   6   8  196.92    5.74
   0   6   8  203.32    5.78
   2  -6   8  345.08    9.60
   2   6   8  332.11    8.48
   2   6   8  331.17    9.22
   4  -6   8  132.61    5.89
   4   6   8  145.71    6.34
   6  -6   8  127.07    6.43
   6   6   8  138.33    7.15
   8  -6   8   78.91    6.31
   8   6   8   71.99    6.60
   9   7  -8    3.97    2.43
  -7   7   8   14.38    2.96
   7   7  -8   13.46    3.11
  -5  -7   8    2.50    1.65
  -5  -7   8    1.27    1.71
  -5   7   8    2.23    1.76
  -5   7   8    3.24    1.79
  -3  -7   8   20.49    2.49
  -3  -7   8   22.70    2.53
  -3   7   8   23.42    2.48
  -3   7   8   22.71    2.66
  -1  -7   8   12.83    2.01
  -1  -7   8   17.50    2.26
  -1   7   8   16.29    1.93
  -1   7   8   20.97    2.15
  -1   7   8   17.16    2.29
   1  -7   8   20.56    2.29
   1   7   8   18.95    2.15
   1   7   8   18.04    1.76
   3  -7   8   24.74    2.77
   3   7   8   20.16    2.71
   5  -7   8    1.70    2.03
   5   7   8    5.05    2.43
   7  -7   8   11.19    3.00
   7   7   8   13.31    3.61
   9   7   8   -0.57    2.98
   8   8  -8    1.03    2.28
  -8   8   8    0.48    2.11
  -6  -8   8   -2.19    1.71
   6   8  -8    0.19    2.06
  -6   8   8    0.61    1.98
  -6   8   8   -0.10    1.56
  -4  -8   8    0.61    1.59
  -4  -8   8   -1.39    1.40
  -4   8   8    2.37    1.62
  -4   8   8    3.21    1.67
  -2  -8   8    0.35    1.43
  -2  -8   8    2.33    1.49
  -2   8   8    1.03    1.33
  -2   8   8    1.74    1.49
   0  -8   8    1.99    1.48
   0   8   8    2.35    1.42
   2  -8   8    0.22    1.45
   2   8   8    2.64    1.64
   4  -8   8    0.35    1.86
   4   8   8    3.66    2.22
   6  -8   8   -1.14    2.05
   6   8   8   -2.31    2.30
   8  -8   8    6.34    3.00
   8   8   8   -1.16    2.83
  -7  -9   8   46.49    4.46
   7   9  -8   48.01    4.77
  -7   9   8   44.35    4.32
  -7   9   8   37.63    4.47
  -5  -9   8   43.59    3.84
  -5   9   8   40.25    3.94
  -5   9   8   36.25    3.60
  -3  -9   8   94.85    4.76
  -3  -9   8   88.53    4.29
  -3   9   8   87.73    4.31
  -3   9   8   82.03    4.56
  -1  -9   8   77.53    4.01
  -1  -9   8   79.15    4.24
  -1   9   8   73.00    4.08
  -1   9   8   80.21    4.06
   1  -9   8   80.04    4.35
   1   9   8   80.45    4.52
   3  -9   8   91.37    4.94
   3   9   8   83.08    5.18
   5  -9   8   42.87    4.39
   5   9   8   44.84    4.76
   7  -9   8   47.30    5.09
   7   9   8   44.76    5.54
   8  10  -8    3.60    2.50
   6  10  -8   -0.30    2.27
  -6  10   8    0.30    2.12
  -4 -10   8    3.33    1.87
  -4  10   8    3.00    1.97
  -2 -10   8    9.90    2.20
  -2  10   8    7.97    2.14
   0 -10   8   -0.71    1.50
   0  10   8   -0.94    1.65
   2 -10   8    4.91    2.02
   2  10   8    9.66    2.42
   4 -10   8   -1.46    1.81
   4  10   8   -3.14    2.10
   6 -10   8    4.48    2.56
   6  10   8    2.51    2.91
   8  10   8    2.11    3.30
   7  11  -8    3.43    2.46
   5  11  -8    7.92    2.60
  -5  11   8   12.30    2.91
  -3 -11   8    6.87    2.12
  -3  11   8    8.77    2.48
  -1 -11   8   11.54    2.29
  -1  11   8   11.78    2.51
   1 -11   8   15.66    2.66
   1  11   8   15.59    2.91
   3 -11   8    6.48    2.20
   3  11   8    2.85    2.48
   5 -11   8   13.36    2.99
   5  11   8    5.64    3.03
   7  11   8    3.57    3.33
   6  12  -8   24.47    3.75
  -6  12   8   32.39    4.40
  -4  12   8   56.15    5.12
   4  12  -8   60.42    5.22
  -2  12   8   47.18    4.37
   0 -12   8  100.69    5.39
   0  12   8   91.73    5.64
   2 -12   8   52.76    4.48
   2  12   8   52.20    4.97
   4 -12   8   62.73    5.17
   4  12   8   51.71    5.60
   6  12   8   29.75    5.08
  -5  13   8   11.12    3.18
   5  13  -8    9.71    2.99
  -3  13   8    0.10    2.36
   3  13  -8   -0.39    2.04
  -1  13   8   13.22    2.99
   1  13   8   11.87    3.05
   3  13   8    4.32    2.94
   5  13   8   11.92    3.87
   6  14  -8    7.56    2.93
   4  14  -8    2.39    2.31
  -4  14   8    0.62    2.68
  -2  14   8    1.24    2.65
   2  14  -8    1.51    2.27
   0  14   8    0.21    2.48
   2  14   8    3.00    2.86
   4  14   8    7.81    3.55
   6  14   8    5.36    3.69
   5  15  -8   20.03    3.58
   3  15  -8   16.05    3.25
  -3  15   8   18.00    3.88
  -1  15   8   23.14    4.17
   1  15  -8   28.36    3.89
   1  15   8   28.22    4.41
   3  15   8   11.06    3.78
   5  15   8   19.20    4.62
   2  16  -8    1.63    2.31
  -2  16   8    0.68    2.71
   0  16   8    6.48    3.35
   0  16  -8    4.59    2.45
   2  16   8    4.79    3.48
   4  16   8    0.57    3.74
  -1  17   8    3.51    3.39
   1  17  -8    3.77    2.59
   1  17   8    1.21    3.23
  -1  17  -8    3.93    2.50
  -6   0   9   -0.05    1.70
  -4   0   9   14.24    2.51
  -4   0   9   17.32    2.24
  -2   0   9    0.99    1.33
  -2   0   9   -0.52    1.46
  -2   0   9   -0.61    0.92
   0   0   9   -0.61    1.39
   4   0   9   15.98    2.13
   4   0   9   15.95    1.51
   4   0   9   17.14    1.50
   6   0   9    1.26    1.93
   8   0   9   12.06    3.27
  10   0   9    4.65    3.34
  -7  -1   9    7.64    2.47
  -7   1   9    0.93    1.64
  -7   1   9    6.37    2.10
  -5  -1   9    9.84    2.02
  -5  -1   9   13.20    2.52
  -5   1   9   13.57    2.46
  -5   1   9   12.30    2.30
  -3  -1   9    8.77    1.57
  -3  -1   9    9.67    2.11
  -3   1   9    9.32    2.13
  -3   1   9    8.95    1.60
  -1  -1   9   13.13    1.88
  -1  -1   9   11.47    1.25
  -1  -1   9    9.76    2.03
  -1   1   9   11.05    1.50
  -1   1   9    9.21    1.96
  -1   1   9    9.76    1.11
   3  -1   9    9.42    1.54
   3  -1   9    8.79    1.15
   3   1   9    7.96    0.91
   3   1   9    8.81    1.45
   3   1   9    7.41    0.91
   5  -1   9    6.80    2.03
   5   1   9    9.61    2.13
   7  -1   9    7.70    2.55
   7   1   9    2.50    2.32
   9  -1   9    6.59    3.06
   9   1   9    6.23    3.16
  -8   2   9    1.12    1.95
  -6  -2   9    7.82    2.11
  -6   2   9    9.30    2.07
  -4  -2   9    1.98    1.60
  -4  -2   9    2.87    1.45
  -4   2   9    3.99    1.91
  -4   2   9    6.18    1.75
  -2  -2   9    6.51    1.93
  -2  -2   9    7.68    1.96
  -2  -2   9    6.59    1.36
  -2   2   9    4.47    1.43
  -2   2   9    3.90    1.78
  -2   2   9    3.25    1.13
   0  -2   9    2.36    0.90
   0  -2   9    1.38    1.55
   0  -2   9    1.85    1.15
   0   2   9    0.05    1.43
   2  -2   9    4.93    1.21
   2  -2   9    3.88    1.05
   4  -2   9    1.07    1.47
   4   2   9    4.95    1.06
   4   2   9    3.57    1.64
   6  -2   9    6.56    2.22
   6   2   9    8.09    2.53
   8  -2   9    4.18    2.55
   8   2   9    0.31    2.45
  10  -2   9    2.76    2.99
  10   2   9    4.95    3.40
  -7  -3   9   16.58    2.93
  -7   3   9   11.83    2.47
  -5  -3   9    6.22    2.08
  -5  -3   9    5.64    1.74
  -5   3   9    6.75    1.71
  -5   3   9    3.55    1.82
  -3  -3   9   14.73    2.33
  -3  -3   9   13.55    1.88
  -3   3   9   13.88    2.32
  -3   3   9   11.35    1.59
  -3   3   9   11.55    1.57
  -1  -3   9    0.66    1.32
  -1  -3   9   -0.76    0.90
  -1  -3   9    0.46    1.55
  -1   3   9    0.00    0.63
  -1   3   9    0.23    1.46
  -1   3   9    1.13    0.99
   1  -3   9    1.12    0.98
   1  -3   9    1.40    1.09
   3  -3   9   15.33    1.70
   3  -3   9   16.86    2.00
   3   3   9   12.23    1.24
   3   3   9   12.29    1.83
   5  -3   9    5.03    1.85
   5   3   9    4.26    1.93
   7  -3   9   14.29    2.96
   7   3   9   15.59    3.27
   9  -3   9   10.11    3.16
   9   3   9    5.53    3.10
  -8   4   9    9.34    2.68
  -6  -4   9   11.39    2.50
  -6  -4   9    9.75    2.50
  -6   4   9    9.86    2.40
  -6   4   9   12.88    2.34
  -4  -4   9    9.85    2.20
  -4  -4   9    9.73    1.89
  -4   4   9   10.08    2.29
  -4   4   9    6.97    1.62
  -2  -4   9   16.46    1.86
  -2  -4   9   13.68    2.27
  -2   4   9   15.39    2.00
  -2   4   9   17.55    2.54
  -2   4   9   16.00    1.57
   0  -4   9    7.29    1.65
   0  -4   9    4.81    1.78
   0  -4   9    6.70    1.33
   0   4   9    5.20    1.89
   2  -4   9   17.30    2.00
   2  -4   9   18.09    1.94
   4  -4   9   11.05    2.08
   4   4   9    7.33    1.96
   6  -4   9    8.45    2.32
   6   4   9    6.20    2.49
   8  -4   9    2.05    2.52
   8   4   9   12.49    3.35
  -7   5   9    7.19    2.52
  -7   5   9    1.63    2.07
  -5  -5   9    6.66    1.95
  -5  -5   9   10.24    2.38
  -5   5   9    7.06    1.88
  -5   5   9   10.27    2.31
  -3  -5   9    4.53    1.74
  -3  -5   9    7.79    1.74
  -3   5   9    5.93    1.89
  -3   5   9    8.46    1.53
  -1  -5   9    9.80    2.07
  -1  -5   9   14.11    1.78
  -1   5   9   11.33    1.30
  -1   5   9    8.52    1.49
  -1   5   9   10.70    2.07
   1  -5   9   11.52    1.70
   3  -5   9   10.45    2.01
   3   5   9   10.26    1.97
   3   5   9    8.90    1.28
   5  -5   9    8.79    2.27
   5   5   9    7.90    2.52
   7  -5   9    5.39    2.38
   7   5   9    4.13    2.63
   9  -5   9    5.23    2.95
   9   5   9    0.22    2.85
  -8   6   9   12.39    2.94
  -6  -6   9   27.79    3.20
  -6  -6   9   25.16    3.29
  -6   6   9   23.16    3.06
  -6   6   9   23.92    3.22
  -4  -6   9   12.40    2.17
  -4  -6   9   15.99    2.59
  -4   6   9   14.02    2.53
  -4   6   9   11.76    2.01
  -2  -6   9   28.18    2.57
  -2  -6   9   30.94    3.01
  -2   6   9   31.32    3.13
  -2   6   9   30.83    2.38
   0  -6   9   17.25    2.00
   0   6   9   13.48    1.56
   0   6   9   15.00    2.46
   0   6   9   16.76    1.67
   2  -6   9   34.96    2.96
   2   6   9   33.37    2.19
   2   6   9   26.38    2.38
   4  -6   9   13.78    2.53
   4   6   9   20.35    2.91
   6  -6   9   28.58    3.51
   6   6   9   26.60    3.84
   8  -6   9   14.10    3.28
   8   6   9    6.32    3.13
  -9  -7   9    1.83    2.78
   9   7  -9    5.03    2.71
  -9   7   9    4.70    2.63
  -7  -7   9    7.97    2.52
  -7   7   9    3.92    2.36
  -7   7   9    5.42    2.31
  -5  -7   9   10.94    2.52
  -5  -7   9    7.35    2.08
  -5   7   9    5.26    2.00
  -5   7   9    7.62    2.42
  -3  -7   9    4.57    1.71
  -3  -7   9    4.24    1.80
  -3   7   9    4.07    1.85
  -3   7   9    3.36    1.49
  -1  -7   9    6.79    1.91
  -1  -7   9    7.52    1.70
  -1   7   9    4.59    1.78
  -1   7   9    7.73    1.49
   1  -7   9    7.56    1.74
   1   7   9    7.31    1.30
   1   7   9    5.68    1.57
   3  -7   9    4.06    1.82
   3   7   9    5.87    1.96
   5  -7   9   11.31    2.69
   5   7   9    9.79    2.70
   7  -7   9    8.22    2.86
   7   7   9    9.48    3.11
   9   7   9    5.63    3.38
  -8  -8   9    7.64    2.82
   8   8  -9    5.83    2.65
  -8   8   9    2.46    2.31
  -6  -8   9    3.10    2.22
  -6   8   9    1.47    2.06
  -6   8   9    1.58    2.04
  -4  -8   9    5.12    1.95
  -4  -8   9    6.17    1.99
  -4   8   9    3.97    1.95
  -4   8   9    8.00    2.00
  -2  -8   9    7.88    1.95
  -2  -8   9    3.44    1.66
  -2   8   9    6.46    1.89
  -2   8   9    5.71    1.67
   0  -8   9    0.25    1.38
   0   8   9    1.24    1.40
   2  -8   9    6.88    1.89
   2   8   9    7.44    1.95
   4  -8   9    7.29    2.21
   4   8   9    7.23    2.41
   6  -8   9    2.29    2.30
   6   8   9    4.85    2.73
   8  -8   9    0.74    2.66
   8   8   9    5.83    3.26
  -7  -9   9    0.48    2.27
  -7   9   9    1.84    2.19
  -7   9   9    0.26    2.22
  -5  -9   9   19.82    3.00
  -5   9   9   19.83    2.99
  -5   9   9   17.37    2.93
  -3  -9   9    3.00    1.73
  -3  -9   9    2.55    1.85
  -3   9   9    1.53    1.67
  -3   9   9    4.97    1.94
  -1  -9   9   16.59    2.43
  -1  -9   9   20.08    2.63
  -1   9   9   16.68    2.35
  -1   9   9   20.15    2.77
   1  -9   9   23.00    2.74
   1   9   9   14.26    2.42
   3  -9   9    4.80    1.97
   3   9   9    0.01    1.95
   5  -9   9   14.67    3.05
   5   9   9   14.26    3.32
   7  -9   9    3.25    2.64
   7   9   9   -0.75    2.90
   8  10  -9    1.41    2.51
  -6  10   9    1.24    2.28
  -4 -10   9    7.33    2.28
  -4  10   9    7.19    2.30
  -2 -10   9    2.58    1.70
  -2  10   9    1.51    1.80
   0 -10   9   12.70    2.37
   0  10   9   14.09    2.54
   2 -10   9    0.93    1.74
   2  10   9    0.25    1.94
   4 -10   9    7.12    2.49
   4  10   9    9.73    3.01
   6 -10   9    5.58    2.67
   6  10   9    4.79    3.09
   7  11  -9    3.06    2.67
  -5  11   9    1.54    2.20
  -3 -11   9    6.29    2.15
  -3  11   9    1.49    2.01
  -1 -11   9    4.18    1.93
  -1  11   9    5.10    2.20
   1 -11   9    2.99    1.97
   1  11   9    4.04    2.15
   3 -11   9    8.29    2.39
   3  11   9    8.17    2.77
   5 -11   9    3.55    2.37
   5  11   9    0.52    2.82
   7  11   9    1.89    3.28
  -6  12   9   12.92    3.50
   6  12  -9   19.59    3.60
  -4  12   9   34.27    4.09
  -2 -12   9    9.39    2.45
  -2  12   9   16.70    3.05
   0 -12   9   37.47    3.83
   0  12   9   41.95    4.26
   2 -12   9   19.47    3.07
   2  12   9   15.08    3.17
   4 -12   9   33.85    4.10
   4  12   9   27.61    4.45
   6  12   9   20.54    4.39
  -5  13   9    4.08    2.73
   5  13  -9    2.53    2.63
  -3  13   9    5.57    2.71
  -1  13   9    4.48    2.51
   1 -13   9    7.76    2.41
   1  13   9    2.54    2.48
   3  13   9    7.12    3.10
   5  13   9    5.32    3.29
  -4  14   9    9.24    3.25
   4  14  -9    5.63    2.76
  -2  14   9    2.78    2.68
   0  14   9   11.23    3.20
   2  14   9    1.95    2.78
   4  14   9   15.64    4.12
   3  15  -9   20.28    3.57
  -3  15   9   19.36    3.98
  -1  15   9   10.27    3.28
   1  15   9   13.32    3.63
   3  15   9   10.51    3.76
  -2  16   9    3.63    3.15
   2  16  -9    2.71    2.54
   0  16   9   -0.29    2.92
   2  16   9   -0.54    3.00
   1  17  -9    2.33    2.57
  -8   0  10   -3.53    1.66
  -6   0  10    2.29    1.98
  -6   0  10   -0.75    1.67
  -4   0  10   12.10    2.03
  -4   0  10    8.59    2.36
  -2   0  10    0.85    1.65
  -2   0  10   -1.80    1.33
  -2   0  10    0.47    0.98
   0   0  10   20.22    2.74
   4   0  10    7.84    1.14
   4   0  10   11.39    1.84
   6   0  10    0.53    1.82
   8   0  10   -0.10    2.29
  -7  -1  10    2.74    2.11
  -7  -1  10    1.49    2.28
  -7   1  10    5.13    2.40
  -7   1  10    1.24    1.81
  -5  -1  10    3.47    1.77
  -5  -1  10    6.18    2.23
  -5   1  10    6.63    2.22
  -5   1  10    3.67    1.82
  -3  -1  10    6.58    1.49
  -3  -1  10    6.34    2.11
  -3   1  10    4.02    1.91
  -3   1  10    9.51    1.64
  -1  -1  10    4.53    1.59
  -1  -1  10    6.11    1.11
  -1  -1  10    5.38    1.93
  -1   1  10    7.26    1.04
  -1   1  10    5.11    1.37
  -1   1  10    7.91    2.07
   3  -1  10    8.67    1.19
   3  -1  10    7.00    1.46
   5  -1  10    6.79    2.03
   5   1  10    4.75    1.83
   7  -1  10    5.06    2.39
   7   1  10    2.90    2.26
   9  -1  10    3.44    2.84
   9   1  10    5.36    3.06
  -8  -2  10   28.67    4.13
  -8   2  10   31.71    4.22
  -8   2  10   26.29    3.49
  -6  -2  10   34.84    3.60
  -6  -2  10   36.82    3.97
  -6   2  10   36.05    3.98
  -6   2  10   28.01    3.06
  -4  -2  10   45.75    4.12
  -4  -2  10   39.97    3.11
  -4   2  10   38.86    3.88
  -4   2  10   47.85    3.44
  -2  -2  10   89.34    3.74
  -2  -2  10  100.85    4.86
  -2   2  10   95.85    4.83
  -2   2  10   96.12    3.62
  -2   2  10   91.41    4.22
   0  -2  10   43.23    2.83
   0  -2  10   48.91    2.39
   0  -2  10   56.73    3.80
   0   2  10   50.37    4.01
   2  -2  10   94.32    3.69
   2  -2  10   96.12    3.50
   4  -2  10   41.78    3.09
   4   2  10   41.79    2.15
   4   2  10   40.22    3.04
   6  -2  10   35.95    3.68
   6   2  10   31.31    3.64
   8  -2  10   31.18    4.19
   8   2  10   25.66    4.04
  -9  -3  10    4.16    2.78
  -9   3  10    0.56    2.52
  -7  -3  10    2.46    2.12
  -7  -3  10    5.57    2.48
  -7   3  10    9.60    2.58
  -7   3  10    3.76    2.04
  -5  -3  10   18.17    3.04
  -5  -3  10   22.23    2.67
  -5   3  10   17.74    2.32
  -5   3  10   20.77    3.09
  -3  -3  10   19.07    2.83
  -3  -3  10   23.81    2.35
  -3   3  10   27.23    2.12
  -3   3  10   26.19    3.10
  -3   3  10   21.00    1.95
  -1  -3  10   28.14    3.08
  -1  -3  10   32.99    2.37
  -1  -3  10   37.64    3.07
  -1   3  10   37.85    3.51
  -1   3  10   33.17    2.24
   1  -3  10   32.87    2.41
   1  -3  10   31.78    2.25
   3  -3  10   21.57    2.23
   5  -3  10   14.97    2.52
   5   3  10   19.03    2.70
   7  -3  10    5.80    2.35
   7   3  10    5.33    2.42
   9  -3  10    1.12    2.60
   9   3  10    0.79    2.79
  -8  -4  10    5.71    2.77
  -8   4  10   10.89    3.00
  -8   4  10   11.64    2.81
  -6  -4  10    7.98    2.56
  -6  -4  10    7.81    2.25
  -6   4  10    5.59    2.42
  -6   4  10    7.05    2.10
  -4  -4  10   19.10    2.41
  -4  -4  10   24.90    3.16
  -4   4  10   26.65    3.24
  -4   4  10   25.84    2.49
  -2  -4  10    9.14    1.62
  -2  -4  10    9.62    2.26
  -2   4  10   10.53    2.29
  -2   4  10    7.20    1.26
  -2   4  10    9.72    1.82
   0  -4  10   43.35    2.65
   0  -4  10   48.79    3.39
   0  -4  10   37.21    3.51
   0   4  10   42.15    3.69
   2  -4  10    7.82    1.60
   4  -4  10   24.25    2.71
   4   4  10   26.20    2.81
   6  -4  10   10.63    2.55
   6   4  10    8.77    2.51
   8  -4  10   10.78    3.03
   8   4  10    5.71    2.96
  -9  -5  10   -4.51    2.26
  -9   5  10    1.05    2.31
  -7  -5  10    9.35    2.77
  -7  -5  10   11.45    2.75
  -7   5  10    9.41    2.75
  -7   5  10   12.64    2.78
  -5  -5  10    5.77    2.19
  -5  -5  10    3.35    1.79
  -5   5  10    4.69    1.77
  -5   5  10    0.05    1.85
  -3  -5  10   15.22    2.13
  -3  -5  10   10.71    2.24
  -3   5  10   11.95    1.78
  -3   5  10   13.22    2.53
  -1  -5  10   11.06    1.73
  -1  -5  10   13.94    2.40
  -1   5  10   10.51    2.23
  -1   5  10    6.68    1.19
  -1   5  10    8.21    1.52
   1  -5  10    7.95    1.59
   3  -5  10   10.40    2.04
   3   5  10   14.14    2.13
   3   5  10   11.28    1.37
   5  -5  10    1.24    1.76
   5   5  10    2.07    2.07
   7  -5  10   12.90    3.01
   7   5  10   13.80    3.22
   9  -5  10    0.58    2.53
   9   5  10   -1.30    2.83
  -8  -6  10    2.75    2.37
  -8   6  10    4.37    2.40
  -8   6  10    0.70    2.22
  -6  -6  10    7.50    2.56
  -6  -6  10    4.48    2.02
  -6   6  10    4.38    2.08
  -6   6  10    5.54    2.45
  -4  -6  10   -0.59    1.40
  -4  -6  10   -0.82    1.68
  -4   6  10    1.97    1.46
  -4   6  10   -0.68    1.62
  -2  -6  10   18.84    2.25
  -2  -6  10   23.85    2.94
  -2   6  10   15.94    2.66
  -2   6  10   19.28    2.02
   0  -6  10   -0.05    1.26
   0   6  10    1.80    1.09
   0   6  10    0.60    1.02
   2  -6  10   20.55    2.36
   2   6  10   18.34    1.61
   2   6  10   20.85    2.15
   4  -6  10    1.26    1.71
   4   6  10    0.64    1.77
   6  -6  10    4.46    2.29
   6   6  10    4.41    2.59
   8  -6  10    5.07    2.73
   8   6  10    1.68    2.84
  -7  -7  10   -0.09    2.16
  -7   7  10    0.23    2.16
  -7   7  10   -0.44    2.05
  -5  -7  10    4.63    1.96
  -5  -7  10    5.99    2.25
  -5   7  10    6.39    2.22
  -5   7  10    2.73    1.91
  -3  -7  10    0.52    1.65
  -3  -7  10    1.01    1.50
  -3   7  10    1.49    1.34
  -3   7  10    0.80    1.82
  -1  -7  10    7.14    2.09
  -1  -7  10    5.69    1.67
  -1   7  10    4.52    1.86
  -1   7  10    5.65    1.43
   1  -7  10    5.50    1.67
   1   7  10    5.49    1.30
   1   7  10    5.67    1.63
   3  -7  10   -0.32    1.60
   3   7  10    1.84    1.86
   5  -7  10    5.63    2.26
   5   7  10    4.24    2.41
   7  -7  10   -0.39    2.23
   7   7  10    3.90    2.62
  -8  -8  10   14.96    3.48
  -8   8  10   13.28    3.27
  -6  -8  10   53.21    4.77
  -6   8  10   44.11    4.28
  -6   8  10   45.41    4.49
  -4  -8  10   52.94    4.35
  -4   8  10   60.53    4.27
  -4   8  10   54.07    3.80
  -2  -8  10   59.13    3.78
  -2  -8  10   50.54    3.60
  -2   8  10   59.13    3.50
  -2   8  10   52.63    3.68
   0  -8  10   94.69    4.59
   0   8  10   91.73    4.24
   2  -8  10   60.92    3.88
   2   8  10   53.52    3.72
   4  -8  10   61.40    4.35
   4   8  10   54.11    4.53
   6  -8  10   51.43    4.82
   6   8  10   41.38    4.77
   8  -8  10   23.27    4.17
   8   8  10   12.73    3.76
  -7   9  10    9.99    2.95
  -7   9  10    8.16    2.90
  -5  -9  10    0.53    1.87
  -5  -9  10    5.07    2.24
  -5   9  10    3.83    2.20
  -5   9  10    3.86    2.20
  -3  -9  10   15.06    2.53
  -3  -9  10   15.72    2.63
  -3   9  10   14.57    2.45
  -3   9  10   15.55    2.71
  -1  -9  10   11.92    2.23
  -1   9  10   13.09    2.13
   1  -9  10   12.48    2.29
   1   9  10   11.52    2.27
   3  -9  10   18.36    2.67
   3   9  10   16.12    2.89
   5  -9  10    3.26    2.25
   5   9  10    2.76    2.66
   7  -9  10    3.53    2.72
   7   9  10    4.86    3.31
  -6  10  10    3.18    2.52
  -4 -10  10    1.92    2.01
  -4  10  10   -0.96    1.78
  -2 -10  10    2.35    1.77
  -2  10  10    3.04    1.90
   0 -10  10   -0.91    1.62
   0  10  10   -0.45    1.66
   2 -10  10    6.20    2.07
   2  10  10    2.91    2.06
   4 -10  10    0.78    1.97
   4  10  10    5.25    2.70
   6 -10  10    3.13    2.49
   6  10  10    4.87    3.04
  -7  11  10   -0.64    2.54
  -5  11  10   17.66    3.35
  -3 -11  10   10.33    2.38
  -3  11  10    3.49    2.18
  -1 -11  10   17.03    2.82
  -1  11  10   17.14    2.80
   1 -11  10   12.93    2.60
   1  11  10   18.25    3.02
   3 -11  10    7.58    2.37
   3  11  10    8.80    2.92
   5 -11  10   20.73    3.40
   5  11  10   14.72    3.60
  -6  12  10    8.69    3.13
  -4  12  10   13.46    3.12
  -2 -12  10    6.10    2.22
  -2  12  10    5.49    2.33
   0 -12  10   23.78    3.20
   0  12  10   14.90    3.07
   2 -12  10    4.55    2.26
   2  12  10    4.30    2.60
   4 -12  10   15.20    3.13
   4  12  10   10.40    3.45
   6  12  10    4.41    3.34
  -5  13  10   -0.48    2.52
  -3  13  10    0.62    2.21
  -1  13  10    2.35    2.33
   1 -13  10    1.52    2.07
   1  13  10    0.74    2.35
   3 -13  10    1.50    2.20
   3  13  10   -0.65    2.65
   5  13  10    4.44    3.27
  -4  14  10   25.61    4.12
  -2  14  10   28.27    4.25
   0  14  10   33.33    4.46
   2  14  10   29.09    4.55
   4  14  10   26.95    4.71
  -3  15  10    1.60    2.78
  -1  15  10   -0.02    2.68
   1  15  10    2.23    2.96
   3  15  10   -0.42    2.94
   0  16  10   -0.76    2.92
  -8   0  11    3.95    2.69
  -8   0  11    5.94    2.44
  -6   0  11    2.70    2.04
  -6   0  11    2.95    2.23
  -4   0  11    4.85    1.68
  -4   0  11    6.48    2.29
  -2   0  11   -0.12    1.02
  -2   0  11   -0.05    1.75
  -2   0  11   -0.82    1.37
   0   0  11   -0.55    1.69
   4   0  11    4.45    1.60
   6   0  11    3.25    2.03
   8   0  11    6.30    2.74
  -9  -1  11   23.38    4.26
  -9   1  11   26.56    4.37
  -7  -1  11    6.77    2.68
  -7  -1  11    0.49    2.03
  -7   1  11    2.45    1.97
  -7   1  11    3.18    2.48
  -5  -1  11   69.12    4.35
  -5  -1  11   56.91    5.03
  -5   1  11   50.54    4.77
  -5   1  11   61.43    4.20
  -3  -1  11   25.20    3.29
  -3  -1  11   22.12    2.19
  -3   1  11   19.19    2.12
  -3   1  11   21.97    3.22
  -1  -1  11   66.83    4.17
  -1  -1  11   58.74    3.60
  -1  -1  11   64.69    2.76
  -1   1  11   55.92    3.23
  -1   1  11   56.17    3.93
   3  -1  11   28.62    1.94
   3  -1  11   25.37    2.16
   5  -1  11   55.87    3.77
   5   1  11   51.26    3.76
   7  -1  11    2.81    2.32
   7   1  11    6.12    2.55
   9  -1  11   26.58    4.28
   9   1  11   25.12    4.25
  -8  -2  11   29.82    4.44
  -8   2  11   22.95    3.45
  -8   2  11   13.56    3.43
  -6  -2  11   32.89    4.24
  -6  -2  11   32.61    3.59
  -6   2  11   30.56    3.23
  -6   2  11   36.56    4.27
  -4  -2  11   71.01    4.57
  -4  -2  11   69.34    3.92
  -4   2  11   72.20    4.06
  -4   2  11   75.87    4.74
  -2  -2  11   57.65    4.03
  -2  -2  11   56.68    3.09
  -2   2  11   62.46    2.93
  -2   2  11   60.05    4.14
  -2   2  11   59.15    3.72
   0  -2  11  110.38    4.35
   0  -2  11  108.44    5.33
   0  -2  11  110.32    3.75
   0   2  11  123.37    5.57
   2  -2  11   60.73    2.84
   2  -2  11   61.11    2.96
   4  -2  11   70.05    3.80
   4   2  11   71.70    3.74
   4   2  11   69.59    2.78
   6  -2  11   35.56    3.62
   6   2  11   30.66    3.50
   8  -2  11   25.45    3.82
   8   2  11   24.66    3.93
  -9  -3  11   -0.87    2.83
  -7  -3  11    5.90    2.37
  -7  -3  11    3.67    2.62
  -7   3  11    4.86    2.56
  -7   3  11    5.58    2.17
  -5  -3  11    4.76    2.29
  -5  -3  11    0.89    1.55
  -5   3  11    0.97    1.42
  -5   3  11    1.99    2.03
  -3  -3  11    5.19    1.55
  -3  -3  11    6.21    2.23
  -3   3  11    4.80    1.33
  -3   3  11    6.84    2.33
  -1  -3  11   -0.21    1.68
  -1  -3  11    1.29    1.08
  -1   3  11   -0.17    1.73
  -1   3  11   -0.42    1.04
   1  -3  11    1.28    1.19
   1  -3  11    0.29    1.02
   3  -3  11    6.16    1.67
   5  -3  11    3.11    1.73
   5   3  11    1.37    1.75
   7  -3  11    5.72    2.36
   7   3  11    2.23    2.24
   9  -3  11   -0.93    2.45
  -8  -4  11   26.53    4.13
  -8   4  11   25.19    4.11
  -8   4  11   23.61    3.62
  -6  -4  11   41.57    4.04
  -6  -4  11   48.50    4.90
  -6   4  11   44.34    3.82
  -6   4  11   46.16    4.76
  -4  -4  11   51.23    3.53
  -4  -4  11   58.79    4.78
  -4   4  11   56.29    4.75
  -4   4  11   54.01    3.27
  -2  -4  11   82.03    4.65
  -2  -4  11   81.92    3.84
  -2   4  11   83.81    3.29
  -2   4  11   87.17    4.85
   0  -4  11   82.79    3.55
   0  -4  11   76.27    4.55
   0   4  11   79.56    4.71
   2  -4  11   78.28    3.70
   4  -4  11   58.05    3.82
   4   4  11   63.81    3.83
   6  -4  11   41.19    4.05
   6   4  11   46.01    4.24
   8  -4  11   20.61    3.65
   8   4  11   25.02    4.02
  -7  -5  11   39.75    4.18
  -7  -5  11   39.21    4.60
  -7   5  11   40.82    4.72
  -7   5  11   37.80    4.07
  -5  -5  11   13.76    2.84
  -5  -5  11   11.36    2.29
  -5   5  11   12.75    2.26
  -5   5  11   13.62    2.92
  -3  -5  11   62.42    4.23
  -3  -5  11   62.95    3.72
  -3   5  11   63.87    4.30
  -3   5  11   53.79    3.19
  -1  -5  11   48.64    4.07
  -1  -5  11   45.90    3.02
  -1   5  11   39.42    3.83
  -1   5  11   42.01    2.33
  -1   5  11   42.83    2.91
   1  -5  11   46.59    2.99
   3  -5  11   60.63    3.70
   5  -5  11   13.10    2.57
   5   5  11   10.38    2.52
   7  -5  11   42.23    4.36
   7   5  11   38.76    4.53
  -8  -6  11    1.83    2.74
  -8   6  11    1.92    2.45
  -8   6  11    2.69    2.62
  -6  -6  11    5.21    2.18
  -6  -6  11    3.87    2.56
  -6   6  11    1.87    1.94
  -6   6  11    3.86    2.26
  -4  -6  11    2.89    1.70
  -4  -6  11    4.07    2.22
  -4   6  11    4.15    1.63
  -4   6  11    2.43    2.15
  -2  -6  11    0.95    1.44
  -2  -6  11    0.91    1.84
  -2   6  11    3.12    1.86
  -2   6  11    1.24    1.14
   0  -6  11    3.63    1.46
   2  -6  11    3.24    1.55
   4  -6  11   -1.11    1.66
   4   6  11    5.39    2.01
   6  -6  11    4.80    2.33
   6   6  11    4.08    2.57
   8  -6  11    2.24    2.58
   8   6  11   -3.58    2.32
  -7  -7  11   24.33    3.96
  -7   7  11   19.86    3.66
  -7   7  11   27.16    3.67
  -5  -7  11    6.40    2.12
  -5  -7  11    2.49    2.24
  -5   7  11    7.48    2.21
  -5   7  11    4.37    2.33
  -3  -7  11   42.19    4.00
  -3  -7  11   33.12    3.15
  -3   7  11   38.53    3.97
  -3   7  11   37.76    3.05
  -1  -7  11   24.40    2.64
  -1  -7  11   27.42    3.33
  -1   7  11   27.71    3.44
  -1   7  11   28.40    2.35
   1  -7  11   27.74    2.82
   1   7  11   28.68    2.53
   1   7  11   30.50    2.24
   3  -7  11   42.96    3.61
   3   7  11   42.96    3.56
   5  -7  11    6.32    2.36
   5   7  11    6.52    2.53
   7  -7  11   26.40    4.05
   7   7  11   26.73    4.10
  -8  -8  11    7.26    3.12
  -8   8  11    8.36    3.07
  -6  -8  11   19.41    3.40
  -6   8  11   15.33    3.19
  -6   8  11   15.49    3.02
  -4  -8  11    8.89    2.70
  -4   8  11   12.27    2.28
  -4   8  11   12.98    2.87
  -2  -8  11   31.37    3.08
  -2  -8  11   42.03    3.86
  -2   8  11   41.32    3.05
  -2   8  11   40.85    3.90
   0  -8  11    8.57    1.97
   0   8  11   10.50    1.90
   2  -8  11   32.87    3.19
   2   8  11   43.40    3.46
   4  -8  11   13.00    2.64
   4   8  11    7.77    2.53
   6  -8  11   20.10    3.56
   6   8  11   14.09    3.46
   8  -8  11    3.65    2.91
  -7   9  11   -0.76    2.35
  -5  -9  11   10.12    2.74
  -5  -9  11    4.93    2.19
  -5   9  11    6.22    2.33
  -5   9  11    4.55    2.42
  -3  -9  11   -3.56    1.71
  -3  -9  11   -0.84    1.57
  -3   9  11    1.86    1.97
  -3   9  11    1.50    1.77
  -1  -9  11    3.74    1.81
  -1   9  11    4.73    1.83
   1  -9  11    3.10    1.78
   1   9  11    9.39    2.16
   3  -9  11   -0.01    1.77
   3   9  11    1.92    2.07
   5  -9  11    7.72    2.55
   5   9  11    9.98    3.05
   7  -9  11    7.05    2.89
   7   9  11    0.35    2.87
  -6  10  11   15.01    3.19
  -4  10  11   19.70    3.03
  -2  10  11   26.21    3.01
   0 -10  11   14.54    2.57
   0  10  11   23.07    3.01
   2 -10  11   25.80    3.24
   2  10  11   28.51    3.42
   4 -10  11   19.46    3.16
   4  10  11   18.11    3.46
   6 -10  11   14.82    3.29
   6  10  11   18.63    3.94
  -5  11  11   20.75    3.45
  -3 -11  11   13.83    2.74
  -3  11  11   16.76    2.94
  -1  11  11   29.57    3.49
   1 -11  11   27.00    3.40
   1  11  11   25.87    3.46
   3 -11  11   15.46    2.91
   3  11  11   13.60    3.24
   5 -11  11   22.42    3.63
   5  11  11   25.14    4.25
  -6  12  11   -1.09    2.48
  -4  12  11   -1.44    2.09
  -2 -12  11    3.36    1.95
  -2  12  11    2.28    2.19
   0 -12  11    7.36    2.30
   0  12  11    5.27    2.47
   2 -12  11    2.17    2.07
   2  12  11    4.40    2.58
   4 -12  11    3.42    2.31
   4  12  11    3.84    2.93
  -5  13  11   13.21    3.40
  -3  13  11    5.48    2.70
  -1 -13  11    8.28    2.58
  -1  13  11   16.35    3.26
   1 -13  11   10.25    2.66
   1  13  11   16.69    3.46
   3 -13  11    8.63    2.77
   3  13  11   13.66    3.56
  -4  14  11    1.05    2.74
  -2  14  11   -2.68    2.37
   0  14  11    9.75    3.11
   2  14  11    0.55    2.75
  -1  15  11    1.17    2.61
   1  15  11   -1.97    2.81
  -8   0  12    0.10    2.07
  -8   0  12    1.10    2.82
  -6   0  12   11.46    3.04
  -6   0  12   17.25    3.01
  -4   0  12    9.32    2.67
  -4   0  12    9.46    1.96
  -2   0  12   16.19    2.94
  -2   0  12   19.76    1.86
   0   0  12   19.70    3.12
   4   0  12    8.68    1.74
   6   0  12   21.00    3.00
   8   0  12   -2.14    2.20
  -7  -1  12    9.11    2.74
  -7  -1  12    9.73    3.24
  -7   1  12    9.31    3.11
  -7   1  12    5.46    2.24
  -5  -1  12   11.17    2.35
  -5  -1  12   10.58    2.90
  -5   1  12   14.30    3.11
  -5   1  12   14.99    2.58
  -3  -1  12   21.50    3.39
  -3  -1  12   24.74    2.37
  -3   1  12   26.48    3.57
  -3   1  12   19.07    2.22
  -1  -1  12   24.10    1.90
  -1  -1  12   23.28    2.46
  -1  -1  12   22.37    3.23
  -1   1  12   26.67    3.45
   3  -1  12   24.83    2.14
   3  -1  12   21.89    1.69
   5  -1  12    9.55    2.07
   5   1  12   10.39    2.24
   7  -1  12    6.80    2.50
   7   1  12    8.91    2.66
  -8  -2  12    4.89    2.65
  -8  -2  12    0.85    2.68
  -8   2  12    3.76    2.89
  -8   2  12    4.95    2.42
  -6  -2  12    8.23    2.36
  -6  -2  12   10.02    3.12
  -6   2  12    5.48    2.74
  -6   2  12    5.92    2.07
  -4  -2  12    3.81    1.67
  -4  -2  12    3.67    2.27
  -4   2  12    3.23    1.37
  -4   2  12    3.32    1.63
  -4   2  12    5.57    2.34
  -2  -2  12   32.37    3.74
  -2  -2  12   26.42    2.29
  -2   2  12   27.05    2.22
  -2   2  12   29.36    3.63
   0  -2  12    0.40    0.93
   0  -2  12    2.73    1.37
   0  -2  12    1.78    2.06
   0   2  12    1.76    2.02
   2  -2  12   27.89    2.14
   2  -2  12   30.17    2.18
   4  -2  12    2.08    1.53
   6  -2  12    7.34    2.24
   6   2  12    8.64    2.47
   8  -2  12    3.88    2.56
   8   2  12    1.04    2.53
  -7  -3  12    3.48    2.21
  -7  -3  12   11.08    3.28
  -7   3  12    8.87    3.03
  -7   3  12    2.52    2.01
  -5  -3  12    0.30    2.09
  -5  -3  12    1.13    1.73
  -5   3  12    1.95    1.50
  -5   3  12    0.83    2.29
  -3  -3  12    4.70    1.56
  -3  -3  12    2.47    2.17
  -3   3  12    3.89    2.29
  -3   3  12    3.28    1.27
  -1  -3  12    2.65    1.19
  -1  -3  12    3.85    2.17
  -1   3  12    1.29    1.99
   1  -3  12    0.19    1.08
   3  -3  12    2.48    1.47
   5  -3  12    4.52    1.94
   5   3  12    2.45    1.83
   7  -3  12    6.43    2.48
   7   3  12    2.32    2.36
  -8  -4  12   12.35    3.59
  -8   4  12   16.48    3.84
  -8   4  12   16.14    3.29
  -6  -4  12   19.82    3.59
  -6  -4  12   21.63    3.22
  -6   4  12   23.63    2.96
  -6   4  12   21.33    3.55
  -4  -4  12   49.72    4.64
  -4  -4  12   47.09    3.49
  -4   4  12   46.06    4.59
  -4   4  12   48.61    3.20
  -2  -4  12   31.67    2.67
  -2  -4  12   33.78    3.74
  -2   4  12   33.46    2.24
  -2   4  12   30.63    3.66
   0  -4  12   82.01    3.65
   2  -4  12   30.63    2.51
   4  -4  12   50.07    3.64
   4   4  12   50.36    3.40
   6  -4  12   20.86    3.21
   6   4  12   28.56    3.43
   8  -4  12   16.66    3.35
   8   4  12   14.62    3.44
  -7  -5  12    0.25    2.02
  -7  -5  12    2.42    2.73
  -7   5  12   -0.14    2.34
  -7   5  12    0.86    2.10
  -5  -5  12    7.33    2.11
  -5  -5  12    9.20    2.67
  -5   5  12    8.33    2.18
  -5   5  12   10.32    2.80
  -3  -5  12   10.31    2.52
  -3  -5  12   11.80    2.10
  -3   5  12    5.50    2.51
  -3   5  12    9.87    1.75
  -1  -5  12   11.36    2.51
  -1  -5  12   15.09    2.07
  -1   5  12   16.65    2.93
  -1   5  12   16.36    1.62
  -1   5  12   16.90    1.96
   1  -5  12   15.79    2.07
   3  -5  12   11.32    2.09
   5  -5  12   10.43    2.58
   5   5  12    6.22    2.20
   7  -5  12    1.28    2.31
   7   5  12   -1.50    2.15
  -8  -6  12   12.12    3.59
  -8   6  12    6.61    2.81
  -8   6  12   10.64    3.42
  -6  -6  12    0.85    2.32
  -6  -6  12    4.46    2.20
  -6   6  12    4.87    2.14
  -6   6  12    4.45    2.57
  -4  -6  12   14.15    3.04
  -4  -6  12    7.02    2.04
  -4   6  12   14.54    3.10
  -4   6  12   10.58    2.08
  -2  -6  12   10.49    1.89
  -2  -6  12    7.22    2.27
  -2   6  12    5.20    1.47
  -2   6  12    6.24    2.44
   0  -6  12    8.84    1.84
   2  -6  12    9.02    1.95
   4  -6  12   12.90    2.44
   4   6  12   12.68    2.38
   6  -6  12    6.19    2.46
   6   6  12    5.81    2.61
   8  -6  12    4.08    2.93
  -7  -7  12    9.17    3.06
  -7   7  12    5.34    2.47
  -7   7  12    7.03    2.90
  -5  -7  12   12.37    3.14
  -5  -7  12   12.03    2.54
  -5   7  12   12.31    2.52
  -5   7  12   15.24    3.25
  -3  -7  12   16.40    2.93
  -3  -7  12   20.13    2.63
  -3   7  12   13.46    2.13
  -3   7  12   15.70    2.99
  -1  -7  12   21.89    2.60
  -1  -7  12   26.30    3.50
  -1   7  12   26.09    2.34
  -1   7  12   30.38    3.74
   1  -7  12   25.00    2.67
   1   7  12   25.18    2.39
   3  -7  12   14.00    2.41
   3   7  12   11.05    2.32
   5  -7  12   16.36    2.90
   5   7  12   16.67    3.06
   7  -7  12    7.65    2.85
   7   7  12    8.11    3.11
  -6  -8  12    3.97    2.56
  -6  -8  12   -2.16    1.84
  -6   8  12    4.83    2.32
  -6   8  12    4.49    2.65
  -4  -8  12    4.99    2.50
  -4  -8  12    0.38    1.84
  -4   8  12    0.95    1.79
  -4   8  12    1.01    2.24
  -2  -8  12    5.72    1.88
  -2  -8  12    1.78    2.17
  -2   8  12    3.03    2.22
  -2   8  12    4.54    1.66
   0  -8  12    2.36    1.66
   0   8  12    5.28    1.64
   2  -8  12    5.87    2.01
   2   8  12    3.42    1.87
   4  -8  12    2.79    2.00
   4   8  12   -0.14    1.97
   6  -8  12    4.70    2.57
   6   8  12    2.38    2.61
  -7   9  12    2.56    2.58
  -5  -9  12    4.24    2.60
  -5  -9  12    2.67    2.05
  -5   9  12    1.47    2.41
  -5   9  12    2.86    2.19
  -3  -9  12   -0.92    1.67
  -3  -9  12    2.80    2.34
  -3   9  12    1.07    2.12
  -3   9  12   -0.04    1.70
  -1  -9  12    0.49    1.71
  -1   9  12    0.84    1.50
   1  -9  12    2.43    1.81
   1   9  12    3.47    1.75
   3  -9  12    0.48    1.81
   3   9  12    1.02    2.01
   5  -9  12    2.36    2.19
   5   9  12    3.58    2.57
   7  -9  12    6.42    2.87
  -6  10  12   36.73    4.28
  -4  10  12   51.90    4.41
  -2  10  12   64.86    4.26
   0 -10  12   60.44    4.23
   0  10  12   66.72    4.28
   2 -10  12   69.94    4.66
   2  10  12   80.17    5.01
   4 -10  12   47.23    4.40
   4  10  12   46.64    4.68
   6 -10  12   28.53    4.10
   6  10  12   39.06    4.90
  -5  11  12   -0.20    2.20
  -3 -11  12   14.19    2.76
  -3  11  12    5.62    2.28
  -1 -11  12    8.51    2.35
  -1  11  12    6.36    2.39
   1 -11  12    6.98    2.26
   1  11  12    9.65    2.60
   3 -11  12    9.75    2.65
   3  11  12    7.79    2.83
   5 -11  12    3.99    2.41
   5  11  12    2.08    2.70
  -4  12  12    1.55    2.30
  -2 -12  12    3.08    2.12
  -2  12  12    4.10    2.32
   0 -12  12    1.32    2.04
   0  12  12    2.86    2.36
   2 -12  12    1.68    2.09
   2  12  12    7.21    2.72
   4 -12  12    2.67    2.33
   4  12  12   -1.36    2.73
  -3  13  12   20.39    3.58
  -1 -13  12    6.98    2.49
  -1  13  12   17.68    3.43
   1 -13  12   17.66    3.12
   1  13  12   13.59    3.36
   3 -13  12   15.58    3.33
   3  13  12   22.38    4.11
  -2  14  12   -1.32    2.53
   0  14  12   -0.04    2.63
   2  14  12   -0.32    2.83
  -8   0  13    2.76    2.95
  -8   0  13    3.29    2.28
  -6   0  13    2.17    2.03
  -6   0  13    1.20    2.21
  -4   0  13   -0.01    2.21
  -4   0  13   -3.15    1.44
  -2   0  13    0.24    2.02
  -2   0  13   -0.33    1.07
   0   0  13    2.91    2.14
   4   0  13   -1.12    1.26
   6   0  13    0.50    1.86
   8   0  13   -2.00    2.19
  -7  -1  13   16.27    3.84
  -7  -1  13   19.45    3.35
  -7   1  13   26.43    3.36
  -7   1  13   17.92    3.81
  -5  -1  13    1.68    1.87
  -5  -1  13    0.46    2.40
  -5   1  13    5.61    2.46
  -5   1  13    3.03    1.97
  -3  -1  13   21.89    3.63
  -3  -1  13   21.11    2.29
  -3   1  13   23.76    2.40
  -3   1  13   22.47    3.63
  -1  -1  13   13.08    2.91
  -1   1  13    7.14    2.54
   3  -1  13   23.35    2.08
   5  -1  13    0.84    1.61
   5   1  13    0.39    1.61
   7  -1  13   21.22    3.32
   7   1  13   24.22    3.53
  -8  -2  13    2.68    3.30
  -8  -2  13   15.14    3.31
  -8  -2  13   18.65    3.01
  -8   2  13   22.31    3.45
  -8   2  13   16.38    3.90
  -6  -2  13    8.95    3.01
  -6  -2  13   14.85    2.83
  -6   2  13   17.58    3.61
  -6   2  13   12.05    2.43
  -4  -2  13   23.99    2.75
  -4  -2  13   32.79    4.22
  -4   2  13   26.06    2.72
  -4   2  13   27.36    4.04
  -4   2  13   28.03    2.50
  -2  -2  13   14.98    3.11
  -2  -2  13   14.76    1.90
  -2   2  13   16.48    1.82
  -2   2  13   14.79    3.01
   0  -2  13   42.64    2.51
   2  -2  13   15.50    1.68
   4  -2  13   31.78    2.85
   6  -2  13   14.60    2.69
   6   2  13   12.92    2.67
  -7  -3  13    1.13    2.23
  -7  -3  13    1.47    2.83
  -7   3  13    1.26    2.00
  -7   3  13    0.88    2.74
  -5  -3  13    7.19    2.86
  -5  -3  13    6.17    2.13
  -5   3  13    7.24    1.88
  -5   3  13    7.85    2.80
  -3  -3  13    1.97    1.45
  -3  -3  13   -1.61    1.98
  -3   3  13    0.93    1.22
  -3   3  13    2.77    2.32
  -1  -3  13    2.15    2.13
  -1  -3  13    1.68    1.24
  -1   3  13    1.66    2.01
   1  -3  13    3.38    1.24
   3  -3  13    1.71    1.34
   5  -3  13    5.65    2.05
   5   3  13    3.75    1.92
   7  -3  13    1.12    2.20
   7   3  13    0.85    2.32
  -8   4  13    6.71    2.79
  -6  -4  13   30.58    3.62
  -6  -4  13   30.54    4.31
  -6   4  13   26.09    4.14
  -6   4  13   23.11    3.06
  -4  -4  13    8.29    2.77
  -4  -4  13   14.00    2.35
  -4   4  13   15.10    2.15
  -4   4  13   12.53    3.21
  -2  -4  13   47.79    3.18
  -2  -4  13   49.31    4.67
  -2   4  13   57.02    5.02
  -2   4  13   47.97    2.61
   0  -4  13    7.45    1.54
   2  -4  13   50.62    3.10
   4  -4  13   11.64    2.25
   6  -4  13   29.62    3.64
   6   4  13   32.69    3.58
  -7  -5  13    0.50    2.51
  -7  -5  13    0.82    2.18
  -7   5  13   -0.36    2.52
  -7   5  13   -1.58    1.91
  -5  -5  13   18.39    3.56
  -5  -5  13   11.58    2.47
  -5   5  13   22.66    3.84
  -5   5  13   21.18    2.78
  -3  -5  13    1.70    1.59
  -3  -5  13    8.52    2.70
  -3   5  13    2.93    2.25
  -3   5  13    1.09    1.30
  -1  -5  13   20.33    3.30
  -1  -5  13   13.03    1.99
  -1   5  13   15.25    3.14
   1  -5  13   18.83    2.19
   3  -5  13    4.17    1.75
   5  -5  13   24.68    3.20
   5   5  13   22.28    2.88
   7  -5  13    1.37    2.34
   7   5  13    0.57    2.42
  -6  -6  13    4.13    2.69
  -6  -6  13   -0.52    1.84
  -6   6  13    4.36    2.80
  -6   6  13    3.57    2.15
  -4  -6  13   -1.39    2.23
  -4  -6  13    5.60    1.97
  -4   6  13    1.17    1.60
  -4   6  13    5.62    2.51
  -2  -6  13    5.59    1.74
  -2  -6  13    6.21    2.53
  -2   6  13    1.53    2.25
  -2   6  13    4.57    1.48
   0  -6  13    1.98    1.48
   2  -6  13    6.55    1.78
   4  -6  13    2.43    1.86
   6  -6  13    1.55    2.31
   6   6  13    2.33    2.32
  -7  -7  13    4.98    2.94
  -7   7  13   -0.36    2.46
  -7   7  13    1.64    2.29
  -5  -7  13   15.17    2.77
  -5  -7  13   22.12    3.83
  -5   7  13   17.58    2.82
  -5   7  13   15.92    3.58
  -3  -7  13    1.82    1.73
  -3  -7  13    3.27    2.38
  -3   7  13    4.08    2.42
  -3   7  13    0.01    1.42
  -1  -7  13   10.99    2.14
  -1   7  13   13.63    1.93
   1  -7  13    9.82    2.09
   3  -7  13    0.27    1.64
   5  -7  13   14.56    2.81
   5   7  13   20.88    3.19
   7  -7  13    1.63    2.68
  -6  -8  13    0.84    2.72
  -6  -8  13    2.51    2.16
  -6   8  13    2.67    2.31
  -6   8  13    6.28    2.89
  -4  -8  13   11.56    3.04
  -4  -8  13    6.24    2.16
  -4   8  13    5.58    2.02
  -4   8  13    5.56    2.68
  -2  -8  13    7.08    2.76
  -2  -8  13    1.94    1.74
  -2   8  13    3.56    1.74
  -2   8  13    3.11    2.53
   0  -8  13    7.17    1.99
   0   8  13   10.42    2.00
   2  -8  13    5.22    1.96
   4  -8  13    7.44    2.35
   4   8  13    8.70    2.51
   6  -8  13    3.60    2.38
   6   8  13    3.80    2.61
  -5  -9  13   -1.67    1.88
  -5   9  13   -2.66    1.85
  -5   9  13   -1.49    2.40
  -3  -9  13    5.11    2.65
  -3  -9  13    1.53    1.91
  -3   9  13    1.03    2.26
  -3   9  13    5.45    2.08
  -1  -9  13    6.07    2.04
  -1   9  13   -1.39    1.59
   1  -9  13    2.89    1.96
   1   9  13    2.47    1.76
   3  -9  13    4.10    2.15
   3   9  13    1.65    2.23
   5  -9  13   -1.74    1.97
   5   9  13   -0.17    2.32
  -4  10  13   23.34    3.35
  -2 -10  13   -0.87    1.70
  -2  10  13    2.31    1.88
   0 -10  13   31.70    3.38
   0  10  13   26.81    3.12
   2 -10  13   -0.31    1.89
   2  10  13    0.67    2.15
   4 -10  13   19.40    3.15
   4  10  13   17.61    3.36
  -3 -11  13    7.74    2.51
  -3  11  13   12.16    2.71
  -1 -11  13   10.56    2.50
  -1  11  13    4.89    2.31
   1 -11  13    3.56    2.18
   1  11  13    4.38    2.32
   3 -11  13   13.52    2.91
   3  11  13   11.21    3.02
   5 -11  13    1.64    2.41
  -2 -12  13   -0.36    2.10
  -2  12  13    2.30    2.27
   0 -12  13    5.46    2.37
   0  12  13    3.05    2.49
   2 -12  13   -0.75    2.00
   2  12  13    1.25    2.46
   4 -12  13    0.10    2.32
  -1 -13  13    2.81    2.31
  -1  13  13    5.33    2.67
   1 -13  13   -2.05    1.94
   1  13  13    5.20    2.80
   3 -13  13    9.28    2.93
  -6   0  14   12.22    2.66
  -6   0  14   12.54    3.69
  -6   0  14   10.03    2.28
  -4   0  14   -1.76    2.22
  -4   0  14    0.63    1.58
  -2   0  14   19.61    2.05
  -2   0  14   24.64    3.83
   6   0  14   10.67    2.32
  -7  -1  14    8.02    3.42
  -7  -1  14    3.03    2.40
  -7  -1  14    6.27    2.17
  -7   1  14    7.60    3.22
  -7   1  14    4.43    2.22
  -5  -1  14    5.03    2.09
  -5  -1  14    6.69    3.18
  -5   1  14    3.93    1.70
  -5   1  14    7.42    2.20
  -5   1  14    5.89    3.05
  -3  -1  14   16.29    3.38
  -3  -1  14    9.37    1.83
  -3   1  14   12.21    1.99
  -3   1  14    7.19    2.99
  -1  -1  14   13.52    1.61
  -1  -1  14   11.35    3.05
  -1   1  14   19.50    3.55
   5  -1  14    6.63    1.92
   7  -1  14   11.90    2.76
   7   1  14    7.83    2.52
  -6  -2  14   16.60    2.89
  -6  -2  14   16.21    3.87
  -6   2  14   19.32    2.75
  -6   2  14   11.22    3.50
  -4  -2  14   40.44    3.47
  -4  -2  14   43.46    5.00
  -4   2  14   45.04    3.12
  -4   2  14   53.01    5.34
  -2  -2  14   44.59    4.69
  -2  -2  14   44.88    2.98
  -2   2  14   39.78    4.59
  -2   2  14   42.44    2.70
   0  -2  14   60.29    2.88
   4  -2  14   52.85    3.43
   6  -2  14   21.01    3.03
   6   2  14   18.21    2.88
  -7  -3  14    2.39    2.84
  -7  -3  14   -0.59    2.28
  -7   3  14    4.12    3.05
  -7   3  14    2.47    2.10
  -5  -3  14    4.51    2.95
  -5  -3  14    1.42    2.00
  -5   3  14    3.10    1.83
  -5   3  14    5.52    2.93
  -3  -3  14   11.58    2.11
  -3  -3  14   16.02    3.36
  -3   3  14   14.40    1.85
  -3   3  14   15.75    3.44
  -1  -3  14   17.44    3.38
  -1  -3  14   15.89    1.90
  -1   3  14    9.42    3.00
   1  -3  14   17.36    1.87
   3  -3  14   15.51    2.12
   5  -3  14    5.48    1.99
   7  -3  14    4.52    2.48
   7   3  14    4.77    2.34
  -6  -4  14   22.16    4.08
  -6  -4  14   13.34    2.84
  -6   4  14   25.77    4.31
  -6   4  14   21.40    3.05
  -4  -4  14   23.49    3.90
  -4  -4  14   16.22    2.46
  -4   4  14   17.80    2.31
  -4   4  14   19.62    3.74
  -2  -4  14   25.80    2.59
  -2  -4  14   25.39    3.79
  -2   4  14   21.39    3.59
  -2   4  14   25.92    2.12
   0  -4  14   31.62    2.59
   2  -4  14   27.72    2.50
   4  -4  14   16.94    2.44
   6  -4  14   20.02    3.21
   6   4  14   15.66    2.89
  -7  -5  14    1.97    2.41
  -7  -5  14    4.73    3.06
  -7   5  14    3.39    2.98
  -7   5  14    1.22    2.21
  -5  -5  14    4.31    2.81
  -5  -5  14    5.97    2.10
  -5   5  14    4.16    1.93
  -5   5  14    7.03    2.94
  -3  -5  14    9.37    2.02
  -3  -5  14    7.70    2.89
  -3   5  14    7.29    1.66
  -3   5  14    9.66    2.97
  -1  -5  14    2.44    1.48
  -1  -5  14    7.04    2.75
  -1   5  14    6.59    2.86
   1  -5  14    5.71    1.70
   3  -5  14    7.96    1.94
   5  -5  14    2.88    2.09
  -6  -6  14    0.54    2.76
  -6  -6  14    1.09    2.04
  -6   6  14    0.28    1.93
  -6   6  14    1.57    2.67
  -4  -6  14    8.23    3.01
  -4  -6  14    2.41    1.98
  -4   6  14    7.21    1.96
  -4   6  14   15.07    3.41
  -2  -6  14    0.93    1.55
  -2  -6  14   -0.94    2.32
  -2   6  14    2.29    1.33
  -2   6  14    4.17    2.68
   0  -6  14    9.18    1.96
   2  -6  14   -1.16    1.52
   4  -6  14   10.06    2.39
   6  -6  14    1.60    2.20
   6   6  14    0.07    2.04
  -5  -7  14   16.41    3.65
  -5  -7  14    8.50    2.42
  -5   7  14    8.76    2.36
  -5   7  14    8.52    3.04
  -3  -7  14    4.27    2.72
  -3  -7  14    8.80    2.21
  -3   7  14    6.19    2.80
  -3   7  14    8.79    2.00
  -1  -7  14    8.80    1.98
  -1   7  14   17.07    2.06
   1  -7  14   15.00    2.40
   3  -7  14    7.81    2.18
   5  -7  14   10.97    2.72
  -6  -8  14   27.24    4.57
  -6   8  14   34.59    4.81
  -4  -8  14   19.73    3.74
  -4   8  14   20.97    2.93
  -4   8  14   24.99    4.03
  -2  -8  14   54.82    5.26
  -2   8  14   49.75    3.47
  -2   8  14   57.42    5.46
   0  -8  14   29.75    3.14
   2  -8  14   48.01    3.94
   4  -8  14   25.05    3.29
  -5  -9  14    2.62    2.10
  -5   9  14    5.81    3.06
  -5   9  14    7.08    2.59
  -3  -9  14    2.55    2.02
  -3   9  14    5.78    2.70
  -3   9  14    7.52    2.17
  -1  -9  14   10.28    2.25
  -1   9  14   10.29    2.27
   1  -9  14    9.39    2.34
   3  -9  14    5.75    2.30
   5  -9  14    9.17    2.71
   5   9  14    4.28    2.67
  -4 -10  14    6.72    2.43
  -4  10  14    4.70    2.36
  -2 -10  14    8.87    2.31
  -2  10  14    7.34    2.28
   0 -10  14    5.01    2.17
   0  10  14    4.35    2.16
   2 -10  14   13.93    2.78
   2  10  14   11.51    2.65
   4 -10  14    6.28    2.55
   4  10  14    4.50    2.64
  -3 -11  14    3.57    2.26
  -3  11  14    2.46    2.28
  -1 -11  14    5.50    2.15
  -1  11  14    4.85    2.37
   1 -11  14    1.90    2.09
   1  11  14    1.87    2.26
   3 -11  14    5.78    2.44
   3  11  14    1.63    2.40
  -2 -12  14    1.75    2.12
  -2  12  14   -1.16    2.26
   0 -12  14    3.00    2.23
   0  12  14    1.79    2.36
   2 -12  14   -2.60    1.92
  -1 -13  14    0.44    2.16
   1 -13  14    1.42    2.24
  -6   0  15   -0.41    1.63
  -6   0  15   -0.95    2.86
  -6   0  15   -0.58    1.83
  -4   0  15    4.60    1.84
  -4   0  15    4.42    2.97
  -2   0  15    4.34    2.56
  -2   0  15    0.82    1.28
   6   0  15   -1.00    1.77
  -5  -1  15    2.00    2.91
  -5  -1  15    0.26    1.82
  -5   1  15    0.93    2.76
  -5   1  15    2.59    1.73
  -5   1  15    1.20    1.62
  -3  -1  15   14.67    3.53
  -3  -1  15   11.86    2.09
  -3   1  15   12.40    2.07
  -3   1  15   16.19    3.59
  -1  -1  15    4.81    2.71
  -1  -1  15    3.39    1.32
  -1   1  15    5.12    2.73
   5  -1  15   -0.90    1.69
  -6  -2  15    2.79    3.05
  -6  -2  15    8.39    2.64
  -6   2  15    3.86    1.98
  -6   2  15    9.50    3.60
  -4  -2  15   -0.70    2.62
  -4  -2  15   -0.06    1.66
  -4   2  15    0.01    1.44
  -4   2  15   -3.42    2.45
  -2  -2  15   11.48    3.13
  -2  -2  15    5.54    1.61
  -2   2  15   12.37    3.38
  -2   2  15    6.97    1.34
   0  -2  15    2.47    1.19
   4  -2  15    2.71    1.61
   6  -2  15    6.66    2.34
   6   2  15    6.07    2.08
  -5  -3  15   14.11    3.74
  -5  -3  15    9.87    2.39
  -5   3  15    5.46    1.93
  -5   3  15    1.56    2.87
  -3  -3  15    3.29    1.58
  -3  -3  15    0.42    2.50
  -3   3  15    2.75    2.78
  -3   3  15   -0.08    1.26
  -1  -3  15    4.18    2.70
  -1   3  15    1.68    2.61
   1  -3  15    0.13    1.22
   3  -3  15    1.03    1.45
   5  -3  15    2.80    1.89
  -6  -4  15    2.57    2.19
  -6  -4  15    6.63    3.23
  -6   4  15    1.57    1.99
  -6   4  15    5.48    3.29
  -4  -4  15    2.20    1.66
  -4  -4  15    4.39    2.77
  -4   4  15    1.63    1.59
  -4   4  15    1.66    2.62
  -2  -4  15    5.76    1.77
  -2  -4  15    8.17    2.96
  -2   4  15    4.74    2.85
  -2   4  15    3.39    1.32
   0  -4  15    1.82    1.39
   2  -4  15    3.81    1.52
   4  -4  15    1.17    1.60
   6  -4  15    2.53    2.22
  -5  -5  15   10.54    3.34
  -5  -5  15    9.15    2.39
  -5   5  15   13.38    2.49
  -5   5  15   14.31    3.60
  -3  -5  15    1.10    1.67
  -3  -5  15    0.39    2.45
  -3   5  15    1.66    2.78
  -3   5  15   -0.23    1.39
  -1  -5  15    6.27    1.73
   1  -5  15   10.10    1.92
   3  -5  15    2.26    1.64
   5  -5  15   14.41    2.67
  -6  -6  15    6.64    2.59
  -6  -6  15    2.17    3.01
  -6   6  15    8.74    3.48
  -4  -6  15    9.79    2.37
  -4  -6  15   23.39    4.03
  -4   6  15   11.46    2.30
  -4   6  15   18.01    3.77
  -2  -6  15    0.81    2.61
  -2  -6  15    2.08    1.74
  -2   6  15    0.29    2.81
  -2   6  15    3.71    1.53
   0  -6  15   18.54    2.49
   2  -6  15    3.88    1.76
   4  -6  15   16.04    2.59
  -5  -7  15   -0.39    1.81
  -5  -7  15    5.78    3.16
  -5   7  15    3.00    2.07
  -5   7  15    4.35    3.01
  -3  -7  15    1.55    2.66
  -3  -7  15    2.54    1.95
  -3   7  15    2.75    2.63
  -3   7  15    0.97    1.64
  -1  -7  15    3.77    1.78
   1  -7  15    1.76    1.74
   3  -7  15    2.64    1.88
   5  -7  15    2.68    2.18
  -4  -8  15   13.26    3.58
  -4   8  15   16.10    3.77
  -4   8  15   19.67    2.96
  -2  -8  15    4.04    1.95
  -2   8  15    2.36    1.75
   2  -8  15    2.63    1.91
   4  -8  15   19.15    2.96
  -3  -9  15    3.52    2.18
  -3   9  15   13.99    3.49
  -3   9  15    6.79    2.23
  -1  -9  15    3.36    1.98
  -1   9  15    3.34    1.96
   1  -9  15    4.79    2.09
   3  -9  15    6.82    2.43
  -2 -10  15    1.62    1.95
  -2  10  15   -0.93    1.88
   0 -10  15    3.06    2.15
   2 -10  15    2.13    2.04
  -1 -11  15    0.56    1.98
  -1  11  15    2.84    2.31
   1 -11  15    2.78    2.22
   1  11  15    3.30    2.28
  -4   0  16   42.17    3.59
  -4   0  16   39.04    5.07
  -2   0  16  124.99    4.70
  -5  -1  16    4.85    2.19
  -5  -1  16   10.15    3.56
  -5   1  16    3.04    3.12
  -5   1  16    0.42    1.73
  -3  -1  16    4.91    3.10
  -3  -1  16    5.89    1.86
  -3   1  16    2.42    2.97
  -3   1  16    4.33    1.70
  -4  -2  16    2.32    2.74
  -4  -2  16    1.67    1.88
  -4   2  16    3.11    1.57
  -4   2  16    7.00    3.11
  -2  -2  16   -1.89    2.68
  -2  -2  16    1.83    1.38
  -2   2  16    0.50    2.88
  -2   2  16    2.79    1.17
  -5  -3  16   21.24    4.26
  -5  -3  16   17.31    2.91
  -5   3  16   15.61    4.00
  -5   3  16   20.55    2.77
  -3  -3  16   30.38    4.60
  -3  -3  16   27.93    2.83
  -3   3  16   25.86    2.39
  -3   3  16   30.57    4.77
   1  -3  16   37.34    2.68
   3  -3  16   30.75    2.58
   5  -3  16   27.53    3.01
  -4  -4  16   -0.82    2.78
  -4  -4  16   -0.03    1.68
  -4   4  16    2.35    2.86
  -4   4  16    0.86    1.60
  -2  -4  16    0.47    1.50
  -2  -4  16   -1.60    2.57
  -2   4  16    1.25    2.96
   0  -4  16    3.79    1.48
   2  -4  16    1.20    1.46
   4  -4  16   -2.02    1.52
  -5  -5  16   -1.05    2.76
  -5  -5  16   -0.11    2.02
  -5   5  16    1.48    1.85
  -5   5  16   -2.29    2.47
  -3  -5  16   -1.76    2.47
  -3  -5  16    3.86    1.85
  -3   5  16    4.43    1.63
  -3   5  16    1.87    2.68
  -1  -5  16    5.88    1.78
   1  -5  16    3.44    1.62
   3  -5  16    4.31    1.82
  -4  -6  16   77.95    6.80
  -4   6  16   68.31    4.20
  -2  -6  16   42.44    5.18
  -2   6  16   47.52    5.61
   2  -6  16   49.03    3.60
   4  -6  16   78.74    4.62
  -3  -7  16    4.90    1.94
  -3  -7  16    3.43    3.06
  -3   7  16    7.69    3.38
  -3   7  16    6.80    2.00
  -1  -7  16    4.76    1.92
   1  -7  16    6.57    2.12
   3  -7  16    4.65    2.03
  -4  -8  16    6.34    3.16
  -4   8  16    2.04    2.99
  -2  -8  16   -1.85    1.62
  -2   8  16    4.41    1.89
   0  -8  16    0.08    1.80
   2  -8  16    4.83    2.06
   1  -9  16   17.29    2.93
  -4   0  17    2.88    2.95
  -4   0  17    1.03    1.75
  -2   0  17    0.20    2.68
  -3  -1  17    2.52    1.64
  -3  -1  17    2.90    3.07
  -3   1  17   -0.50    1.26
  -3   1  17    0.91    2.86
  -4  -2  17    2.97    1.97
  -4  -2  17    6.91    3.32
  -4   2  17    2.39    1.71
  -4   2  17    8.03    3.49
  -2  -2  17   -1.72    2.65
  -2  -2  17    1.33    1.40
  -2   2  17   -3.97    2.41
  -3  -3  17   -0.87    2.67
  -3  -3  17    1.29    1.66
  -3   3  17    3.51    1.53
  -3   3  17    0.88    2.93
  -1  -3  17   -1.16    1.26
  -4  -4  17   -0.63    2.96
  -4   4  17    2.71    2.99
  -2  -4  17   14.89    3.91
  -2   4  17   21.10    4.35
   0  -4  17   -0.02    1.30
   4  -4  17    3.75    1.70
  -3  -5  17    0.48    3.00
  -3  -5  17   -2.09    1.60
  -3   5  17    0.30    1.52
  -3   5  17    1.76    3.21
  -1  -5  17    1.40    1.59
   1  -5  17   -0.09    1.47
   3  -5  17    2.25    1.71
  -2  -6  17    6.31    2.04
   0  -6  17    6.28    1.84
   2  -6  17    5.66    1.94
  -3  -7  17   -0.12    3.00
  -3   7  17   -1.23    3.23
  -1  -7  17    1.26    1.82
   1  -7  17    1.17    1.78
  -2   0  18    1.53    3.10
  -3  -1  18    1.69    3.18
  -3   1  18    2.62    3.24
  -3   1  18    1.33    1.40
  -2  -2  18    4.58    1.70
  -1  -3  18    4.17    1.65
   0   0   0    0.00    0.00
;
_shelx_hkl_checksum              45225
_shelx_res_file
;
TITL mo_8_3_red_0m in C222(1)
CELL 0.71073 7.0532 11.864 11.7848 90 90 90
ZERR 8 0.0031 0.0051 0.006 0 0 0
LATT -7
SYMM -X,-Y,0.5+Z
SYMM -X,+Y,0.5-Z
SYMM +X,-Y,-Z
SFAC Cl Cu Rb
UNIT 24 8 8
L.S. 20
PLAN  20
TEMP 23
fmap 2
ACTA
TWIN -1 0 0 0 -1 0 0 0 -1 2
OMIT -4 56
REM <olex2.extras>
REM <HklSrc "%.\\mo_8_3_red_0m.hkl">
REM </olex2.extras>
WGHT    0.012000
BASF   0.49517
FVAR       0.06013
RB1   3    0.000000    0.321384    0.250000    10.50000    0.01050    0.00899 =
         0.01190    0.00000   -0.00025    0.00000
RB2   3    0.011723    0.000000    0.000000    10.50000    0.00936    0.00987 =
         0.01414   -0.00202    0.00000    0.00000
CU1   2    0.510639    0.156147    0.119873    11.00000    0.00863    0.00605 =
         0.00691   -0.00075   -0.00184    0.00096
CL1   1    0.500000    0.305980    0.250000    10.50000    0.01149    0.00666 =
         0.00853    0.00000   -0.00001    0.00000
CL2   1    0.214231    0.262787    0.513746    11.00000    0.01108    0.01093 =
         0.01046   -0.00161    0.00428    0.00218
CL3   1    0.255511    0.073190    0.277996    11.00000    0.00833    0.00896 =
         0.00942   -0.00109    0.00010   -0.00184
CL4   1    0.003392    0.500000    0.000000    10.50000    0.01390    0.01045 =
         0.01255   -0.00614    0.00000    0.00000
HKLF 4
REM  mo_8_3_red_0m in C222(1)
REM R1 =  0.0277 for    1042 Fo > 4sig(Fo)  and  0.0370 for all    1184 data
REM     49 parameters refined using      0 restraints
END
WGHT      0.0122      0.0000
REM Highest difference peak  0.603,  deepest hole -0.697,  1-sigma level  0.166
Q1    1   0.1110  0.5000  0.0000  10.50000  0.05    0.60
Q2    1  -0.0395 -0.0497 -0.0015  11.00000  0.05    0.58
Q3    1   0.0951  0.1325  0.5598  11.00000  0.05    0.54
Q4    1   0.1544  0.3754  0.1773  11.00000  0.05    0.54
Q5    1   0.1285  0.4412  0.3241  11.00000  0.05    0.54
Q6    1   0.2422  0.0126  0.1849  11.00000  0.05    0.54
Q7    1  -0.1635  0.0000  0.0000  10.50000  0.05    0.53
Q8    1   0.1832  0.0615 -0.0565  11.00000  0.05    0.53
Q9    1   0.1225  0.0000  0.0000  10.50000  0.05    0.53
Q10   1   0.3814 -0.0418  0.3188  11.00000  0.05    0.52
Q11   1   0.2426  0.1493  0.3596  11.00000  0.05    0.50
Q12   1   0.4006  0.0621  0.3152  11.00000  0.05    0.50
Q13   1   0.0764  0.1308 -0.0527  11.00000  0.05    0.49
Q14   1  -0.0910  0.5486 -0.0857  11.00000  0.05    0.48
Q15   1   0.4020  0.2466  0.1590  11.00000  0.05    0.47
Q16   1   0.1240  0.0976  0.0291  11.00000  0.05    0.47
Q17   1   0.0169  0.4691 -0.0585  11.00000  0.05    0.47
Q18   1   0.3699  0.1423  0.1401  11.00000  0.05    0.46
Q19   1  -0.1259 -0.0998 -0.0552  11.00000  0.05    0.46
Q20   1   0.1268  0.1098  0.2128  11.00000  0.05    0.45
;
_shelx_res_checksum              73046
_shelxl_version_number           2014/6
loop_
_space_group_symop_operation_xyz
'x, y, z'
'-x, -y, z+1/2'
'-x, y, -z+1/2'
'x, -y, -z'
'x+1/2, y+1/2, z'
'-x+1/2, -y+1/2, z+1/2'
'-x+1/2, y+1/2, -z+1/2'
'x+1/2, -y+1/2, -z'
loop_
_atom_site_type_symbol
_atom_site_label
_atom_site_fract_x
_atom_site_fract_y
_atom_site_fract_z
_atom_site_U_iso_or_equiv
_atom_site_adp_type
_atom_site_calc_flag
_atom_site_occupancy
Rb Rb1 0.0000 0.32138(6) 0.2500 0.0105(2) Uani d 1
Rb Rb2 0.01172(15) 0.0000 0.0000 0.0111(2) Uani d 1
Cu Cu1 0.51064(15) 0.15615(6) 0.11987(7) 0.00720(18) Uani d 1
Cl Cl1 0.5000 0.30598(14) 0.2500 0.0089(4) Uani d 1
Cl Cl2 0.2142(2) 0.26279(13) 0.51375(15) 0.0108(4) Uani d 1
Cl Cl3 0.2555(2) 0.07319(11) 0.27800(13) 0.0089(3) Uani d 1
Cl Cl4 0.0034(4) 0.5000 0.0000 0.0123(4) Uani d 1
loop_
_atom_site_aniso_label
_atom_site_aniso_U_11
_atom_site_aniso_U_22
_atom_site_aniso_U_33
_atom_site_aniso_U_12
_atom_site_aniso_U_13
_atom_site_aniso_U_23
Rb1 0.0105(4) 0.0090(4) 0.0119(5) 0.000 -0.0003(6) 0.000
Rb2 0.0094(4) 0.0099(4) 0.0141(5) 0.000 0.000 -0.0020(4)
Cu1 0.0086(4) 0.0061(3) 0.0069(4) 0.0010(4) -0.0018(4) -0.0008(3)
Cl1 0.0115(10) 0.0067(8) 0.0085(11) 0.000 0.0000(14) 0.000
Cl2 0.0111(8) 0.0109(8) 0.0105(9) 0.0022(7) 0.0043(7) -0.0016(7)
Cl3 0.0083(6) 0.0090(6) 0.0094(9) -0.0018(6) 0.0001(8) -0.0011(6)
Cl4 0.0139(9) 0.0105(9) 0.0125(12) 0.000 0.000 -0.0061(9)
loop_
_atom_type_symbol
_atom_type_description
_atom_type_scat_dispersion_real
_atom_type_scat_dispersion_imag
_atom_type_scat_source
Cl Cl 0.1484 0.1585 'International Tables Vol C Tables 4.2.6.8 and 6.1.1.4'
Cu Cu 0.3201 1.2651 'International Tables Vol C Tables 4.2.6.8 and 6.1.1.4'
Rb Rb -0.9393 2.9676 'International Tables Vol C Tables 4.2.6.8 and 6.1.1.4'
loop_
_geom_angle_atom_site_label_1
_geom_angle_atom_site_label_2
_geom_angle_atom_site_label_3
_geom_angle_site_symmetry_1
_geom_angle_site_symmetry_3
_geom_angle
Cl1 Rb1 Cl1 . 1_455 174.07(6)
Cl1 Rb1 Cl2 1_455 6_554 123.22(3)
Cl1 Rb1 Cl2 . 8_456 123.22(3)
Cl1 Rb1 Cl2 . 6_554 54.77(3)
Cl1 Rb1 Cl2 1_455 8_456 54.77(3)
Cl1 Rb1 Cl4 1_455 2_565 91.35(5)
Cl1 Rb1 Cl4 1_455 . 92.11(5)
Cl1 Rb1 Cl4 . . 91.35(5)
Cl1 Rb1 Cl4 . 2_565 92.11(5)
Cl2 Rb1 Cl1 . . 64.01(3)
Cl2 Rb1 Cl1 3 . 114.70(3)
Cl2 Rb1 Cl1 3 1_455 64.01(3)
Cl2 Rb1 Cl1 . 1_455 114.70(3)
Cl2 Rb1 Cl2 6_554 8_456 147.60(6)
Cl2 Rb1 Cl2 3 . 157.25(6)
Cl2 Rb1 Cl2 . 8_456 60.03(3)
Cl2 Rb1 Cl2 3 6_554 60.03(3)
Cl2 Rb1 Cl2 . 6_554 112.92(3)
Cl2 Rb1 Cl2 3 8_456 112.92(3)
Cl2 Rb1 Cl4 6_554 . 61.82(5)
Cl2 Rb1 Cl4 3 . 53.29(4)
Cl2 Rb1 Cl4 8_456 2_565 61.82(5)
Cl2 Rb1 Cl4 8_456 . 142.95(6)
Cl2 Rb1 Cl4 6_554 2_565 142.95(6)
Cl2 Rb1 Cl4 . . 145.90(5)
Cl2 Rb1 Cl4 3 2_565 145.90(5)
Cl2 Rb1 Cl4 . 2_565 53.29(4)
Cl3 Rb1 Cl1 7 1_455 122.79(4)
Cl3 Rb1 Cl1 5_455 . 122.79(4)
Cl3 Rb1 Cl1 3 . 118.36(4)
Cl3 Rb1 Cl1 . 1_455 118.36(4)
Cl3 Rb1 Cl1 7 . 63.10(4)
Cl3 Rb1 Cl1 3 1_455 55.74(4)
Cl3 Rb1 Cl1 . . 55.74(4)
Cl3 Rb1 Cl1 5_455 1_455 63.10(4)
Cl3 Rb1 Cl2 3 3 61.70(4)
Cl3 Rb1 Cl2 5_455 3 92.33(4)
Cl3 Rb1 Cl2 3 8_456 62.90(4)
Cl3 Rb1 Cl2 7 3 107.42(4)
Cl3 Rb1 Cl2 7 8_456 126.50(4)
Cl3 Rb1 Cl2 7 6_554 83.47(4)
Cl3 Rb1 Cl2 7 . 92.33(4)
Cl3 Rb1 Cl2 5_455 6_554 126.50(4)
Cl3 Rb1 Cl2 . 3 98.00(4)
Cl3 Rb1 Cl2 . 6_554 62.90(4)
Cl3 Rb1 Cl2 5_455 8_456 83.47(4)
Cl3 Rb1 Cl2 3 6_554 88.95(4)
Cl3 Rb1 Cl2 . . 61.70(4)
Cl3 Rb1 Cl2 3 . 98.00(4)
Cl3 Rb1 Cl2 5_455 . 107.42(4)
Cl3 Rb1 Cl2 . 8_456 88.95(4)
Cl3 Rb1 Cl3 7 3 168.98(5)
Cl3 Rb1 Cl3 7 . 118.85(3)
Cl3 Rb1 Cl3 7 5_455 60.89(6)
Cl3 Rb1 Cl3 5_455 3 118.85(3)
Cl3 Rb1 Cl3 . 3 63.78(6)
Cl3 Rb1 Cl3 5_455 . 168.98(5)
Cl3 Rb1 Cl4 5_455 2_565 54.27(4)
Cl3 Rb1 Cl4 7 . 54.27(4)
Cl3 Rb1 Cl4 . 2_565 114.96(4)
Cl3 Rb1 Cl4 3 . 114.96(4)
Cl3 Rb1 Cl4 3 2_565 124.72(4)
Cl3 Rb1 Cl4 5_455 . 64.99(4)
Cl3 Rb1 Cl4 . . 124.72(4)
Cl3 Rb1 Cl4 7 2_565 64.99(4)
Cl4 Rb1 Cl4 2_565 . 108.55(4)
Cl1 Rb2 Cl1 6_554 5_445 177.47(3)
Cl1 Rb2 Cl3 6_554 . 123.26(4)
Cl1 Rb2 Cl3 5_445 4 123.26(4)
Cl1 Rb2 Cl3 6_554 4 58.10(4)
Cl1 Rb2 Cl3 5_445 . 58.10(4)
Cl2 Rb2 Cl1 2_554 5_445 53.56(4)
Cl2 Rb2 Cl1 2_554 6_554 125.02(4)
Cl2 Rb2 Cl1 7_545 5_445 62.81(4)
Cl2 Rb2 Cl1 3 5_445 125.02(4)
Cl2 Rb2 Cl1 3 6_554 53.56(4)
Cl2 Rb2 Cl1 6_554 6_554 62.81(4)
Cl2 Rb2 Cl1 7_545 6_554 118.82(4)
Cl2 Rb2 Cl1 6_554 5_445 118.82(4)
Cl2 Rb2 Cl2 7_545 2_554 61.77(3)
Cl2 Rb2 Cl2 6_554 7_545 111.13(7)
Cl2 Rb2 Cl2 2_554 3 125.91(6)
Cl2 Rb2 Cl2 6_554 3 61.77(3)
Cl2 Rb2 Cl2 7_545 3 170.86(5)
Cl2 Rb2 Cl2 6_554 2_554 170.86(5)
Cl2 Rb2 Cl3 3 . 92.43(4)
Cl2 Rb2 Cl3 7_545 . 88.46(4)
Cl2 Rb2 Cl3 6_554 . 61.00(4)
Cl2 Rb2 Cl3 2_554 4 92.43(4)
Cl2 Rb2 Cl3 2_554 . 111.66(4)
Cl2 Rb2 Cl3 3 4 111.66(4)
Cl2 Rb2 Cl3 7_545 4 61.00(4)
Cl2 Rb2 Cl3 6_554 4 88.46(4)
Cl2 Rb2 Cl4 7_545 5_445 124.44(3)
Cl2 Rb2 Cl4 7_545 5_545 55.56(3)
Cl2 Rb2 Cl4 6_554 5_445 124.44(3)
Cl2 Rb2 Cl4 2_554 5_445 62.96(3)
Cl2 Rb2 Cl4 3 5_445 62.96(3)
Cl2 Rb2 Cl4 6_554 5_545 55.56(3)
Cl3 Rb2 Cl1 2_554 5_445 116.40(4)
Cl3 Rb2 Cl1 3 6_554 116.40(4)
Cl3 Rb2 Cl1 2_554 6_554 61.99(4)
Cl3 Rb2 Cl1 3 5_445 61.99(4)
Cl3 Rb2 Cl2 3 6_554 93.90(4)
Cl3 Rb2 Cl2 3 3 63.15(4)
Cl3 Rb2 Cl2 2_554 7_545 93.90(4)
Cl3 Rb2 Cl2 2_554 6_554 124.78(4)
Cl3 Rb2 Cl2 3 2_554 86.47(4)
Cl3 Rb2 Cl2 3 7_545 124.78(4)
Cl3 Rb2 Cl2 2_554 3 86.47(4)
Cl3 Rb2 Cl2 2_554 2_554 63.15(4)
Cl3 Rb2 Cl3 3 4 171.95(4)
Cl3 Rb2 Cl3 4 . 126.20(6)
Cl3 Rb2 Cl3 2_554 3 111.27(7)
Cl3 Rb2 Cl3 2_554 . 171.95(4)
Cl3 Rb2 Cl3 3 . 61.35(5)
Cl3 Rb2 Cl3 2_554 4 61.35(5)
Cl3 Rb2 Cl4 3 5_445 55.64(3)
Cl3 Rb2 Cl4 2_554 5_545 124.36(3)
Cl3 Rb2 Cl4 3 5_545 124.36(3)
Cl3 Rb2 Cl4 2_554 5_445 55.64(3)
Cl4 Rb2 Cl1 5_545 5_445 91.267(16)
Cl4 Rb2 Cl1 5_445 5_445 88.733(16)
Cl4 Rb2 Cl1 5_545 6_554 91.267(16)
Cl4 Rb2 Cl1 5_445 6_554 88.733(16)
Cl4 Rb2 Cl2 5_545 2_554 117.04(3)
Cl4 Rb2 Cl2 5_545 3 117.04(3)
Cl4 Rb2 Cl3 5_545 . 63.10(3)
Cl4 Rb2 Cl3 5_445 . 116.90(3)
Cl4 Rb2 Cl3 5_545 4 63.10(3)
Cl4 Rb2 Cl3 5_445 4 116.90(3)
Cl4 Rb2 Cl4 5_545 5_445 180.0
Rb1 Cu1 Rb1 1_655 5_545 108.31(3)
Rb2 Cu1 Rb1 1_655 5_545 74.14(2)
Rb2 Cu1 Rb1 . 5_545 72.33(2)
Rb2 Cu1 Rb1 1_655 1_655 69.19(4)
Rb2 Cu1 Rb1 . 1_655 177.68(3)
Rb2 Cu1 Rb2 . 1_655 113.10(3)
Cl1 Cu1 Rb1 . 5_545 118.05(5)
Cl1 Cu1 Rb1 . 1_655 56.08(3)
Cl1 Cu1 Rb2 . 1_655 125.15(4)
Cl1 Cu1 Rb2 . . 121.61(4)
Cl2 Cu1 Rb1 6_554 5_545 126.15(6)
Cl2 Cu1 Rb1 6_554 1_655 125.34(6)
Cl2 Cu1 Rb2 6_554 1_655 126.41(6)
Cl2 Cu1 Rb2 6_554 . 53.87(5)
Cl2 Cu1 Cl1 6_554 . 90.97(6)
Cl2 Cu1 Cl3 6_554 3_655 178.05(8)
Cl2 Cu1 Cl4 6_554 5_545 89.27(8)
Cl3 Cu1 Rb1 3_655 5_545 54.31(4)
Cl3 Cu1 Rb1 3_655 1_655 54.44(5)
Cl3 Cu1 Rb2 3_655 1_655 51.66(5)
Cl3 Cu1 Rb2 3_655 . 126.43(5)
Cl3 Cu1 Cl1 3_655 . 90.30(6)
Cl3 Cu1 Cl4 3_655 5_545 89.58(7)
Cl4 Cu1 Rb1 5_545 5_545 58.43(4)
Cl4 Cu1 Rb1 5_545 1_655 127.05(8)
Cl4 Cu1 Rb2 5_545 . 55.24(7)
Cl4 Cu1 Rb2 5_545 1_655 57.87(8)
Cl4 Cu1 Cl1 5_545 . 175.37(6)
Rb1 Cl1 Rb1 . 1_655 174.07(6)
Rb1 Cl1 Rb2 1_655 6 89.44(2)
Rb1 Cl1 Rb2 . 6 86.91(3)
Rb1 Cl1 Rb2 . 5 89.44(2)
Rb1 Cl1 Rb2 1_655 5 86.91(3)
Rb2 Cl1 Rb2 6 5 104.02(5)
Cu1 Cl1 Rb1 3_655 1_655 94.08(3)
Cu1 Cl1 Rb1 . . 94.08(3)
Cu1 Cl1 Rb1 3_655 . 90.42(3)
Cu1 Cl1 Rb1 . 1_655 90.42(3)
Cu1 Cl1 Rb2 . 5 87.18(4)
Cu1 Cl1 Rb2 . 6 168.77(5)
Cu1 Cl1 Rb2 3_655 5 168.77(5)
Cu1 Cl1 Rb2 3_655 6 87.18(4)
Cu1 Cl1 Cu1 3_655 . 81.64(7)
Rb1 Cl2 Rb1 . 6 169.18(5)
Rb2 Cl2 Rb1 6 . 92.19(5)
Rb2 Cl2 Rb1 2 6 92.51(5)
Rb2 Cl2 Rb1 2 . 86.55(4)
Rb2 Cl2 Rb1 6 6 87.03(4)
Rb2 Cl2 Rb2 6 2 170.86(6)
Cu1 Cl2 Rb1 6 . 95.98(6)
Cu1 Cl2 Rb1 6 6 94.84(7)
Cu1 Cl2 Rb2 6 2 94.93(6)
Cu1 Cl2 Rb2 6 6 94.21(6)
Rb1 Cl3 Rb1 5_545 . 168.98(5)
Rb1 Cl3 Rb2 . . 82.93(4)
Rb1 Cl3 Rb2 5_545 . 86.91(4)
Rb2 Cl3 Rb1 2 . 90.11(4)
Rb2 Cl3 Rb1 2 5_545 97.55(4)
Rb2 Cl3 Rb2 2 . 111.14(5)
Cu1 Cl3 Rb1 3_655 5_545 93.60(6)
Cu1 Cl3 Rb1 3_655 . 93.44(5)
Cu1 Cl3 Rb2 3_655 . 152.40(6)
Cu1 Cl3 Rb2 3_655 2 96.18(7)
Rb1 Cl4 Rb1 2_564 . 179.24(10)
Rb2 Cl4 Rb1 5_455 2_564 89.62(5)
Rb2 Cl4 Rb1 5_455 . 89.62(5)
Rb2 Cl4 Rb1 5 2_564 90.38(5)
Rb2 Cl4 Rb1 5 . 90.38(5)
Rb2 Cl4 Rb2 5_455 5 180.0
Cu1 Cl4 Rb1 8_455 2_564 88.41(4)
Cu1 Cl4 Rb1 5_455 . 88.41(4)
Cu1 Cl4 Rb1 5_455 2_564 91.61(4)
Cu1 Cl4 Rb1 8_455 . 91.61(4)
Cu1 Cl4 Rb2 8_455 5_455 91.26(7)
Cu1 Cl4 Rb2 5_455 5 88.74(7)
Cu1 Cl4 Rb2 5_455 5_455 91.26(7)
Cu1 Cl4 Rb2 8_455 5 88.74(7)
Cu1 Cl4 Cu1 8_455 5_455 177.49(14)
loop_
_geom_bond_atom_site_label_1
_geom_bond_atom_site_label_2
_geom_bond_site_symmetry_2
_geom_bond_distance
_geom_bond_publ_flag
Rb1 Cl1 . 3.5313(15) ?
Rb1 Cl1 1_455 3.5313(15) ?
Rb1 Cl2 8_456 3.579(2) ?
Rb1 Cl2 3 3.525(2) ?
Rb1 Cl2 6_554 3.579(2) ?
Rb1 Cl2 . 3.525(2) ?
Rb1 Cl3 5_455 3.4651(19) ?
Rb1 Cl3 7 3.4651(19) ?
Rb1 Cl3 . 3.4680(19) ?
Rb1 Cl3 3 3.4680(19) ?
Rb1 Cl4 . 3.6292(14) ?
Rb1 Cl4 2_565 3.6292(14) ?
Rb2 Cl1 5_445 3.7397(17) ?
Rb2 Cl1 6_554 3.7397(17) ?
Rb2 Cl2 6_554 3.418(2) ?
Rb2 Cl2 7_545 3.418(2) ?
Rb2 Cl2 3 3.505(2) ?
Rb2 Cl2 2_554 3.505(2) ?
Rb2 Cl3 3 3.339(2) ?
Rb2 Cl3 2_554 3.339(2) ?
Rb2 Cl3 4 3.800(2) ?
Rb2 Cl3 . 3.800(2) ?
Rb2 Cl4 5_545 3.468(4) ?
Rb2 Cl4 5_445 3.585(4) ?
Cu1 Rb1 1_655 4.2554(17) ?
Cu1 Rb1 5_545 4.2581(19) ?
Cu1 Rb2 1_655 4.2330(19) ?
Cu1 Cl1 . 2.3489(16) y
Cu1 Cl2 6_554 2.2372(19) y
Cu1 Cl3 3_655 2.2667(19) y
Cu1 Cl4 5_545 2.3303(11) y
Cl1 Rb1 1_655 3.5313(16) ?
Cl1 Rb2 6 3.7397(17) ?
Cl1 Rb2 5 3.7397(17) ?
Cl1 Cu1 3_655 2.3489(16) ?
Cl2 Rb1 6 3.579(2) ?
Cl2 Rb2 6 3.418(2) ?
Cl2 Rb2 2 3.505(2) ?
Cl2 Cu1 6 2.2372(19) ?
Cl3 Rb1 5_545 3.4651(19) ?
Cl3 Rb2 2 3.339(2) ?
Cl3 Cu1 3_655 2.2666(19) ?
Cl4 Rb1 2_564 3.6292(14) ?
Cl4 Rb2 5_455 3.468(4) ?
Cl4 Rb2 5 3.585(4) ?
Cl4 Cu1 8_455 2.3303(11) ?
Cl4 Cu1 5_455 2.3303(11) ?

_cod_database_fobs_code 2021106
