#------------------------------------------------------------------------------
#$Date: 2019-07-27 07:11:22 +0300 (Sat, 27 Jul 2019) $
#$Revision: 217281 $
#$URL: file:///home/coder/svn-repositories/cod/cif/2/02/17/2021731.cif $
#------------------------------------------------------------------------------
#
# This file is available in the Crystallography Open Database (COD),
# http://www.crystallography.net/. The original data for this entry
# were provided by IUCr Journals, http://journals.iucr.org/.
#
# The file may be used within the scientific community so long as
# proper attribution is given to the journal article from which the
# data were obtained.
#
data_2021731
loop_
_publ_author_name
'Sun, Yue'
'Gao, Zhongfei'
'Wang, Chunhua'
'Hou, Guige'
_publ_section_title
;
 Synthesis, crystal structures and anti-inflammatory activity of
 fluorine-substituted 1,4,5,6-tetrahydrobenzo[<i>h</i>]quinazolin-2-amine
 derivatives
;
_journal_coeditor_code           SK3735
_journal_issue                   8
_journal_name_full               'Acta Crystallographica Section C'
_journal_page_first
;
;
_journal_paper_doi               10.1107/S2053229619010118
_journal_volume                  75
_journal_year                    2019
_chemical_formula_iupac          'C18 H15 F O2'
_chemical_formula_moiety         'C18 H15 F O2'
_chemical_formula_sum            'C18 H15 F O2'
_chemical_formula_weight         282.30
_chemical_name_systematic
(<i>E</i>)-2-(2-Fluorobenzylidene)-7-methoxy-3,4-dihydronaphthalen-1(2<i>H</i>)-one
_space_group_crystal_system      triclinic
_space_group_IT_number           2
_space_group_name_Hall           '-P 1'
_space_group_name_H-M_alt        'P -1'
_symmetry_space_group_name_Hall  '-P 1'
_symmetry_space_group_name_H-M   'P -1'
_atom_sites_solution_hydrogens   geom
_audit_creation_method           SHELXL-2017/1
_cell_angle_alpha                107.140(8)
_cell_angle_beta                 104.982(7)
_cell_angle_gamma                94.285(7)
_cell_formula_units_Z            2
_cell_length_a                   7.3336(6)
_cell_length_b                   7.9301(7)
_cell_length_c                   12.5780(12)
_cell_measurement_reflns_used    3078
_cell_measurement_temperature    100.00(10)
_cell_measurement_theta_max      28.8090
_cell_measurement_theta_min      2.8980
_cell_volume                     666.16(11)
_computing_cell_refinement
;
CrysAlis PRO (Rigaku OD, 2015)
;
_computing_data_collection
;
CrysAlis PRO (Rigaku OD, 2015)
;
_computing_data_reduction
;
CrysAlis PRO (Rigaku OD, 2015)
;
_computing_molecular_graphics
;
SHELXTL (Sheldrick, 2008)
;
_computing_publication_material
;
SHELXTL (Sheldrick, 2008)
;
_computing_structure_refinement
;
SHELXL2017 (Sheldrick, 2015b)
;
_computing_structure_solution
;
SHELXS97 (Sheldrick, 2008)
;
_diffrn_ambient_temperature      100.00(10)
_diffrn_detector_area_resol_mean 5.2684
_diffrn_measured_fraction_theta_full 0.998
_diffrn_measured_fraction_theta_max 0.998
_diffrn_measurement_device_type
'Rigaku OD SuperNova Dual source diffractometer with an AtlasS2 detector'
_diffrn_measurement_method       'CCD plate'
_diffrn_radiation_type           MoK\a
_diffrn_radiation_wavelength     0.71073
_diffrn_reflns_av_R_equivalents  0.0274
_diffrn_reflns_av_unetI/netI     0.0414
_diffrn_reflns_limit_h_max       8
_diffrn_reflns_limit_h_min       -8
_diffrn_reflns_limit_k_max       9
_diffrn_reflns_limit_k_min       -9
_diffrn_reflns_limit_l_max       15
_diffrn_reflns_limit_l_min       -12
_diffrn_reflns_number            4966
_diffrn_reflns_theta_full        25.242
_diffrn_reflns_theta_max         25.497
_diffrn_reflns_theta_min         2.724
_diffrn_source                   'micro-focus sealed X-ray tube'
_exptl_absorpt_coefficient_mu    0.100
_exptl_absorpt_correction_T_max  1.00000
_exptl_absorpt_correction_T_min  0.43392
_exptl_absorpt_correction_type   multi-scan
_exptl_absorpt_process_details
;
(CrysAlis PRO; Rigaku OD, 2015)
;
_exptl_crystal_colour            colourless
_exptl_crystal_density_diffrn    1.407
_exptl_crystal_description       block
_exptl_crystal_F_000             296
_exptl_crystal_size_max          0.140
_exptl_crystal_size_mid          0.130
_exptl_crystal_size_min          0.110
_refine_diff_density_max         0.195
_refine_diff_density_min         -0.260
_refine_ls_extinction_method     none
_refine_ls_goodness_of_fit_ref   1.072
_refine_ls_hydrogen_treatment    constr
_refine_ls_matrix_type           full
_refine_ls_number_parameters     191
_refine_ls_number_reflns         2483
_refine_ls_number_restraints     0
_refine_ls_restrained_S_all      1.072
_refine_ls_R_factor_all          0.0498
_refine_ls_R_factor_gt           0.0423
_refine_ls_shift/su_max          0.000
_refine_ls_shift/su_mean         0.000
_refine_ls_structure_factor_coef Fsqd
_refine_ls_weighting_details
'w=1/[\s^2^(Fo^2^)+(0.0460P)^2^+0.1085P] where P=(Fo^2^+2Fc^2^)/3'
_refine_ls_weighting_scheme      calc
_refine_ls_wR_factor_gt          0.0987
_refine_ls_wR_factor_ref         0.1049
_reflns_number_gt                2111
_reflns_number_total             2483
_reflns_threshold_expression     'I > 2\s(I)'
_cod_data_source_file            sk3735sup1.cif
_cod_data_source_block           2-F
_cod_database_code               2021731
_shelx_space_group_comment
;
The symmetry employed for this shelxl refinement is uniquely defined
by the following loop, which should always be used as a source of
symmetry information in preference to the above space-group names.
They are only intended as comments.
;
_shelx_estimated_absorpt_t_min   0.986
_shelx_estimated_absorpt_t_max   0.989
_shelx_hkl_file
;
  0 -2  1  84.51  0.99
  0  2 -1  86.69  1.15
  0 -4  2  3.64  0.28
  0  4 -2  3.51  0.34
  0 -6  3  12.47  0.62
  0 -6  3  13.15  1.05
  0  6 -3  12.30  0.84
  0 -8  4  2.41  0.52
  0 -8  4  2.77  0.62
  0 -8  4  2.47  0.49
  0 -10  5  2.28  0.64
  0 -10  5  2.08  0.54
  0 -9  5  1.75  0.45
  0 -9  5  2.75  0.69
  0 -7  4  0.23  0.21
  0 -7  4  0.24  0.09
  0 -5  3  26.26  1.32
  0 -5  3  28.57  0.86
  0  3 -2  16.95  0.65
  0 -3  2  17.75  0.54
  0 -1  1  45.67  0.53
  0  1 -1  45.77  0.57
  0 -1  0  9.31  0.31
  0 -1  0  9.07  0.24
  0  3 -1  0.63  0.13
  0 -3  1  0.82  0.12
  0 -5  2  5.06  0.37
  0  7 -3  9.15  0.82
  0 -7  3  9.71  0.85
  0 -7  3  11.15  1.09
  0 -7  3  8.69  0.94
  0 -9  4  0.44  0.21
  0 -9  4  0.11  0.14
  0 -10  6  0.09  0.16
  0 -10  6  0.20  0.17
  0 -8  5  2.74  0.56
  0 -6  4  -0.07  0.08
  0 -6  4  0.06  0.05
  0 -4  3  28.33  1.20
  0 -4  3  28.32  0.75
  0  4 -3  27.23  0.98
  0 -2  2 551.25  2.60
  0 -2  2 556.98  3.72
  0 -2  0 155.40  1.79
  0 -2  0 159.74  1.43
  0 -2  0 159.27  1.49
  0 -4  1  46.66  1.23
  0  4 -1  47.08  1.28
  0 -4  1  48.25  1.05
  0 -6  2  3.66  0.54
  0 -6  2  4.26  0.37
  0 -6  2  3.77  0.46
  0  6 -2  3.74  0.47
  0 -8  3  0.40  0.23
  0  8 -3  0.53  0.22
  0 -10  4  2.46  0.63
  0 -10  4  2.72  0.64
  0 -9  6  0.03  0.03
  0 -7  5  0.51  0.13
  0 -7  5  0.34  0.17
  0 -5  4  55.22  1.14
  0 -5  4  53.27  1.83
  0 -3  3  26.41  0.66
  0 -3  3  24.94  0.96
  0 -1  2  10.11  0.37
  0  1  1  55.34  0.82
  0 -1 -1  53.83  0.67
  0 -3  0  1.53  0.18
  0 -3  0  1.31  0.21
  0  3  0  1.68  0.21
  0 -3  0  1.68  0.18
  0 -5  1  1.48  0.21
  0  5 -1  1.42  0.25
  0 -5  1  1.14  0.26
  0 -5  1  1.43  0.24
  0 -7  2  0.16  0.10
  0  7 -2  0.16  0.13
  0 -7  2  0.13  0.13
  0 -9  3  -0.11  0.20
  0 -9  3  0.20  0.17
  0 -10  7  1.31  0.42
  0 -8  6  0.17  0.17
  0 -6  5  14.75  1.04
  0 -6  5  14.89  0.63
  0 -4  4  2.10  0.31
  0 -4  4  2.03  0.20
  0 -2  3 436.04  3.30
  0  0 -2  27.84  0.36
  0  0  2  28.51  0.36
  0  0  2  28.27  0.40
  0  0 -2  28.42  0.43
  0 -2 -1  23.59  0.69
  0  2  1  22.96  0.59
  0 -2 -1  23.54  0.58
  0  2  1  23.32  0.74
  0 -4  0  60.83  1.23
  0 -4  0  59.72  1.29
  0 -4  0  58.29  1.60
  0 -6  1  6.30  0.55
  0 -6  1  6.90  0.49
  0 -6  1  6.81  0.71
  0  6 -1  6.53  0.62
  0  8 -2  0.38  0.16
  0 -8  2  0.86  0.32
  0 -10  3  1.35  0.47
  0 -9  7  1.48  0.41
  0 -7  6  8.68  0.50
  0 -7  6  8.49  0.84
  0 -5  5  16.44  0.98
  0 -5  5  16.63  0.59
  0 -3  4  8.93  0.37
  0  3 -4  9.46  0.69
  0 -3  4  8.06  0.54
  0 -1  3 379.27  2.25
  0 -1  3 370.96  1.58
  0 -1 -2  33.94  0.67
  0  1  2  33.47  0.69
  0 -1 -2  31.98  0.58
  0 -3 -1  37.60  1.07
  0 -3 -1  38.56  0.88
  0 -3 -1  40.47  0.88
  0  3  1  39.49  0.90
  0  5  0  4.51  0.46
  0 -5  0  3.69  0.35
  0 -5  0  3.66  0.45
  0 -5  0  4.30  0.36
  0  7 -1  1.56  0.35
  0 -7  1  1.09  0.24
  0 -7  1  1.57  0.36
  0  9 -2  1.16  0.37
  0 -9  2  1.95  0.49
  0 -9  2  1.56  0.47
  0 -10  8  -0.10  0.15
  0 -8  7  0.09  0.12
  0 -6  6  5.11  0.60
  0 -6  6  3.37  0.29
  0 -4  5  48.47  1.50
  0 -4  5  50.49  0.97
  0 -2  4 140.92  1.87
  0  0  3  62.93  0.66
  0  0 -3  61.41  0.67
  0  0  3  59.87  0.72
  0  2  2  12.32  0.57
  0  2  2  12.48  0.47
  0 -2 -2  12.21  0.48
  0 -2 -2  11.86  0.44
  0 -4 -1  10.71  0.66
  0 -4 -1  10.95  0.51
  0 -4 -1  10.86  0.54
  0  6  0  3.37  0.45
  0 -6  0  3.23  0.34
  0 -6  0  3.42  0.48
  0  8 -1  0.60  0.25
  0 -8  1  0.46  0.22
  0 -10  2  0.15  0.20
  0 -9  8  0.07  0.11
  0 -7  7  10.67  0.53
  0 -7  7  12.97  1.02
  0 -5  6  5.52  0.56
  0 -5  6  5.88  0.35
  0 -3  5  16.01  0.48
  0 -3  5  19.65  0.82
  0 -1  4  82.66  0.84
  0 -1  4  85.45  1.08
  0 -1 -3  14.30  0.42
  0  1  3  13.91  0.54
  0  1  3  13.20  0.42
  0 -1 -3  14.07  0.44
  0  1  3  12.52  0.46
  0  3  2  17.51  0.66
  0  3  2  16.34  0.79
  0 -3 -2  18.23  0.72
  0 -3 -2  17.57  0.63
  0  5  1  0.24  0.12
  0 -5 -1  0.23  0.10
  0 -5 -1  0.27  0.10
  0  7  0  0.55  0.23
  0 -7  0  0.43  0.13
  0 -7  0  0.89  0.27
  0  9 -1  0.18  0.09
  0 -9  1  0.11  0.08
  0 -8  8  2.45  0.46
  0 -6  7  0.23  0.08
  0 -6  7  0.21  0.05
  0 -4  6  65.62  1.71
  0 -4  6  65.73  1.05
  0 -2  5  6.71  0.41
  0  0 -4  40.47  0.74
  0  0  4  40.24  0.63
  0  0  4  38.57  0.64
  0  0 -4  38.49  0.65
  0 -2 -3  95.90  1.49
  0  2  3  94.38  1.66
  0 -2 -3  97.36  1.35
  0 -2 -3  98.66  1.32
  0  4  2  0.39  0.11
  0 -4 -2  0.34  0.11
  0  4  2  0.40  0.13
  0 -4 -2  0.47  0.12
  0  6  1  0.25  0.12
  0 -6 -1  0.17  0.11
  0 -8  0  9.06  0.89
  0  8  0  7.85  0.86
  0 10 -1  0.91  0.37
  0 -10  1  0.64  0.32
  0 -9  9  3.16  0.57
  0 -7  8  0.56  0.12
  0 -7  8  0.37  0.15
  0 -5  7  1.68  0.18
  0 -5  7  1.65  0.29
  0 -3  6 128.98  2.11
  0 -1  5  13.67  0.38
  0 -1  5  13.29  0.43
  0  1 -5  12.63  0.53
  0 -1 -4  0.02  0.02
  0  1  4  0.11  0.05
  0  1  4  0.00  0.04
  0 -1 -4  0.08  0.04
  0  1  4  0.07  0.04
  0  3  3  12.10  0.59
  0 -3 -3  12.83  0.57
  0  3  3  12.57  0.73
  0 -3 -3  12.74  0.57
  0 -5 -2  1.03  0.21
  0  5  2  1.02  0.23
  0  7  1  0.11  0.09
  0 -7 -1  0.08  0.08
  0  9  0  1.77  0.46
  0 -8  9  0.79  0.24
  0 -6  8  18.62  1.08
  0 -6  8  20.01  0.62
  0 -4  7  21.30  0.96
  0  4 -7  22.63  1.33
  0 -2  6  5.08  0.24
  0 -2  6  5.55  0.37
  0  0  5  0.05  0.03
  0  0 -5  0.06  0.03
  0  0  5  0.10  0.04
  0  0 -5  0.05  0.04
  0 -2 -4  80.39  1.31
  0  2  4  78.34  1.63
  0  4  3  22.22  0.88
  0  4  3  20.59  0.92
  0  4  3  21.59  1.08
  0 -4 -3  20.23  0.82
  0 -4 -3  22.44  0.85
  0  6  2  4.55  0.56
  0 -6 -2  4.34  0.48
  0 -8 -1  22.88  1.31
  0  8  1  22.16  1.46
  0 -9 10  2.59  0.49
  0 -7  9  4.12  0.55
  0 -5  8  21.44  0.61
  0 -5  8  20.43  1.02
  0 -3  7  93.55  1.77
  0 -3  7  95.14  1.14
  0 -1  6  5.04  0.27
  0  1 -6  4.53  0.35
  0 -1  6  4.91  0.25
  0  1  5  8.44  0.46
  0  1  5  8.58  0.49
  0 -1 -5  7.56  0.44
  0  1  5  8.37  0.41
  0 -1 -5  9.36  0.35
  0  3  4  3.78  0.35
  0  3  4  4.37  0.46
  0  3  4  4.41  0.39
  0 -3 -4  4.18  0.35
  0 -3 -4  4.54  0.37
  0 -5 -3  4.03  0.41
  0  5  3  3.67  0.44
  0  7  2  0.08  0.10
  0 -7 -2  0.25  0.11
  0  9  1  0.94  0.35
  0 -8 10  1.63  0.37
  0 -6  9  8.49  0.72
  0 -6  9  8.14  0.37
  0 -4  8  1.44  0.15
  0 -4  8  2.19  0.31
  0  4 -8  1.90  0.39
  0 -2  7  28.48  0.82
  0 -2  7  28.94  0.61
  0  0  6  93.91  1.32
  0  0 -6  97.75  1.36
  0  0 -6  95.53  1.43
  0 -2 -5  24.92  0.74
  0 -2 -5  25.53  0.84
  0  2  5  25.58  1.02
  0 -4 -4  5.45  0.40
  0  4  4  5.20  0.48
  0 -4 -4  4.43  0.43
  0  4  4  5.10  0.56
  0  4  4  5.07  0.46
  0 -6 -3  0.06  0.05
  0  6  3  0.02  0.06
  0  8  2  7.76  0.88
  0 -8 -2  7.29  0.69
  0 -9 11  0.14  0.10
  0 -7 10  7.48  0.72
  0 -5  9  19.35  0.99
  0 -5  9  18.49  0.53
  0 -3  8  21.36  0.52
  0  3 -8  19.99  1.10
  0 -3  8  20.95  0.83
  0  1 -7  0.02  0.03
  0 -1  7  0.09  0.04
  0 -1  7  0.03  0.05
  0 -1 -6  14.24  0.62
  0 -1 -6  13.90  0.46
  0  1  6  12.55  0.64
  0  1  6  12.97  0.55
  0  1  6  12.75  0.62
  0  3  5  20.14  0.86
  0  3  5  23.56  0.98
  0 -3 -5  23.18  0.89
  0  3  5  22.54  1.10
  0 -3 -5  21.35  0.77
  0  5  4  1.76  0.32
  0  5  4  1.90  0.29
  0 -5 -4  1.45  0.26
  0 -5 -4  1.64  0.25
  0  7  3  0.37  0.19
  0 -7 -3  0.40  0.14
  0  9  2  0.05  0.08
  0 -8 11  1.15  0.31
  0 -6 10  2.53  0.39
  0 -6 10  2.45  0.18
  0 -4  9  15.57  0.46
  0 -4  9  16.25  0.81
  0 -2  8  2.60  0.25
  0 -2  8  2.69  0.20
  0  2 -8  2.69  0.36
  0  0 -7  0.10  0.04
  0  0 -7  0.04  0.05
  0  0  7  0.16  0.08
  0  0  7  0.12  0.05
  0 -2 -6  30.11  0.99
  0  2  6  29.53  0.98
  0 -2 -6  32.27  0.78
  0  4  5  -0.01  0.04
  0 -4 -5  0.10  0.06
  0  4  5  0.02  0.06
  0  6  4  0.37  0.19
  0 -6 -4  0.08  0.07
  0  8  3  0.05  0.05
  0 -7 11  7.47  0.71
  0 -5 10  72.03  1.02
  0 -5 10  76.89  1.03
  0 -3  9  37.06  0.72
  0 -3  9  34.50  1.04
  0 -1  8  15.25  0.55
  0  1 -8  13.88  0.72
  0 -1  8  14.67  0.52
  0 -1 -7  39.90  1.11
  0 -1 -7  39.86  0.89
  0  1  7  40.98  1.24
  0  1  7  38.45  1.02
  0  3  6  0.03  0.06
  0 -3 -6  0.14  0.07
  0  5  5  1.77  0.32
  0  5  5  1.82  0.34
  0  5  5  2.39  0.45
  0  7  4  1.25  0.34
  0 -7 -4  0.83  0.20
  0 -8 12  2.89  0.48
  0 -6 11  15.56  0.93
  0 -4 10  69.12  0.92
  0 -4 10  65.46  1.61
  0 -2  9  9.81  0.40
  0 -2  9  8.93  0.47
  0  0  8  6.35  0.39
  0  0 -8  6.29  0.44
  0  0  8  6.45  0.43
  0  0 -8  6.56  0.46
  0  2  7  11.51  0.77
  0 -2 -7  11.01  0.47
  0 -2 -7  12.60  0.69
  0  2  7  10.96  0.63
  0  4  6  0.05  0.04
  0  4  6  0.09  0.12
  0  4  6  0.05  0.07
  0  6  5  1.00  0.28
  0  8  4  0.12  0.15
  0 -7 12  6.85  0.66
  0 -5 11  4.14  0.22
  0 -5 11  3.70  0.19
  0 -3 10  70.25  1.00
  0 -3 10  68.38  1.44
  0 -1  9  19.91  0.69
  0  1 -9  18.63  0.91
  0 -1  9  19.88  0.66
  0  1  8  5.70  0.49
  0  1  8  5.00  0.48
  0 -1 -8  5.82  0.45
  0 -1 -8  5.50  0.38
  0  1  8  5.80  0.43
  0  3  7  2.22  0.31
  0 -3 -7  1.94  0.22
  0  3  7  2.28  0.40
  0  5  6  0.16  0.10
  0  5  6  -0.03  0.10
  0  5  6  0.16  0.11
  0  7  5  1.66  0.43
  0 -6 12  17.32  0.98
  0 -4 11  7.27  0.29
  0 -4 11  6.35  0.50
  0 -2 10  1.61  0.18
  0 -2 10  1.61  0.20
  0  0 -9  0.21  0.09
  0  0  9  0.57  0.15
  0  0  9  0.35  0.11
  0  2  8  2.97  0.34
  0  2  8  2.88  0.42
  0  4  7  -0.06  0.08
  0  4  7  0.05  0.05
  0  6  6  6.26  0.73
  0 -7 13  15.58  0.98
  0 -5 12  1.76  0.28
  0 -3 11  1.32  0.20
  0 -3 11  1.43  0.15
  0 -1 10  0.88  0.16
  0 -1 10  1.15  0.17
  0  1  9  6.53  0.57
  0  1  9  7.32  0.52
  0  1  9  5.86  0.56
  0 -1 -9  7.28  0.55
  0  3  8  0.88  0.20
  0  3  8  1.31  0.32
  0  5  7  -0.03  0.11
  0  7  6  0.50  0.24
  0 -6 13  9.83  0.72
  0 -4 12  6.40  0.50
  0 -4 12  7.71  0.31
  0 -2 11  0.01  0.03
  0 -2 11  0.05  0.04
  0  0 -10  0.10  0.07
  0  0 10  0.32  0.11
  0  0 10  0.24  0.11
  0  2  9  1.20  0.23
  0  2  9  1.43  0.32
  0  4  8  0.53  0.18
  0  4  8  0.66  0.23
  0  4  8  0.85  0.27
  0  6  7  2.89  0.52
  0 -5 13  1.43  0.26
  0 -3 12  0.19  0.07
  0 -3 12  0.14  0.07
  0 -1 11  6.83  0.46
  0 -1 11  5.98  0.48
  0  1 10  9.47  0.63
  0  1 10  8.63  0.73
  0  3  9  0.02  0.05
  0  5  8  0.06  0.06
  0 -6 14  0.51  0.16
  0 -4 13  5.45  0.46
  0 -2 12  0.11  0.09
  0 -2 12  0.27  0.09
  0  0 -11  0.15  0.09
  0  0 11  0.32  0.11
  0  0 11  0.34  0.15
  0  2 10  2.62  0.36
  0  4  9  0.09  0.08
  0  4  9  0.27  0.17
  0  6  8  0.69  0.27
  0 -5 14  3.15  0.38
  0 -3 13  5.72  0.46
  0 -1 12  0.10  0.09
  0 -1 12  0.23  0.10
  0  1 11  0.01  0.07
  0  1 11  0.28  0.10
  0  3 10  1.33  0.30
  0  5  9  0.64  0.23
  0 -4 14  0.10  0.08
  0 -2 13  0.52  0.16
  0 -2 13  0.94  0.17
  0  0 12  0.13  0.07
  0  0 12  0.14  0.14
  0  2 11  -0.02  0.09
  0  4 10  4.48  0.65
  0  4 10  4.29  0.59
  0 -3 14  5.74  0.50
  0 -1 13  0.85  0.23
  0 -1 13  0.86  0.18
  0  1 12  0.03  0.11
  0  1 12  0.11  0.07
  0  3 11  5.49  0.64
  0  5 10  6.28  0.79
  0 -4 15  0.37  0.14
  0 -2 14  0.44  0.18
  0  0 13  1.13  0.30
  0  0 13  1.03  0.22
  0  2 12  1.68  0.33
  0  4 11  2.52  0.48
  0 -3 15  4.52  0.50
  0 -1 14  5.01  0.60
  0  1 13  0.12  0.04
  0  3 12  4.18  0.59
  0 -2 15  0.88  0.27
  0  0 14  0.98  0.23
  0  0 14  0.60  0.24
  0  2 13  0.22  0.10
  0  4 12  1.23  0.35
  0 -1 15  6.34  0.74
  0  1 14  0.35  0.16
  0  3 13  0.30  0.19
  0  0 15  0.40  0.19
  0  2 14  0.59  0.21
 -1  3 14  0.98  0.31
 -1 -1 16  3.89  0.57
 -1  2 14  0.62  0.23
 -1  0 15  0.48  0.23
 -1 -2 16  2.18  0.39
 -1  3 13  0.51  0.26
 -1  3 13  0.31  0.13
 -1  1 14  -0.15  0.15
 -1  1 14  0.14  0.14
 -1 -1 15  3.26  0.49
 -1 -3 16  1.59  0.29
 -1  4 12  0.08  0.13
 -1  2 13  5.24  0.66
 -1  0 14  0.66  0.22
 -1  0 14  0.17  0.12
 -1 -2 15  1.08  0.25
 -1  5 11  0.44  0.25
 -1  3 12  1.85  0.46
 -1  3 12  1.63  0.38
 -1  1 13  1.55  0.32
 -1  1 13  0.76  0.22
 -1 -1 14  0.14  0.13
 -1 -3 15  0.44  0.14
 -1  4 11  1.05  0.35
 -1  4 11  0.90  0.30
 -1  2 12  3.60  0.51
 -1  0 13  0.17  0.12
 -1  0 13  0.09  0.11
 -1 -2 14  0.96  0.22
 -1 -4 15  3.73  0.40
 -1  5 10  -0.03  0.09
 -1  3 11  2.93  0.49
 -1  3 11  2.54  0.51
 -1  1 12  1.12  0.25
 -1  1 12  0.95  0.25
 -1 -1 13  3.65  0.41
 -1 -1 13  4.55  0.44
 -1 -3 14  0.96  0.19
 -1 -5 15  0.96  0.21
 -1  6  9  0.16  0.18
 -1  4 10  0.31  0.21
 -1  4 10  0.45  0.21
 -1  2 11  0.32  0.14
 -1  0 12  0.45  0.14
  1  0 -12  0.21  0.10
 -1  0 12  0.36  0.14
 -1 -2 13  2.06  0.27
 -1 -2 13  2.53  0.29
 -1 -4 14  11.21  0.67
 -1  5  9  0.94  0.30
 -1  5  9  1.07  0.35
 -1  3 10  0.48  0.22
 -1  3 10  0.52  0.19
 -1  1 11  1.67  0.32
 -1  1 11  1.49  0.27
 -1 -1 12  0.55  0.13
 -1 -1 12  0.44  0.13
 -1 -3 13  1.26  0.23
 -1 -5 14  3.54  0.41
 -1  6  8  -0.03  0.05
 -1  4  9  1.90  0.43
 -1  4  9  1.73  0.38
 -1  2 10  0.88  0.22
 -1  0 11  0.15  0.07
 -1  0 11  0.07  0.09
  1  0 -11  -0.01  0.05
 -1 -2 12  4.28  0.36
 -1 -2 12  4.56  0.34
 -1 -4 13  0.35  0.12
 -1 -6 14  -0.03  0.10
 -1  7  7  0.17  0.17
 -1  5  8  0.48  0.21
 -1  5  8  0.61  0.24
 -1  3  9  10.01  0.91
 -1  3  9  10.70  0.82
 -1  1 10  0.47  0.14
 -1  1 10  0.30  0.11
  1 -1 -10  0.32  0.12
 -1 -1 11  25.53  0.87
 -1 -1 11  24.51  0.83
 -1 -3 12  0.99  0.20
 -1 -3 12  0.85  0.10
 -1 -5 13  0.77  0.19
 -1  6  7  0.08  0.05
 -1  4  8  14.40  1.02
 -1  4  8  14.50  1.11
 -1  2  9  1.04  0.22
  1 -2 -9  0.94  0.17
 -1  0 10  0.10  0.06
  1  0 -10  0.00  0.02
 -1 -2 11  60.21  1.11
 -1 -2 11  61.81  1.29
 -1 -4 12  14.38  0.78
 -1 -6 13  0.14  0.12
 -1  7  6  1.41  0.38
 -1  5  7  4.86  0.66
 -1  5  7  4.78  0.62
 -1  3  8  9.83  0.92
 -1  3  8  8.91  0.70
  1 -3 -8  9.23  0.45
 -1  3  8  8.81  0.81
 -1  1  9  3.99  0.41
  1 -1 -9  3.69  0.35
  1 -1 -9  3.56  0.35
 -1  1  9  3.51  0.36
 -1 -1 10  53.06  1.16
 -1 -1 10  51.75  1.09
 -1 -3 11  66.33  1.51
 -1 -3 11  52.62  0.64
 -1 -5 12  0.23  0.15
 -1 -7 13  0.51  0.21
 -1  8  5  0.48  0.26
 -1  6  6  9.70  0.89
 -1  6  6  8.21  0.86
 -1  4  7  0.26  0.15
 -1  4  7  0.37  0.16
 -1  4  7  0.25  0.17
  1 -4 -7  0.26  0.08
  1 -2 -8  0.34  0.12
 -1  2  8  0.36  0.12
 -1  2  8  0.28  0.13
  1 -2 -8  0.31  0.09
 -1  0  9  15.15  0.82
  1  0 -9  15.23  0.65
  1  0 -9  16.07  0.80
 -1  0  9  15.68  0.65
 -1  0  9  15.76  0.67
 -1 -2 10  39.57  0.80
 -1 -2 10  41.21  1.04
 -1 -4 11  13.68  0.79
 -1 -6 12  9.45  0.77
 -1  7  5  2.66  0.52
  1 -7 -5  2.43  0.38
  1 -5 -6  0.09  0.07
 -1  5  6  0.02  0.09
 -1  5  6  0.03  0.08
 -1  3  7  -0.01  0.03
 -1  3  7  0.10  0.11
 -1  3  7  0.09  0.10
  1 -3 -7  0.05  0.05
 -1  1  8  3.13  0.32
 -1  1  8  3.04  0.32
 -1  1  8  2.87  0.38
  1 -1 -8  2.98  0.28
  1 -1 -8  3.00  0.30
  1  1 -9  76.75  1.33
  1  1 -9  77.24  1.91
 -1 -3 10  8.38  0.56
 -1 -5 11  0.31  0.12
 -1 -7 12  0.65  0.22
  1 -8 -4  1.41  0.31
 -1  8  4  1.89  0.48
 -1  6  5  3.08  0.51
  1 -6 -5  2.63  0.38
 -1  4  6  8.80  0.72
  1 -4 -6  8.32  0.46
 -1  4  6  9.18  0.89
  1 -2 -7  5.58  0.32
 -1  2  7  6.03  0.61
  1 -2 -7  5.61  0.42
 -1  2  7  5.09  0.45
 -1  0  8  1.23  0.16
 -1  0  8  1.32  0.18
  1  0 -8  1.32  0.19
  1  0 -8  1.23  0.20
  1  2 -9  2.28  0.37
 -1 -2  9  2.01  0.23
 -1 -2  9  2.53  0.18
 -1 -4 10  0.14  0.11
 -1 -6 11  8.58  0.75
 -1 -8 12  0.22  0.15
  1 -7 -4  0.04  0.05
 -1  7  4  0.01  0.07
 -1  5  5  4.62  0.66
  1 -5 -5  4.85  0.47
  1 -5 -5  4.34  0.40
 -1  5  5  4.80  0.58
 -1  3  6  0.40  0.13
 -1  3  6  0.57  0.20
  1 -3 -6  0.36  0.12
  1 -3 -6  0.32  0.08
 -1  1  7  12.80  0.61
  1 -1 -7  13.30  0.57
 -1  1  7  12.81  0.74
 -1  1  7  13.20  0.61
  1 -1 -7  12.55  0.51
 -1 -1  8  36.56  0.83
 -1 -1  8  34.19  0.75
  1  3 -9  1.78  0.37
 -1 -3  9  1.81  0.26
 -1 -5 10  4.22  0.49
 -1 -7 11  1.29  0.31
  1 -8 -3  3.50  0.53
 -1  8  3  3.46  0.62
  1 -6 -4  0.52  0.18
  1 -6 -4  0.14  0.06
 -1  6  4  0.87  0.26
 -1  4  5  31.08  1.58
 -1  4  5  29.90  1.29
  1 -4 -5  29.92  1.10
  1 -4 -5  29.19  0.91
  1 -2 -6  36.41  0.71
  1 -2 -6  35.81  0.97
  1  0 -7  0.94  0.16
 -1  0  7  0.68  0.11
 -1  0  7  0.72  0.12
  1  0 -7  0.84  0.13
  1  2 -8  0.14  0.10
 -1 -2  8  0.29  0.05
 -1 -2  8  0.24  0.10
 -1 -4  9  0.06  0.07
 -1 -6 10  0.04  0.04
 -1 -8 11  0.34  0.15
 -1  9  2  0.03  0.07
 -1  7  3  3.30  0.56
  1 -7 -3  3.76  0.53
 -1  5  4  2.02  0.36
 -1  5  4  2.02  0.41
 -1  5  4  1.61  0.32
  1 -5 -4  1.41  0.23
  1 -5 -4  1.92  0.32
  1 -3 -5  0.09  0.06
  1 -3 -5  0.01  0.06
 -1  3  5  0.02  0.06
  1 -3 -5  0.05  0.05
 -1  3  5  0.03  0.07
 -1  1  6  15.46  0.63
  1 -1 -6  14.94  0.48
 -1  1  6  15.84  0.59
  1 -1 -6  16.57  0.58
 -1 -1  7  0.86  0.11
  1  1 -7  0.69  0.11
  1  1 -7  0.90  0.18
 -1 -1  7  0.82  0.12
 -1 -3  8  0.06  0.07
  1  3 -8  0.05  0.08
 -1 -5  9  10.44  0.78
 -1 -7 10  1.84  0.38
  1 -8 -2  0.09  0.12
 -1  8  2  0.30  0.21
  1 -6 -3  4.07  0.51
 -1  6  3  3.99  0.55
  1 -4 -4  0.61  0.15
 -1  4  4  0.37  0.15
  1 -4 -4  0.35  0.10
  1 -4 -4  0.31  0.13
 -1  4  4  0.48  0.16
  1 -2 -5  15.76  0.61
 -1  2  5  14.85  0.69
 -1  2  5  15.61  0.86
  1 -2 -5  17.17  0.46
 -1  0  6  1.93  0.15
  1  0 -6  1.59  0.16
  1  0 -6  1.55  0.18
 -1  0  6  1.69  0.17
  1  2 -7  4.02  0.47
 -1 -2  7  3.80  0.15
 -1 -2  7  3.75  0.34
  1  4 -8  38.60  1.85
 -1 -4  8  35.15  1.32
 -1 -6  9  0.55  0.11
 -1 -6  9  0.32  0.06
 -1 -8 10  -0.01  0.08
 -1  9  1  0.55  0.27
  1 -9 -1  0.77  0.29
  1 -7 -2  2.53  0.45
 -1  7  2  2.27  0.47
  1 -5 -3  0.31  0.15
 -1  5  3  0.31  0.15
 -1  5  3  0.34  0.17
 -1  5  3  0.20  0.11
 -1  3  4  1.78  0.27
 -1  3  4  1.93  0.33
  1 -3 -4  1.85  0.26
  1 -3 -4  1.95  0.24
  1 -3 -4  1.94  0.21
 -1  3  4  1.78  0.28
  1 -1 -5  43.29  0.89
 -1  1  5  40.87  0.97
 -1  1  5  43.13  0.89
  1 -1 -5  42.58  0.69
 -1 -1  6  1.20  0.15
  1  1 -6  0.83  0.10
 -1 -1  6  0.99  0.10
  1  1 -6  1.01  0.18
  1  3 -7  6.15  0.65
 -1 -3  7  5.39  0.46
 -1 -5  8  14.41  0.35
 -1 -5  8  21.05  1.14
 -1 -7  9  -0.03  0.13
 -1 -9 10  1.99  0.49
  1 -10  0  0.01  0.04
 -1  8  1  0.07  0.09
  1 -8 -1  0.14  0.13
  1 -6 -2  1.71  0.35
 -1  6  2  1.63  0.35
 -1  4  3  6.12  0.55
  1 -4 -3  6.42  0.47
  1 -4 -3  6.00  0.54
 -1  4  3  5.96  0.54
  1 -2 -4  4.70  0.33
 -1  2  4  4.50  0.37
  1 -2 -4  4.40  0.36
  1 -2 -4  4.80  0.25
 -1  2  4  5.04  0.46
 -1  2  4  5.08  0.44
 -1  0  5  56.05  0.74
  1  0 -5  57.57  0.80
 -1  0  5  54.86  0.90
  1  0 -5  54.19  0.99
  1  2 -6  9.17  0.67
 -1 -2  6  8.79  0.52
 -1 -4  7  1.95  0.09
 -1 -4  7  2.89  0.39
 -1 -6  8  1.64  0.36
 -1 -6  8  1.57  0.15
 -1 -8  9  0.03  0.08
  1 -9  0  2.42  0.54
 -1  7  1  0.41  0.19
  1 -7 -1  0.30  0.15
  1 -7 -1  0.41  0.16
 -1  5  2  15.84  0.96
  1 -5 -2  15.03  0.95
  1 -3 -3  37.96  1.22
 -1  3  3  36.67  1.39
  1 -3 -3  39.98  1.06
 -1  3  3  36.53  1.24
  1 -1 -4  65.89  0.72
 -1  1  4  65.76  1.42
 -1  1  4  63.37  1.15
 -1  1  4  64.12  0.95
  1 -1 -4  67.19  1.04
  1  1 -5  2.35  0.27
 -1 -1  5  2.81  0.24
  1  1 -5  2.00  0.12
 -1 -1  5  2.48  0.14
 -1 -3  6  0.09  0.03
 -1 -5  7  0.42  0.07
 -1 -5  7  0.38  0.18
 -1 -7  8  1.06  0.32
 -1 -7  8  0.75  0.14
 -1 -9  9  6.52  0.90
  1 -10  1  -0.11  0.14
  1 -8  0  1.66  0.41
 -1  8  0  1.49  0.40
  1 -6 -1  4.76  0.50
 -1  6  1  4.72  0.58
  1 -6 -1  4.01  0.54
 -1  4  2  1.43  0.30
  1 -4 -2  1.62  0.26
 -1  4  2  1.48  0.27
  1 -4 -2  1.82  0.31
  1 -4 -2  1.79  0.25
  1 -2 -3  1.03  0.15
 -1  2  3  0.85  0.17
 -1  2  3  0.93  0.17
  1 -2 -3  0.92  0.12
  1 -2 -3  0.88  0.17
 -1  2  3  0.94  0.20
  1  0 -4  4.40  0.20
  1  0 -4  4.41  0.26
 -1  0  4  4.05  0.19
 -1  0  4  4.45  0.25
  1  2 -5  25.86  1.09
 -1 -2  5  23.21  0.85
 -1 -4  6  22.69  0.41
 -1 -4  6  21.77  1.08
 -1 -6  7  0.75  0.12
 -1 -6  7  0.99  0.30
 -1 -8  8  0.65  0.28
  1 -9  1  1.02  0.38
  1 -9  1  0.80  0.32
  1 -7  0  0.08  0.06
  1 -7  0  0.10  0.08
 -1  7  0  0.17  0.10
 -1  5  1  10.32  0.77
  1 -5 -1  10.88  0.72
  1 -5 -1  9.68  0.79
  1 -5 -1  11.22  0.66
  1 -3 -2  43.29  1.24
  1 -3 -2  40.84  1.28
  1 -3 -2  42.21  1.06
 -1  3  2  40.08  1.40
 -1  3  2  40.68  1.25
  1 -1 -3  98.90  1.22
  1 -1 -3  96.96  1.40
 -1  1  3  97.28  1.38
 -1  1  3  96.84  1.63
  1 -1 -3  94.27  0.72
 -1  1  3  94.80  1.05
 -1 -1  4  13.12  0.51
  1  1 -4  14.43  0.64
 -1 -3  5 128.01  0.86
 -1 -3  5 148.81  2.52
 -1 -5  6  0.01  0.02
 -1 -5  6  0.04  0.01
 -1 -7  7  0.62  0.13
 -1 -7  7  0.47  0.20
 -1 -9  8  1.30  0.43
  1 -10  2  0.60  0.30
  1 -10  2  0.12  0.15
  1 -8  1  0.18  0.17
  1 -8  1  0.20  0.12
  1 -6  0  1.38  0.28
 -1  6  0  1.35  0.30
  1 -6  0  1.30  0.34
  1 -4 -1  31.87  1.00
  1 -4 -1  30.53  1.26
  1 -4 -1  30.10  1.12
  1 -2 -2  0.06  0.05
  1 -2 -2  0.02  0.00
 -1  2  2  0.07  0.05
  1 -2 -2  0.01  0.03
 -1  2  2  0.05  0.02
  1  0 -3  1.19  0.10
 -1  0  3  1.16  0.12
 -1  0  3  1.11  0.10
  1  0 -3  0.96  0.11
 -1 -2  4  9.72  0.57
 -1 -4  5  13.69  0.37
 -1 -4  5  14.16  0.91
 -1 -6  6  8.53  0.41
 -1 -6  6  8.68  0.87
 -1 -8  7  2.24  0.51
  1 -9  2  2.67  0.55
  1 -9  2  2.77  0.66
 -1  7 -1  1.19  0.31
  1 -7  1  0.79  0.26
  1 -7  1  1.22  0.30
 -1  5  0  11.60  0.80
  1 -5  0  12.60  0.67
  1 -5  0  11.38  0.78
  1 -5  0  11.38  0.89
  1 -3 -1  12.32  0.65
 -1  3  1  12.60  0.67
  1 -3 -1  14.27  0.63
  1 -3 -1  13.59  0.75
 -1  3  1  12.95  0.77
 -1  1  2  9.03  0.47
  1 -1 -2  9.10  0.45
 -1  1  2  9.37  0.47
  1 -1 -2  9.01  0.18
 -1  1  2  8.74  0.41
  1 -1 -2  9.22  0.39
  1  1 -3 101.75  1.61
 -1 -1  3  98.48  1.42
 -1 -3  4  2.88  0.36
  1  3 -4  3.30  0.21
 -1 -3  4  3.30  0.16
  1  5 -5  0.74  0.17
 -1 -5  5  0.58  0.10
 -1 -5  5  0.81  0.25
 -1 -7  6  0.59  0.14
 -1 -7  6  0.48  0.24
 -1 -9  7  0.00  0.08
  1 -10  3  0.04  0.14
  1 -10  3  0.32  0.21
  1 -8  2  0.00  0.05
  1 -8  2  0.06  0.11
  1 -8  2  0.15  0.11
  1 -6  1  2.99  0.45
 -1  6 -1  3.32  0.48
  1 -6  1  2.53  0.46
  1 -6  1  3.13  0.35
  1 -4  0  30.29  0.99
  1 -4  0  26.46  1.22
  1 -4  0  27.79  1.11
  1 -2 -1 1000.00  5.18
 -1  2  1 993.80  5.79
 -1  2  1 996.00  5.40
  1 -2 -1 992.70  5.55
  1  0 -2 202.19  1.47
 -1  0  2 202.38  1.30
  1  0 -2 199.77  1.42
 -1 -2  3  47.01  0.53
  1  2 -3  47.21  0.52
  1  4 -4  11.77  0.54
 -1 -4  4  11.34  0.39
 -1 -4  4  10.74  0.81
 -1 -6  5  0.07  0.04
 -1 -6  5  -0.35  0.18
 -1 -8  6  3.15  0.63
 -1 -10  7  0.53  0.29
  1 -9  3  3.36  0.61
  1 -9  3  3.36  0.76
  1 -7  2  1.71  0.39
  1 -7  2  1.67  0.37
  1 -7  2  1.73  0.44
  1 -5  1  0.70  0.21
  1 -5  1  0.93  0.18
 -1  5 -1  0.96  0.24
  1 -5  1  0.71  0.20
  1 -3  0  17.23  0.78
  1 -3  0  16.32  0.85
  1 -3  0  19.62  0.74
 -1  3  0  19.44  0.83
  1 -1 -1  69.01  1.22
  1 -1 -1  69.82  1.07
 -1  1  1  71.40  1.26
  1 -1 -1  67.32  1.18
 -1 -3  3  16.51  0.41
  1  3 -3  17.23  0.50
  1  5 -4  4.50  0.41
 -1 -5  4  4.58  0.30
 -1 -7  5  0.25  0.09
 -1 -7  5  0.28  0.18
  1  7 -5  0.17  0.11
 -1 -9  6  0.32  0.16
  1 -10  4  1.01  0.43
  1 -10  4  1.13  0.39
  1 -8  3  0.91  0.37
  1 -8  3  1.44  0.40
  1 -8  3  0.96  0.31
  1 -6  2  10.84  0.87
  1 -6  2  10.21  0.88
  1 -6  2  10.92  1.00
  1 -6  2  10.77  0.64
  1 -4  1 234.24  3.68
  1 -4  1 230.57  2.71
  1 -4  1 224.66  3.27
 -1  4 -1 234.13  3.23
  1 -2  0 812.55  4.27
  1 -2  0 808.35  4.79
  1  0 -1 134.69  1.39
  1  0 -1 133.05  1.21
 -1  0  1 132.06  1.27
 -1 -2  2 143.82  1.11
  1  2 -2 141.38  1.06
 -1 -4  3  2.80  0.21
  1  4 -3  3.42  0.29
 -1 -6  4  0.56  0.12
 -1 -8  5  0.99  0.36
  1  8 -5  0.55  0.21
 -1 -10  6  0.65  0.31
  1 -9  4  -0.08  0.14
  1 -9  4  -0.06  0.08
  1 -7  3  0.26  0.14
  1 -7  3  0.36  0.19
  1 -7  3  0.42  0.24
  1 -5  2  14.42  0.93
  1 -5  2  14.43  0.71
  1 -5  2  12.99  0.84
  1 -3  1  16.95  0.68
  1 -3  1  16.47  0.69
  1 -1  0  23.75  0.70
 -1  1  0  25.08  0.40
  1 -1  0  23.94  0.70
  1 -1  0  24.74  0.31
  1  1 -1  13.46  0.31
 -1 -1  1  13.01  0.34
 -1 -3  2  21.15  0.53
  1  3 -2  20.36  0.57
 -1 -5  3  1.25  0.17
  1  7 -4  0.26  0.13
 -1 -7  4  0.18  0.08
 -1 -9  5  0.23  0.13
 -1 -9  5  0.34  0.29
  1 -10  5  0.56  0.26
  1 -10  5  0.40  0.28
  1 -8  4  1.46  0.43
  1 -8  4  1.43  0.35
  1 -6  3  0.76  0.22
  1 -6  3  0.96  0.18
  1 -4  2  5.25  0.41
  1 -4  2  3.80  0.39
 -1  2 -1  17.58  0.62
  1 -2  1  17.71  0.55
  1  0  0  4.27  0.24
  1  0  0  4.46  0.22
 -1  0  0  4.40  0.24
 -1 -2  1  4.46  0.23
  1  2 -1  4.05  0.21
 -1 -4  2  4.67  0.30
  1  4 -2  4.61  0.34
  1  6 -3  0.47  0.16
 -1 -6  3  0.43  0.12
 -1 -8  4  6.74  0.94
  1  8 -4  6.87  0.73
 -1 -8  4  8.01  0.97
 -1 -10  5  5.02  0.89
  1 -11  6  0.61  0.45
  1 -9  5  1.85  0.43
  1 -9  5  1.79  0.58
  1 -7  4  24.78  1.37
  1 -5  3  8.37  0.54
  1 -5  3  8.30  0.65
  1 -3  2  9.59  0.52
  1 -3  2  9.82  0.51
 -1  1 -1  9.54  0.26
  1 -1  1  9.94  0.23
 -1 -1  0  44.84  0.72
  1  1  0  46.15  0.70
  1  3 -1  16.42  0.54
 -1 -3  1  16.98  0.53
 -1 -5  2  3.38  0.29
 -1 -7  3  3.05  0.40
 -1 -7  3  3.13  0.53
  1  7 -3  3.29  0.46
 -1 -9  4  11.80  1.26
  1  9 -4  9.39  0.95
 -1 -9  4  10.12  1.25
  1 -10  6  0.11  0.12
  1 -10  6  0.05  0.09
  1 -8  5  1.50  0.36
  1 -6  4  23.57  1.20
  1 -6  4  22.91  0.91
  1 -4  3  12.29  0.69
  1 -4  3  11.51  0.59
  1 -2  2 131.96  1.50
 -1  2 -2 130.92  1.77
  1  0  1  9.41  0.33
  1  2  0  0.52  0.08
 -1 -2  0  0.56  0.09
 -1 -2  0  0.45  0.07
 -1 -4  1  0.23  0.07
 -1 -4  1  0.38  0.09
 -1 -6  2  8.98  0.58
 -1 -6  2  8.98  0.77
  1  6 -2  9.95  0.71
 -1 -6  2  9.20  0.56
 -1 -8  3  0.48  0.24
  1  8 -3  0.34  0.15
 -1 -10  4  0.81  0.35
  1 -9  6  0.81  0.24
  1 -7  5  7.94  0.54
  1 -7  5  8.73  0.80
  1 -5  4  2.64  0.36
  1 -5  4  2.65  0.30
 -1  3 -3  51.80  1.50
  1 -3  3  53.94  1.22
 -1  1 -2  40.05  0.62
  1 -1  2  41.22  0.54
 -1 -1 -1  5.77  0.29
 -1 -3  0  31.39  0.78
 -1 -3  0  32.12  0.80
  1  3  0  30.60  0.78
 -1 -5  1  0.86  0.16
  1  5 -1  0.98  0.19
 -1 -5  1  0.73  0.19
 -1 -5  1  0.75  0.12
  1  7 -2  0.23  0.13
 -1 -7  2  0.42  0.13
 -1 -7  2  0.30  0.15
  1  9 -3  1.48  0.38
 -1 -9  3  2.76  0.57
  1 -10  7  -0.01  0.12
  1 -8  6  4.62  0.62
  1 -6  5  0.40  0.11
  1 -6  5  0.28  0.14
  1 -4  4  0.02  0.02
  1 -4  4  0.02  0.07
 -1  2 -3  2.29  0.24
  1 -2  3  2.48  0.21
  1  0  2  81.98  1.10
  1  0  2  86.16  1.07
  1  2  1  0.01  0.02
 -1 -2 -1  0.00  0.03
 -1 -2 -1  0.03  0.02
 -1 -4  0  1.19  0.18
 -1 -4  0  1.34  0.20
  1  6 -1  10.35  0.73
 -1 -6  1  11.83  0.83
 -1 -8  2  4.75  0.64
  1  8 -2  5.08  0.64
  1 10 -3  2.37  0.55
 -1 -10  3  3.51  0.76
  1 -9  7  0.85  0.26
  1 -7  6  -0.05  0.06
  1 -7  6  -0.11  0.14
  1 -5  5  2.79  0.29
  1 -5  5  2.84  0.36
 -1  3 -4  0.98  0.22
  1 -3  4  0.69  0.14
  1 -1  3  13.00  0.34
 -1 -1 -2  0.36  0.08
 -1 -3 -1  3.45  0.29
 -1 -3 -1  3.66  0.24
 -1 -5  0  1.15  0.21
 -1 -5  0  1.45  0.22
  1  5  0  1.37  0.23
 -1 -7  1  3.00  0.45
  1  7 -1  2.73  0.44
  1  9 -2  1.14  0.34
  1 -10  8  0.01  0.09
  1 -8  7  6.94  0.71
  1 -6  6  -0.02  0.04
  1 -6  6  0.02  0.07
  1 -4  5  1.65  0.25
  1 -2  4  0.46  0.08
 -1  2 -4  0.58  0.12
  1  0  3  1.61  0.16
  1  0  3  1.54  0.16
 -1  0 -3  1.61  0.18
  1  2  2  23.01  0.61
 -1 -2 -2  25.18  0.75
  1  4  1  24.34  0.88
 -1 -4 -1  25.79  0.89
 -1 -4 -1  25.67  0.81
 -1 -6  0  46.92  1.50
  1  6  0  43.99  1.54
  1  8 -1  0.48  0.20
 -1 -8  1  0.78  0.23
  1 10 -2  6.79  0.92
  1 -9  8  0.62  0.20
  1 -7  7  2.09  0.37
  1 -7  7  2.31  0.28
 -1  5 -6  0.09  0.11
  1 -5  6  0.08  0.04
  1 -5  6  -0.01  0.03
  1 -3  5  4.40  0.34
  1 -1  4  13.06  0.38
  1 -1  4  12.94  0.50
  1  1  3  4.50  0.30
 -1 -1 -3  4.82  0.31
 -1 -1 -3  4.38  0.31
 -1 -3 -2  0.78  0.15
  1  3  2  0.60  0.08
  1  3  2  0.90  0.15
 -1 -5 -1  9.45  0.60
  1  5  1  7.71  0.57
 -1 -5 -1  9.00  0.54
 -1 -7  0  3.92  0.46
  1  7  0  4.78  0.59
  1  9 -1  0.93  0.31
  1 -10  9  0.09  0.09
  1 -8  8  -0.06  0.09
  1 -6  7  2.56  0.29
  1 -6  7  2.85  0.39
  1 -4  6  31.33  1.08
 -1  4 -6  32.83  1.47
  1 -2  5  94.08  1.28
 -1  0 -4  97.72  1.54
  1  0  4  94.04  1.34
 -1 -2 -3  0.32  0.09
  1  2  3  0.28  0.08
 -1 -2 -3  0.22  0.08
 -1 -4 -2  1.24  0.21
 -1 -4 -2  1.34  0.17
  1  4  2  1.02  0.19
 -1 -6 -1  18.96  0.87
  1  6  1  18.49  1.02
 -1 -8  0  4.84  0.53
  1  8  0  4.53  0.62
  1 -9  9  4.73  0.62
  1 -7  8  0.38  0.15
  1 -7  8  0.58  0.13
  1 -5  7  7.40  0.46
  1 -5  7  10.11  0.67
  1 -3  6  0.07  0.06
 -1  3 -6  0.07  0.09
  1 -1  5  0.39  0.07
  1 -1  5  0.40  0.09
  1  1  4  58.22  1.11
 -1 -1 -4  60.74  1.07
 -1 -1 -4  58.13  1.22
  1  3  3  0.11  0.04
 -1 -3 -3  0.10  0.07
  1  3  3  0.07  0.05
 -1 -5 -2  4.34  0.34
  1  5  2  4.03  0.42
 -1 -7 -1  0.36  0.14
  1  7  1  0.23  0.13
  1  9  0  -0.12  0.08
  1 -8  9  4.59  0.58
  1 -6  8  21.57  1.06
  1 -6  8  16.87  0.70
 -1  4 -7  0.50  0.18
  1 -4  7  0.51  0.14
  1 -2  6  35.44  0.80
  1 -2  6  35.42  0.91
 -1  0 -5 135.26  1.95
  1  0  5 134.23  1.68
  1  2  4  0.95  0.16
  1  2  4  1.13  0.17
 -1 -2 -4  1.21  0.19
 -1 -2 -4  1.29  0.20
 -1 -4 -3  1.21  0.22
  1  4  3  0.80  0.12
  1  4  3  1.16  0.21
  1  4  3  1.07  0.21
 -1 -6 -2  14.26  0.68
  1  6  2  14.18  0.93
  1  8  1  3.46  0.57
  1 -9 10  0.67  0.24
  1 -7  9  1.87  0.34
  1 -5  8  7.84  0.47
  1 -5  8  10.47  0.67
  1 -3  7  3.81  0.32
 -1  3 -7  3.85  0.44
  1 -1  6  15.10  0.57
  1 -1  6  15.50  0.52
  1  1  5  2.33  0.23
 -1 -1 -5  2.47  0.21
 -1 -1 -5  2.31  0.27
  1  1  5  2.29  0.29
 -1 -3 -4  15.45  0.77
 -1 -3 -4  16.71  0.81
  1  3  4  16.32  0.79
  1  3  4  17.03  0.74
  1  5  3  0.41  0.12
  1  7  2  3.21  0.50
 -1 -7 -2  3.04  0.32
  1  9  1  7.60  0.93
  1 -8 10  14.20  0.99
  1 -6  9  13.25  0.60
  1 -6  9  16.57  0.92
  1 -4  8  5.97  0.46
  1 -2  7  12.50  0.49
 -1  2 -7  10.79  0.64
  1 -2  7  11.08  0.51
 -1  0 -6  2.84  0.31
 -1  0 -6  2.71  0.22
  1  0  6  2.47  0.25
  1  0  6  2.47  0.27
 -1 -2 -5  0.24  0.11
 -1 -2 -5  0.36  0.12
  1  2  5  0.28  0.10
  1  2  5  0.17  0.08
  1  4  4  6.01  0.50
 -1 -4 -4  5.55  0.52
  1  4  4  6.15  0.56
  1  4  4  5.91  0.41
  1  6  3  1.64  0.32
  1  8  2  3.72  0.61
  1 -9 11  0.28  0.18
  1 -7 10  22.30  1.14
  1 -5  9  47.59  1.41
  1 -3  8  3.39  0.33
  1 -3  8  4.09  0.34
 -1  3 -8  3.73  0.46
  1 -1  7  15.48  0.61
  1 -1  7  15.90  0.59
 -1  1 -7  14.47  0.66
 -1 -1 -6  0.52  0.11
  1  1  6  0.68  0.13
  1  1  6  0.42  0.13
 -1 -1 -6  0.72  0.16
  1  3  5  9.43  0.66
 -1 -3 -5  8.39  0.56
  1  3  5  9.02  0.57
  1  5  4  0.36  0.12
  1  7  3  2.73  0.48
  1 -8 11  8.20  0.73
  1 -6 10  25.87  1.14
  1 -4  9  0.93  0.19
  1 -4  9  0.98  0.19
  1 -2  8  0.14  0.07
  1 -2  8  0.26  0.08
 -1  2 -8  0.25  0.11
 -1  0 -7  15.52  0.77
  1  0  7  14.06  0.68
 -1  0 -7  14.50  0.60
  1  0  7  14.78  0.63
 -1 -2 -6  2.06  0.24
  1  2  6  2.09  0.29
 -1 -2 -6  2.12  0.30
  1  2  6  2.36  0.28
  1  4  5  0.00  0.02
  1  4  5  0.01  0.09
  1  4  5  -0.03  0.03
  1  6  4  0.16  0.11
  1  8  3  3.63  0.61
  1 -7 11  5.13  0.55
  1 -5 10  5.91  0.45
  1 -5 10  6.16  0.50
  1 -3  9  0.66  0.13
  1 -3  9  0.58  0.14
  1 -1  8  9.42  0.50
 -1  1 -8  9.19  0.58
  1 -1  8  9.45  0.51
 -1 -1 -7  14.30  0.56
  1  1  7  13.47  0.63
  1  1  7  12.48  0.79
 -1 -1 -7  15.35  0.79
  1  3  6  0.02  0.04
  1  3  6  0.03  0.06
  1  5  5  2.99  0.30
  1  5  5  3.11  0.45
  1  5  5  3.29  0.43
  1  7  4  3.66  0.57
  1 -8 12  0.75  0.24
  1 -6 11  1.23  0.19
  1 -6 11  1.21  0.24
  1 -4 10  0.03  0.04
  1 -4 10  0.07  0.06
  1 -2  9  0.02  0.04
  1 -2  9  -0.03  0.04
  1  0  8  0.50  0.15
  1  0  8  0.37  0.10
 -1  0 -8  0.32  0.12
  1  2  7  4.07  0.39
  1  4  6  12.78  0.81
  1  4  6  12.26  0.76
  1  6  5  11.75  0.94
  1 -7 12  0.62  0.18
  1 -5 11  0.00  0.02
  1 -5 11  0.07  0.05
  1 -3 10  -0.02  0.02
  1 -3 10  0.05  0.01
  1 -1  9  4.99  0.41
  1 -1  9  5.30  0.38
 -1 -1 -8  1.19  0.24
  1  1  8  0.98  0.22
  1  1  8  1.22  0.21
  1  3  7  2.22  0.32
  1  5  6  -0.06  0.06
  1  5  6  0.13  0.05
  1  7  5  3.38  0.57
  1 -6 12  4.22  0.44
  1 -4 11  0.04  0.05
  1 -4 11  0.14  0.09
  1 -2 10  0.81  0.15
  1 -2 10  0.92  0.16
  1  0  9  1.08  0.18
  1  0  9  0.83  0.20
  1  2  8  6.01  0.49
  1  2  8  5.85  0.55
  1  4  7  -0.03  0.08
  1  4  7  -0.09  0.15
  1  6  6  19.43  1.26
  1 -7 13  0.37  0.13
  1 -5 12  1.26  0.23
  1 -3 11  0.06  0.04
  1 -3 11  0.06  0.06
  1 -1 10  2.11  0.25
  1 -1 10  2.03  0.30
  1  1  9  -0.08  0.09
  1  1  9  0.06  0.05
  1  1  9  0.12  0.09
  1  3  8  0.90  0.26
  1  3  8  0.75  0.20
  1  5  7  9.38  0.81
  1  7  6  0.43  0.23
  1 -6 13  2.58  0.35
  1 -4 12  0.12  0.09
  1 -4 12  0.12  0.07
  1 -2 11  0.50  0.15
  1 -2 11  0.33  0.10
  1  0 10  8.48  0.54
  1  0 10  7.21  0.64
  1  2  9  12.62  0.88
  1  2  9  13.25  0.79
  1  4  8  4.53  0.54
  1  6  7  1.40  0.36
  1 -5 13  0.63  0.16
  1 -3 12  0.11  0.05
  1 -3 12  0.00  0.03
  1 -1 11  2.03  0.32
  1 -1 11  2.46  0.28
  1  1 10  12.70  0.74
  1  1 10  10.41  0.89
  1  3  9  3.08  0.42
  1  5  8  1.89  0.39
  1 -4 13  0.17  0.09
  1 -2 12  0.22  0.09
  1 -2 12  0.51  0.18
  1  0 11  19.82  1.14
  1  0 11  20.49  0.90
  1  2 10  8.89  0.68
  1  4  9  3.68  0.50
  1 -5 14  6.76  0.55
  1 -3 13  1.17  0.24
  1 -3 13  1.50  0.21
  1 -1 12  1.29  0.30
  1 -1 12  1.11  0.21
  1  1 11  0.93  0.21
  1  3 10  1.61  0.32
  1  5  9  0.38  0.18
  1 -4 14  1.02  0.23
  1 -2 13  1.60  0.31
  1 -2 13  2.29  0.29
  1  0 12  0.02  0.04
  1  0 12  0.15  0.09
  1  2 11  2.65  0.40
  1  4 10  2.47  0.44
  1 -3 14  6.47  0.61
  1 -1 13  3.19  0.49
  1 -1 13  3.54  0.39
  1  1 12  2.16  0.35
  1  3 11  4.60  0.57
  1 -2 14  5.87  0.65
  1  0 13  0.76  0.24
  1  0 13  1.09  0.23
  1  2 12  0.08  0.08
  1  4 11  4.34  0.62
  1 -1 14  3.27  0.40
  1 -1 14  2.74  0.50
  1  1 13  0.02  0.09
  1  3 12  0.19  0.15
  1  0 14  0.13  0.07
  1  0 14  -0.12  0.19
  1  2 13  2.59  0.44
  1  1 14  0.09  0.12
  1  2 14  4.62  0.63
 -2  2 15  0.11  0.12
 -2  0 16  2.28  0.45
 -2  3 14  0.31  0.29
 -2  3 14  0.21  0.15
 -2  1 15  -0.09  0.12
 -2 -1 16  5.60  0.65
 -2  4 13  1.12  0.38
 -2  2 14  0.05  0.08
 -2  0 15  0.88  0.27
 -2 -2 16  0.94  0.23
 -2  3 13  5.55  0.76
 -2  3 13  4.89  0.82
 -2  1 14  1.41  0.34
 -2  1 14  0.79  0.24
 -2 -1 15  0.05  0.09
 -2 -3 16  0.58  0.17
 -2  4 12  0.12  0.09
 -2  4 12  0.09  0.08
 -2  2 13  1.24  0.33
 -2  0 14  4.17  0.52
 -2 -2 15  -0.01  0.02
 -2 -4 16  1.26  0.24
 -2  5 11  0.39  0.24
 -2  3 12  0.10  0.13
 -2  3 12  0.10  0.08
 -2  1 13  6.81  0.70
 -2  1 13  7.20  0.71
 -2 -1 14  4.87  0.47
 -2 -3 15  0.13  0.11
 -2  4 11  2.21  0.53
 -2  4 11  2.69  0.52
 -2  2 12  1.09  0.28
 -2  0 13  2.37  0.36
 -2  0 13  2.46  0.35
 -2 -2 14  5.26  0.44
 -2 -4 15  0.21  0.10
 -2  5 10  -0.03  0.05
 -2  5 10  -0.09  0.12
 -2  3 11  3.47  0.53
 -2  3 11  2.94  0.58
 -2  1 12  12.04  0.84
 -2  1 12  12.65  0.87
 -2 -1 13  2.20  0.29
 -2 -1 13  2.13  0.29
 -2 -3 14  1.71  0.26
 -2 -5 15  6.25  0.56
 -2  6  9  6.30  0.86
 -2  4 10  1.92  0.47
 -2  4 10  2.11  0.44
 -2  2 11  1.24  0.30
 -2  0 12  0.64  0.16
 -2  0 12  0.53  0.16
  2  0 -12  0.39  0.12
 -2 -2 13  0.83  0.17
 -2 -4 14  0.62  0.17
 -2 -6 15  0.24  0.12
 -2  5  9  9.06  1.06
 -2  5  9  8.19  0.90
 -2  3 10  9.15  0.97
 -2  3 10  8.53  0.80
  2 -1 -11  30.35  1.09
 -2  1 11  33.57  1.28
 -2  1 11  34.31  1.36
  2  1 -12  14.94  0.65
 -2 -1 12  16.89  0.77
 -2 -1 12  17.01  0.69
 -2 -3 13  3.23  0.35
 -2 -5 14  2.23  0.36
 -2  6  8  0.23  0.21
 -2  6  8  0.13  0.18
 -2  4  9  1.08  0.34
 -2  4  9  0.95  0.28
 -2  2 10  0.18  0.10
  2 -2 -10  0.00  0.05
 -2  0 11  55.07  1.31
 -2  0 11  52.81  1.51
 -2 -2 12  9.00  0.52
 -2 -4 13  4.02  0.44
 -2 -6 14  1.49  0.33
 -2  7  7  -0.02  0.06
 -2  5  8  0.13  0.13
 -2  5  8  0.27  0.18
 -2  3  9  3.36  0.48
 -2  3  9  2.57  0.51
  2 -3 -9  2.75  0.28
 -2  1 10  62.23  1.56
  2 -1 -10  60.00  1.65
 -2  1 10  59.58  1.70
  2  1 -11  21.38  0.71
 -2 -1 11  20.90  0.80
 -2 -1 11  22.53  0.74
 -2 -3 12  -0.12  0.10
 -2 -5 13  0.35  0.17
  2 -8 -6  0.17  0.14
 -2  6  7  0.01  0.09
 -2  6  7  0.23  0.20
  2 -4 -8  11.01  0.49
 -2  4  8  11.73  1.07
 -2  4  8  10.91  0.90
  2 -2 -9  12.88  0.64
  2 -2 -9  12.18  0.66
 -2  2  9  12.47  0.83
 -2  0 10  8.04  0.44
  2  0 -10  6.19  0.40
  2  0 -10  7.79  0.64
 -2  0 10  7.92  0.56
 -2 -2 11  3.33  0.31
 -2 -4 12  0.31  0.14
 -2 -6 13  1.35  0.32
  2 -7 -6  0.05  0.09
 -2  7  6  -0.05  0.10
 -2  5  7  -0.02  0.07
 -2  5  7  0.02  0.06
  2 -5 -7  0.07  0.04
 -2  3  8  3.11  0.52
  2 -3 -8  3.10  0.26
 -2  3  8  2.96  0.43
 -2  1  9  1.89  0.25
  2 -1 -9  1.70  0.22
 -2  1  9  1.64  0.27
  2 -1 -9  1.41  0.23
 -2 -1 10  9.76  0.51
  2  1 -10  9.13  0.41
  2  1 -10  10.70  0.83
 -2 -1 10  10.59  0.49
 -2 -3 11  2.51  0.33
 -2 -5 12  0.10  0.09
 -2 -7 13  1.68  0.38
 -2  8  5  -0.13  0.14
  2 -8 -5  0.29  0.17
 -2  6  6  26.63  1.59
  2 -6 -6  24.46  1.25
 -2  6  6  29.14  1.71
 -2  4  7  1.07  0.30
 -2  4  7  1.08  0.27
  2 -4 -7  1.21  0.14
  2 -2 -8  3.56  0.34
 -2  2  8  3.29  0.40
  2 -2 -8  3.47  0.30
 -2  0  9  0.03  0.02
  2  0 -9  0.06  0.04
  2  0 -9  -0.03  0.06
 -2  0  9  0.07  0.04
 -2 -2 10  2.28  0.27
  2  2 -10  2.92  0.48
 -2 -4 11  1.70  0.30
 -2 -6 12  0.37  0.18
 -2  7  5  0.32  0.22
  2 -7 -5  0.61  0.21
 -2  5  6  0.03  0.09
 -2  5  6  0.17  0.14
  2 -5 -6  0.29  0.09
  2 -5 -6  0.16  0.10
  2 -3 -7  0.06  0.01
 -2  3  7  0.17  0.12
 -2  3  7  0.16  0.09
 -2  3  7  0.14  0.12
 -2  1  8  10.64  0.65
  2 -1 -8  10.97  0.52
 -2  1  8  10.47  0.80
  2 -1 -8  10.68  0.58
 -2  1  8  10.41  0.51
 -2 -1  9  0.27  0.08
  2  1 -9  0.30  0.07
 -2 -1  9  0.31  0.08
  2  1 -9  0.34  0.16
 -2 -3 10  4.78  0.45
 -2 -5 11  4.73  0.55
 -2 -7 12  1.39  0.34
  2 -8 -4  0.36  0.16
 -2  8  4  0.40  0.23
 -2  6  5  0.82  0.28
  2 -6 -5  0.52  0.21
  2 -6 -5  0.59  0.16
 -2  6  5  0.58  0.25
  2 -4 -6  38.81  1.43
 -2  4  6  38.67  1.59
  2 -4 -6  41.26  0.83
 -2  4  6  41.50  2.01
 -2  4  6  38.99  1.77
 -2  2  7  0.75  0.23
 -2  2  7  0.91  0.21
 -2  2  7  0.85  0.25
  2 -2 -7  0.72  0.15
  2 -2 -7  0.71  0.12
 -2  0  8  6.01  0.43
  2  0 -8  5.87  0.33
 -2  0  8  6.19  0.52
 -2  0  8  6.22  0.31
  2  0 -8  6.20  0.49
 -2 -2  9  6.68  0.47
  2  2 -9  7.20  0.74
 -2 -4 10  0.82  0.22
 -2 -6 11  2.88  0.47
 -2 -8 12  1.08  0.33
  2 -9 -3  0.19  0.14
  2 -7 -4  0.32  0.17
 -2  7  4  0.33  0.22
 -2  5  5  0.03  0.02
 -2  5  5  0.04  0.03
  2 -5 -5  0.01  0.05
  2 -3 -6  0.27  0.13
 -2  3  6  0.35  0.16
 -2  3  6  0.12  0.10
  2 -3 -6  0.29  0.06
  2 -3 -6  0.25  0.09
 -2  3  6  0.31  0.13
 -2  1  7  4.16  0.39
  2 -1 -7  3.77  0.29
 -2  1  7  4.07  0.48
  2 -1 -7  3.94  0.32
 -2  1  7  3.81  0.27
 -2 -1  8  1.93  0.21
  2  1 -8  1.51  0.15
  2  1 -8  2.10  0.33
 -2 -3  9  2.97  0.37
  2  3 -9  3.59  0.56
 -2 -5 10  0.03  0.07
 -2 -7 11  0.01  0.08
  2 -8 -3  4.80  0.70
 -2  8  3  4.53  0.75
  2 -6 -4  4.24  0.58
 -2  6  4  4.98  0.67
  2 -6 -4  3.31  0.38
 -2  6  4  5.15  0.66
  2 -4 -5  0.07  0.05
 -2  4  5  0.03  0.03
 -2  4  5  -0.02  0.09
  2 -4 -5  0.10  0.09
 -2  2  6  5.42  0.49
  2 -2 -6  5.14  0.27
  2 -2 -6  5.99  0.41
 -2  2  6  5.62  0.60
 -2  0  7  3.38  0.31
  2  0 -7  3.49  0.35
 -2  0  7  3.09  0.21
  2  0 -7  3.17  0.23
  2  2 -8  1.59  0.33
 -2 -2  8  1.59  0.24
 -2 -4  9  0.16  0.10
 -2 -6 10  0.10  0.07
 -2 -8 11  7.25  0.90
  2 -9 -2  0.10  0.12
  2 -7 -3  3.87  0.59
 -2  7  3  4.34  0.67
 -2  5  4  0.01  0.12
 -2  5  4  0.02  0.06
  2 -5 -4  -0.06  0.08
  2 -5 -4  0.27  0.15
 -2  5  4  0.10  0.08
 -2  3  5  0.15  0.09
  2 -3 -5  0.30  0.06
  2 -3 -5  0.19  0.09
 -2  3  5  0.23  0.13
  2 -3 -5  0.27  0.10
 -2  1  6  0.05  0.03
  2 -1 -6  0.04  0.02
 -2  1  6  0.05  0.04
  2 -1 -6  0.08  0.05
  2  1 -7  0.56  0.07
 -2 -1  7  0.61  0.13
  2  1 -7  0.64  0.17
 -2 -3  8  1.73  0.27
 -2 -5  9  0.45  0.16
 -2 -7 10  17.78  1.34
  2 -8 -2  3.41  0.61
  2 -6 -3  7.63  0.78
 -2  6  3  8.92  0.87
 -2  4  4  0.07  0.09
  2 -4 -4  0.21  0.10
  2 -4 -4  0.14  0.05
  2 -4 -4  0.08  0.07
 -2  4  4  0.08  0.09
  2 -2 -5  0.03  0.03
  2 -2 -5  0.08  0.07
 -2  2  5  0.04  0.04
  2 -2 -5  -0.02  0.02
 -2  0  6  0.60  0.09
  2  0 -6  0.65  0.10
  2  0 -6  0.58  0.13
 -2 -2  7  20.24  0.86
  2  2 -7  22.88  1.20
 -2 -4  8  3.66  0.47
 -2 -6  9  2.55  0.47
 -2 -8 10  4.40  0.72
  2 -9 -1  0.22  0.14
  2 -9 -1  0.32  0.18
  2 -7 -2  0.91  0.27
 -2  7  2  0.76  0.30
  2 -7 -2  0.90  0.29
  2 -5 -3  0.00  0.08
 -2  5  3  0.04  0.09
 -2  5  3  0.25  0.14
 -2  3  4  43.98  1.47
  2 -3 -4  45.09  1.27
  2 -3 -4  46.43  1.55
  2 -3 -4  40.77  0.69
 -2  1  5  1.29  0.21
  2 -1 -5  1.22  0.17
  2 -1 -5  1.24  0.14
 -2  1  5  1.21  0.11
  2  1 -6  59.54  0.73
 -2 -1  6  56.84  1.21
 -2 -3  7  2.21  0.33
 -2 -5  8  0.06  0.07
 -2 -7  9  6.67  0.83
 -2 -9 10  4.47  0.79
  2 -10  0  3.51  0.75
  2 -8 -1  0.02  0.01
  2 -8 -1  0.22  0.23
  2 -6 -2  2.53  0.42
  2 -6 -2  2.60  0.47
 -2  6  2  2.78  0.49
 -2  4  3  1.22  0.31
  2 -4 -3  1.16  0.25
  2 -4 -3  0.94  0.25
 -2  4  3  1.49  0.30
  2 -4 -3  1.55  0.25
 -2  2  4  8.27  0.66
  2 -2 -4  8.44  0.59
  2 -2 -4  8.68  0.51
  2 -2 -4  8.71  0.23
 -2  2  4  8.96  0.69
 -2  2  4  8.80  0.59
 -2  0  5  26.28  0.60
  2  0 -5  27.34  0.69
  2  0 -5  28.27  0.89
 -2 -2  6  32.31  1.11
 -2 -4  7  27.86  1.32
 -2 -6  8  0.89  0.30
 -2 -6  8  0.61  0.10
 -2 -8  9  11.67  1.21
  2 -9  0  0.68  0.25
  2 -9  0  0.54  0.28
  2 -7 -1  0.89  0.33
  2 -7 -1  0.15  0.13
  2 -5 -2  27.58  1.42
  2 -5 -2  29.20  1.35
 -2  5  2  29.33  1.43
  2 -3 -3  18.45  0.95
  2 -3 -3  17.95  0.81
  2 -3 -3  18.27  0.50
  2 -3 -3  17.31  0.95
 -2  3  3  18.32  0.94
 -2  3  3  18.13  1.02
  2 -1 -4  0.67  0.13
 -2  1  4  0.67  0.17
 -2  1  4  0.60  0.06
  2 -1 -4  0.62  0.09
  2 -1 -4  0.69  0.14
  2  1 -5  33.38  1.14
 -2 -1  5  31.85  0.93
  2  1 -5  31.36  0.59
 -2 -3  6  4.36  0.47
 -2 -5  7  0.89  0.12
 -2 -5  7  0.87  0.27
 -2 -7  8  0.90  0.33
 -2 -9  9  4.43  0.82
  2 -10  1  0.02  0.22
  2 -8  0  0.50  0.27
  2 -8  0  0.48  0.19
  2 -6 -1  11.11  1.00
  2 -6 -1  12.46  0.96
  2 -4 -2  95.01  2.30
  2 -4 -2  91.01  2.37
  2 -2 -3  0.08  0.05
  2 -2 -3  0.10  0.10
 -2  2  3  0.12  0.09
 -2  2  3  0.12  0.09
  2 -2 -3  0.05  0.02
  2 -2 -3  0.09  0.06
 -2  0  4  76.37  1.51
  2  0 -4  75.00  1.32
  2  0 -4  77.06  1.21
 -2  0  4  75.47  1.04
 -2 -2  5  84.02  1.81
  2  2 -5  49.01  0.61
 -2 -4  6  0.24  0.12
 -2 -4  6  0.23  0.06
  2  4 -6  0.22  0.06
 -2 -6  7  11.37  0.52
 -2 -6  7  14.84  1.22
 -2 -8  8  1.46  0.43
  2 -9  1  1.11  0.40
  2 -9  1  1.46  0.36
  2 -7  0  16.07  1.07
  2 -7  0  16.34  1.20
  2 -7  0  17.00  1.37
  2 -5 -1  9.87  0.81
  2 -5 -1  10.05  0.87
  2 -5 -1  9.87  0.67
  2 -3 -2  0.04  0.05
 -2  3  2  0.00  0.04
 -2  3  2  0.14  0.11
  2 -3 -2  0.11  0.08
  2 -3 -2  0.09  0.06
 -2  1  3  8.94  0.61
  2 -1 -3  8.27  0.28
  2 -1 -3  9.40  0.54
  2 -1 -3  8.58  0.48
 -2  1  3  7.69  0.16
 -2 -1  4  0.83  0.13
 -2 -1  4  0.73  0.14
  2  3 -5  2.81  0.15
 -2 -3  5  2.55  0.37
 -2 -5  6  0.98  0.14
 -2 -5  6  0.88  0.28
  2  5 -6  0.96  0.16
 -2 -7  7  0.72  0.16
 -2 -7  7  0.33  0.17
 -2 -9  8  4.27  0.84
  2 -10  2  0.03  0.06
  2 -10  2  0.25  0.27
  2 -8  1  1.82  0.53
  2 -8  1  1.88  0.39
  2 -6  0  48.38  1.98
  2 -6  0  47.76  2.11
  2 -6  0  44.41  1.59
  2 -4 -1 219.88  3.73
  2 -4 -1 221.60  3.61
 -2  2  2  22.46  1.03
  2 -2 -2  25.37  0.91
  2 -2 -2  23.51  0.99
  2 -2 -2  23.36  0.98
  2  0 -3 199.17  1.98
 -2  0  3 194.38  2.34
 -2 -2  4  15.10  0.78
  2  2 -4  16.09  0.37
 -2 -4  5  3.90  0.26
 -2 -4  5  4.58  0.58
  2  4 -5  4.34  0.27
 -2 -6  6  0.74  0.14
 -2 -6  6  0.78  0.27
  2  6 -6  0.86  0.19
 -2 -8  7  0.65  0.31
  2 -9  2  3.41  0.76
  2 -9  2  2.41  0.46
  2 -7  1  2.71  0.52
  2 -7  1  3.63  0.64
  2 -7  1  2.07  0.37
  2 -5  0  9.80  0.89
  2 -5  0  9.51  0.66
  2 -5  0  9.55  0.83
  2 -5  0  8.43  0.60
 -2  3  1  39.45  1.41
  2 -3 -1  39.37  1.44
  2 -3 -1  39.53  1.22
 -2  3  1  33.87  1.39
  2 -3 -1  35.20  0.83
  2 -3 -1  39.05  1.39
  2 -1 -2  10.97  0.61
  2 -1 -2  10.88  0.58
 -2 -1  3  13.87  0.49
 -2 -3  4  3.31  0.24
  2  3 -4  3.99  0.20
 -2 -5  5  10.82  0.49
  2  5 -5  11.47  0.57
  2  7 -6  0.31  0.13
 -2 -7  6  0.16  0.08
 -2 -7  6  0.38  0.28
 -2 -9  7  5.09  0.92
  2 -10  3  1.30  0.52
  2 -10  3  1.41  0.36
  2 -8  2  2.95  0.68
  2 -8  2  1.51  0.34
  2 -6  1  13.65  1.16
  2 -6  1  13.33  1.07
  2 -6  1  12.13  0.79
  2 -4  0 124.99  2.73
  2 -4  0 127.21  2.31
  2 -4  0 127.39  2.89
 -2  2  1  27.84  1.10
  2 -2 -1  29.74  1.12
  2 -2 -1  27.77  0.38
  2 -2 -1  28.26  1.08
  2  0 -2  1.25  0.19
 -2  0  2  1.02  0.16
  2  0 -2  1.14  0.15
 -2  0  2  1.15  0.20
  2  2 -3  1.02  0.11
 -2 -4  4  25.10  0.71
  2  4 -4  26.50  0.70
 -2 -6  5  10.54  0.56
 -2 -8  6  0.11  0.18
  2  8 -6  0.18  0.13
  2 -9  3  1.77  0.54
  2 -9  3  1.82  0.38
  2 -7  2  4.71  0.71
  2 -7  2  5.23  0.79
  2 -7  2  4.03  0.50
  2 -5  1  1.15  0.31
  2 -5  1  1.42  0.24
  2 -5  1  1.39  0.25
  2 -5  1  1.18  0.29
  2 -3  0  0.61  0.20
  2 -3  0  0.79  0.19
  2 -3  0  0.81  0.12
  2 -3  0  0.86  0.18
  2 -1 -1  2.77  0.31
  2 -1 -1  2.72  0.30
 -2  1  1  2.82  0.32
 -2 -1  2  0.99  0.16
 -2 -1  2  1.04  0.13
 -2 -3  3  7.37  0.38
  2  3 -3  7.15  0.31
 -2 -5  4  8.36  0.47
 -2 -7  5  0.38  0.12
  2  7 -5  0.18  0.11
  2  9 -6  7.11  0.79
 -2 -9  6  8.93  1.21
  2 -10  4  3.23  0.79
  2 -10  4  2.68  0.48
  2 -8  3  4.20  0.55
  2 -8  3  3.85  0.75
  2 -6  2  4.00  0.60
  2 -6  2  4.17  0.65
  2 -6  2  3.76  0.42
  2 -6  2  3.53  0.42
  2 -4  1  4.89  0.38
  2 -4  1  4.22  0.54
  2 -4  1  4.86  0.55
  2 -4  1  5.33  0.47
  2 -2  0  17.14  0.84
  2 -2  0  17.05  0.32
  2 -2  0  17.69  0.87
 -2  2  0  17.78  0.51
 -2  0  1  1.70  0.23
 -2  0  1  1.59  0.20
  2  0 -1  1.65  0.19
  2  0 -1  1.59  0.21
 -2 -2  2  5.13  0.34
 -2 -2  2  4.48  0.29
  2  2 -2  4.73  0.27
 -2 -4  3  42.03  0.98
  2  4 -3  42.34  0.92
 -2 -6  4  -0.06  0.05
  2  6 -4  0.00  0.03
  2  8 -5  19.31  1.16
 -2 -8  5  23.24  1.87
  2 -9  4  10.15  1.33
  2 -9  4  9.32  0.87
  2 -7  3  -0.07  0.14
  2 -7  3  0.05  0.08
  2 -5  2  0.94  0.20
  2 -5  2  0.84  0.19
  2 -5  2  1.04  0.29
  2 -3  1  6.19  0.58
  2 -3  1  6.45  0.34
 -2  3 -1  5.81  0.43
  2 -1  0  6.17  0.46
  2 -1  0  6.61  0.47
  2 -1  0  7.27  0.26
 -2  1  0  7.35  0.18
  2  1 -1 196.76  1.98
 -2 -1  1 197.34  2.23
  2  1 -1 200.57  1.93
  2  1 -1 198.24  1.31
 -2 -1  1 199.88  1.73
 -2 -3  2  6.17  0.36
  2  3 -2  5.94  0.31
 -2 -5  3  0.20  0.08
  2  7 -4  15.27  0.94
  2  9 -5  29.66  1.61
 -2 -9  5  32.86  2.32
  2 -10  5  2.11  0.66
  2 -10  5  1.66  0.37
  2 -8  4  7.53  1.06
  2 -8  4  5.88  0.63
  2 -6  3  8.11  0.87
  2 -6  3  7.71  0.60
  2 -6  3  7.59  0.61
  2 -4  2  38.68  1.05
  2 -4  2  34.85  1.19
  2 -2  1  34.21  1.22
 -2  2 -1  33.46  0.72
  2 -2  1  32.90  0.51
 -2  0  0  19.60  0.73
  2  0  0  19.38  0.74
  2  0  0  20.39  0.66
 -2 -2  1  23.96  0.73
  2  2 -1  24.78  0.67
 -2 -2  1  22.60  0.42
 -2 -2  1  23.89  0.67
 -2 -4  2  2.00  0.23
 -2 -6  3  0.34  0.11
  2  6 -3  0.19  0.10
 -2 -8  4  3.87  0.62
  2  8 -4  4.04  0.54
  2 -9  5  0.95  0.37
  2 -9  5  0.81  0.25
  2 -7  4  -0.06  0.10
  2 -5  3  16.11  0.78
  2 -5  3  13.23  0.76
  2 -3  2  3.54  0.25
 -2  3 -2  3.36  0.34
 -2  1 -1  21.86  0.38
  2 -1  1  21.09  0.47
  2  1  0  0.11  0.05
  2  1  0  0.15  0.05
  2  1  0  0.10  0.03
 -2 -3  1  31.25  0.88
  2  3 -1  29.06  0.75
 -2 -5  2  4.65  0.39
  2  5 -2  4.33  0.37
 -2 -7  3  3.76  0.29
  2  7 -3  4.79  0.53
 -2 -7  3  4.75  0.58
  2  9 -4  0.33  0.20
  2 -10  6  0.02  0.13
  2 -10  6  0.17  0.08
  2 -8  5  -0.01  0.06
  2 -6  4  0.03  0.06
  2 -6  4  0.40  0.12
 -2  4 -3  0.13  0.06
  2 -4  3  0.16  0.06
  2 -2  2  4.32  0.20
 -2  2 -2  3.90  0.26
 -2  0 -1  6.58  0.33
 -2 -2  0 135.90  1.84
  2  2  0 133.20  1.64
 -2 -4  1  44.60  1.15
 -2 -4  1  44.22  0.97
  2  6 -2  31.12  1.18
 -2 -6  2  32.65  1.28
 -2 -8  3  35.65  1.68
  2  8 -3  34.71  1.60
  2 10 -4  10.42  1.09
  2 -9  6  0.07  0.05
  2 -7  5  2.21  0.36
  2 -5  4  3.73  0.37
  2 -5  4  2.94  0.34
  2 -3  3  16.75  0.56
 -2  3 -3  17.31  0.78
 -2  1 -2  31.01  0.54
  2 -1  2  29.97  0.61
  2  1  1  10.37  0.50
 -2 -3  0  44.01  1.11
 -2 -5  1  0.19  0.09
 -2 -5  1  0.19  0.08
  2  5 -1  0.22  0.09
  2  7 -2  5.24  0.56
 -2 -7  2  4.88  0.52
  2  9 -3  1.63  0.38
  2 -10  7  0.86  0.43
  2 -10  7  0.84  0.24
  2 -8  6  0.01  0.05
  2 -6  5  0.65  0.16
  2 -6  5  0.66  0.17
  2 -4  4  58.79  1.30
 -2  2 -3  37.53  0.88
  2 -2  3  41.53  0.68
  2  0  2  2.20  0.25
  2  0  2  1.96  0.22
 -2  0 -2  2.67  0.21
  2  2  1  45.44  1.02
 -2 -2 -1  47.20  1.17
 -2 -4  0 124.98  2.03
  2  4  0 120.03  1.84
  2  6 -1  9.61  0.67
 -2 -6  1  8.77  0.55
  2  8 -2  2.18  0.42
  2 10 -3  1.00  0.35
  2 -9  7  0.81  0.23
  2 -7  6  2.42  0.37
 -2  5 -5  0.64  0.22
  2 -5  5  0.51  0.14
  2 -5  5  0.79  0.18
  2 -3  4  8.77  0.41
 -2  3 -4  8.56  0.56
  2 -1  3  51.64  0.89
 -2  1 -3  53.57  0.82
 -2 -1 -2  64.66  1.40
 -2 -3 -1  0.09  0.06
 -2 -5  0  0.28  0.07
  2  5  0  0.46  0.13
  2  7 -1  10.98  0.83
 -2 -7  1  10.39  0.63
  2  9 -2  5.41  0.72
  2 -10  8  0.34  0.18
  2 -8  7  4.15  0.51
  2 -6  6  2.89  0.37
  2 -6  6  2.60  0.33
 -2  4 -5  35.62  1.43
  2 -4  5  35.77  1.01
  2 -2  4 147.69  1.38
 -2  2 -4 139.87  1.83
  2  0  3  1.82  0.22
  2  0  3  1.74  0.21
 -2  0 -3  2.08  0.19
  2  2  2  0.57  0.07
 -2 -2 -2  0.62  0.15
 -2 -4 -1  3.46  0.36
  2  4  1  3.11  0.31
  2  6  0  20.99  1.01
 -2 -6  0  20.49  0.68
  2  8 -1  0.17  0.08
  2 10 -2  1.64  0.44
  2 -9  8  -0.17  0.13
  2 -7  7  0.55  0.18
  2 -5  6  3.80  0.37
 -2  5 -6  3.90  0.56
  2 -3  5  15.29  0.55
 -2  1 -4  0.32  0.07
  2 -1  4  0.55  0.11
 -2 -1 -3  63.90  1.50
 -2 -3 -2  5.74  0.46
  2  3  2  5.32  0.39
  2  5  1  11.97  0.71
 -2 -7  0  15.19  0.60
  2  7  0  17.53  1.08
  2  9 -1  0.28  0.20
  2 -10  9  7.40  0.75
  2 -8  8  19.68  1.09
  2 -6  7  2.41  0.31
  2 -6  7  3.45  0.40
  2 -4  6  25.50  0.85
 -2  4 -6  25.33  1.24
  2 -2  5  57.42  0.95
  2  0  4  1.64  0.22
  2  0  4  1.58  0.22
  2  2  3  0.72  0.10
 -2 -2 -3  0.96  0.19
  2  4  2  17.61  0.79
  2  6  1  0.77  0.21
  2  8  0  0.97  0.29
  2 -9  9  4.86  0.56
  2 -7  8  9.93  0.71
  2 -5  7  2.04  0.27
  2 -3  6  0.05  0.04
 -2  3 -6  0.04  0.06
  2 -1  5  16.94  0.73
  2 -1  5  16.10  0.60
 -2 -1 -4  15.93  0.79
  2  1  4  15.09  0.66
  2  3  3  9.02  0.43
 -2 -3 -3  10.37  0.65
  2  3  3  10.00  0.56
 -2 -3 -3  9.08  0.66
  2  5  2  55.82  1.60
  2  7  1  0.12  0.10
  2  9  0  0.62  0.26
  2 -8  9  10.38  0.77
  2 -6  8  0.94  0.19
  2 -6  8  1.33  0.25
  2 -4  7  4.26  0.35
 -2  4 -7  4.15  0.52
  2 -2  6  7.26  0.50
  2 -2  6  7.73  0.39
 -2  2 -6  6.86  0.48
  2  0  5  10.63  0.56
  2  0  5  9.90  0.59
  2  2  4  13.76  0.65
  2  2  4  12.36  0.50
 -2 -2 -4  12.15  0.65
  2  4  3  20.94  0.90
  2  6  2  15.01  0.94
  2  8  1  9.87  0.94
  2 -9 10  6.89  0.67
  2 -7  9  16.35  0.91
  2 -5  8  0.42  0.12
  2 -3  7  18.87  0.66
 -2  3 -7  19.00  0.97
  2 -1  6  77.97  1.57
 -2  1 -6  77.35  1.41
  2  1  5  0.01  0.02
 -2 -1 -5  -0.01  0.01
 -2 -1 -5  0.04  0.03
  2  3  4  9.94  0.59
  2  3  4  10.15  0.54
  2  5  3  19.01  0.97
  2  7  2  1.52  0.33
  2 -8 10  0.42  0.17
  2 -6  9  0.31  0.12
  2 -6  9  -0.04  0.03
  2 -4  8  4.41  0.36
 -2  2 -7  0.60  0.15
  2 -2  7  0.42  0.10
  2 -2  7  0.29  0.11
  2  0  6  2.16  0.27
 -2  0 -6  2.61  0.24
  2  0  6  2.40  0.31
  2  2  5  0.09  0.05
  2  2  5  0.12  0.08
 -2 -2 -5  0.26  0.10
 -2 -2 -5  0.11  0.07
  2  4  4  0.03  0.04
  2  4  4  0.05  0.03
  2  6  3  0.05  0.02
  2  8  2  0.22  0.16
  2 -7 10  4.00  0.45
  2 -5  9  0.75  0.16
  2 -3  8  6.45  0.51
  2 -3  8  7.14  0.42
  2 -1  7  0.30  0.11
 -2  1 -7  0.26  0.09
  2 -1  7  0.36  0.12
 -2 -1 -6  3.55  0.42
  2  1  6  3.94  0.36
 -2 -1 -6  3.98  0.31
  2  3  5  61.13  1.52
  2  3  5  63.47  1.54
  2  5  4  4.01  0.47
  2  7  3  1.26  0.33
  2 -8 11  0.27  0.12
  2 -6 10  1.41  0.24
  2 -4  9  0.93  0.18
  2 -4  9  0.53  0.15
  2 -2  8  2.98  0.33
  2 -2  8  2.81  0.29
  2  0  7  0.35  0.12
  2  0  7  0.14  0.09
  2  2  6  2.54  0.30
  2  2  6  2.30  0.27
  2  4  5  54.98  1.62
  2  4  5  54.98  1.50
  2  4  5  50.38  1.18
  2  6  4  15.64  1.02
  2 -7 11  0.98  0.21
  2 -5 10  2.08  0.32
  2 -5 10  2.16  0.28
  2 -3  9  0.35  0.11
  2 -3  9  0.25  0.10
  2 -1  8  0.10  0.06
  2 -1  8  0.25  0.12
  2  1  7  32.27  1.08
  2  3  6  42.83  1.35
  2  3  6  44.20  1.42
  2  5  5  1.26  0.28
  2  7  4  0.28  0.13
  2 -6 11  0.19  0.10
  2 -6 11  0.15  0.09
  2 -4 10  2.46  0.33
  2 -4 10  2.94  0.32
  2 -2  9  14.02  0.71
  2 -2  9  13.77  0.71
  2  0  8  2.99  0.34
  2  0  8  2.57  0.36
  2  2  7  0.40  0.14
  2  4  6  9.13  0.59
  2  4  6  8.53  0.67
  2  6  5  21.77  1.26
  2 -7 12  0.13  0.07
  2 -5 11  0.27  0.11
  2 -5 11  0.45  0.14
  2 -3 10  3.76  0.39
  2 -3 10  3.99  0.37
  2 -1  9  0.39  0.12
  2 -1  9  0.53  0.16
  2  1  8  34.86  1.16
  2  3  7  1.12  0.25
  2  5  6  0.15  0.10
  2  7  5  20.39  1.38
  2 -6 12  1.47  0.25
  2 -4 11  0.72  0.17
  2 -4 11  0.69  0.17
  2 -2 10  7.33  0.52
  2 -2 10  6.93  0.55
  2  0  9  6.88  0.52
  2  0  9  6.74  0.64
  2  2  8  30.74  1.15
  2  2  8  29.65  1.19
  2  4  7  11.70  0.83
  2  6  6  10.02  0.90
  2 -5 12  0.93  0.20
  2 -5 12  0.81  0.18
  2 -3 11  0.47  0.14
  2 -3 11  0.58  0.17
  2 -1 10  24.79  1.17
  2 -1 10  26.81  1.05
  2  1  9  5.74  0.49
  2  3  8  0.63  0.19
  2  5  7  18.30  1.15
  2 -6 13  0.31  0.13
  2 -4 12  9.62  0.61
  2 -4 12  9.17  0.63
  2 -2 11  5.03  0.45
  2 -2 11  4.89  0.50
  2  0 10  27.67  1.41
  2  0 10  28.36  1.06
  2  2  9  9.90  0.71
  2  4  8  0.20  0.13
  2 -5 13  1.75  0.29
  2 -3 12  0.18  0.08
  2 -3 12  0.33  0.16
  2 -1 11  5.32  0.46
  2 -1 11  4.16  0.54
  2  1 10  8.54  0.62
  2  3  9  5.94  0.59
  2  5  8  0.01  0.04
  2 -4 13  2.91  0.39
  2 -2 12  0.82  0.18
  2 -2 12  0.70  0.22
  2  0 11  8.62  0.85
  2  0 11  9.10  0.64
  2  2 10  1.62  0.31
  2  4  9  0.03  0.06
  2 -3 13  6.80  0.51
  2 -3 13  6.26  0.63
  2 -1 12  2.81  0.35
  2 -1 12  3.10  0.49
  2  1 11  0.45  0.15
  2  3 10  0.34  0.16
  2 -2 13  13.21  0.74
  2 -2 13  12.37  0.97
  2  0 12  12.70  0.79
  2  0 12  11.57  1.05
  2  2 11  1.28  0.28
  2  4 10  0.22  0.14
  2 -1 13  0.62  0.23
  2 -1 13  0.61  0.18
  2  1 12  1.10  0.25
  2  3 11  5.38  0.63
  2  0 13  7.42  0.64
  2  2 12  0.20  0.15
  2  1 13  0.93  0.24
  2  0 14  0.11  0.11
  2  1 14  6.55  0.70
 -3  0 16  0.13  0.14
 -3 -2 17  0.42  0.15
 -3  3 14  1.69  0.53
 -3 -1 16  0.16  0.11
 -3  4 13  0.73  0.34
 -3  4 13  0.89  0.38
 -3  2 14  5.16  0.87
 -3  0 15  1.55  0.32
 -3 -2 16  3.80  0.41
 -3  3 13  0.59  0.30
 -3  3 13  0.72  0.30
 -3  1 14  1.14  0.28
 -3 -1 15  0.32  0.15
 -3 -3 16  2.06  0.29
 -3  4 12  0.20  0.17
 -3  4 12  0.13  0.14
 -3  2 13  1.32  0.42
 -3  2 13  1.67  0.39
 -3  0 14  0.24  0.12
 -3 -2 15  1.72  0.26
 -3 -4 16  0.55  0.16
 -3  5 11  3.61  0.77
 -3  5 11  2.83  0.61
 -3  3 12  14.45  1.41
 -3  3 12  16.33  1.25
 -3  1 13  8.01  0.69
 -3 -1 14  1.50  0.23
 -3 -3 15  13.54  0.73
 -3  4 11  0.46  0.27
 -3  4 11  0.19  0.17
 -3  2 12  8.30  1.03
 -3  2 12  9.38  0.87
 -3  0 13  0.23  0.12
 -3 -2 14  3.78  0.36
 -3 -4 15  0.06  0.03
 -3  5 10  3.98  0.78
 -3  5 10  4.34  0.70
 -3  3 11  37.61  2.16
 -3  3 11  37.97  1.84
 -3  1 12  7.21  0.59
 -3 -1 13  11.22  0.58
 -3 -3 14  1.34  0.24
 -3 -5 15  0.47  0.18
 -3  6  9  4.90  0.86
 -3  6  9  3.47  0.65
 -3  4 10  1.95  0.50
 -3  4 10  1.71  0.41
 -3  2 11  11.95  0.94
 -3  2 11  11.03  1.14
 -3  0 12  11.17  0.60
 -3 -2 13  0.18  0.07
 -3 -4 14  0.35  0.12
 -3 -6 15  0.26  0.17
 -3  5  9  1.69  0.47
 -3  5  9  1.45  0.39
 -3  3 10  9.45  0.88
 -3  3 10  9.48  1.04
 -3  1 11  4.66  0.43
  3 -1 -11  3.76  0.36
  3 -1 -11  4.74  0.54
 -3 -1 12  3.70  0.31
 -3 -3 13  0.09  0.03
 -3 -5 14  1.31  0.30
  3 -8 -7  6.93  0.78
 -3  6  8  1.97  0.48
 -3  6  8  2.01  0.52
 -3  4  9  0.28  0.19
 -3  4  9  -0.02  0.09
 -3  2 10  7.71  0.90
  3 -2 -10  7.92  0.60
 -3  2 10  6.78  0.68
  3  0 -11  0.63  0.13
 -3  0 11  0.92  0.15
  3  0 -11  0.86  0.24
 -3 -2 12  0.78  0.16
 -3 -4 13  2.41  0.37
 -3 -6 14  1.34  0.32
  3 -7 -7  0.02  0.07
 -3  5  8  0.18  0.12
 -3  5  8  0.12  0.12
 -3  3  9  0.83  0.28
  3 -3 -9  0.91  0.17
 -3  3  9  0.78  0.25
 -3  1 10  13.15  0.65
  3 -1 -10  14.65  0.66
  3 -1 -10  15.25  0.90
  3  1 -11  2.46  0.21
 -3 -1 11  4.08  0.31
 -3 -3 12  3.00  0.37
 -3 -5 13  8.36  0.75
  3 -8 -6  3.46  0.57
 -3  6  7  13.17  1.30
  3 -6 -7  10.97  0.91
 -3  4  8  0.04  0.09
 -3  4  8  -0.02  0.04
  3 -4 -8  0.02  0.01
 -3  2  9  6.37  0.78
 -3  2  9  5.73  0.59
  3 -2 -9  5.73  0.45
 -3  2  9  5.76  0.50
  3 -2 -9  5.79  0.46
 -3  0 10  3.19  0.26
  3  0 -10  3.03  0.26
  3  0 -10  3.07  0.44
 -3 -2 11  1.32  0.22
 -3 -4 12  5.80  0.58
 -3 -6 13  1.48  0.37
  3 -9 -5  0.10  0.14
 -3  7  6  -0.06  0.16
  3 -7 -6  0.18  0.15
 -3  5  7  1.48  0.38
 -3  5  7  1.54  0.43
  3 -5 -7  1.48  0.33
 -3  3  8  1.67  0.41
  3 -3 -8  1.53  0.20
 -3  3  8  1.57  0.34
  3 -1 -9  9.01  0.51
  3 -1 -9  9.86  0.67
 -3  1  9  8.90  0.47
  3  1 -10  0.07  0.04
 -3 -1 10  -0.06  0.07
  3  1 -10  0.04  0.09
 -3 -3 11  6.87  0.57
 -3 -5 12  0.53  0.20
 -3 -7 13  1.36  0.37
  3 -8 -5  4.49  0.68
 -3  6  6  6.31  0.87
  3 -6 -6  4.93  0.63
  3 -4 -7  3.08  0.22
  3 -4 -7  3.73  0.47
 -3  4  7  3.24  0.60
 -3  4  7  3.43  0.52
  3 -2 -8  -0.04  0.04
  3 -2 -8  0.00  0.02
  3  0 -9  0.50  0.11
 -3  0  9  0.55  0.10
  3  0 -9  0.70  0.24
 -3 -2 10  9.00  0.58
  3  2 -10  10.07  0.95
 -3 -4 11  2.31  0.37
 -3 -6 12  0.12  0.09
  3 -9 -4  -0.06  0.14
  3 -7 -5  0.15  0.04
 -3  5  6  1.21  0.36
  3 -5 -6  1.25  0.13
  3 -5 -6  1.09  0.29
 -3  3  7  17.06  1.25
  3 -3 -7  15.44  0.90
  3 -3 -7  16.24  0.55
 -3  1  8  0.22  0.11
  3 -1 -8  0.31  0.09
 -3  1  8  0.34  0.08
  3 -1 -8  0.53  0.15
  3  1 -9  0.30  0.06
  3  1 -9  0.21  0.12
 -3 -1  9  0.44  0.11
 -3 -3 10  10.21  0.72
 -3 -5 11  9.59  0.85
 -3 -7 12  2.05  0.45
  3 -8 -4  0.75  0.31
 -3  6  5  0.05  0.07
  3 -6 -5  0.10  0.09
 -3  4  6  1.69  0.41
  3 -4 -6  1.75  0.14
  3 -4 -6  1.52  0.32
  3 -2 -7  8.40  0.45
  3 -2 -7  9.59  0.58
 -3  2  7  8.41  0.83
 -3  2  7  8.72  0.84
  3  0 -8  7.78  0.42
 -3  0  8  7.35  0.66
 -3  0  8  7.27  0.35
  3  0 -8  8.04  0.63
 -3 -2  9  10.69  0.65
 -3 -4 10  -0.08  0.10
 -3 -6 11  11.50  1.03
  3 -9 -3  1.85  0.57
  3 -7 -4  0.58  0.24
 -3  5  5  18.31  1.37
  3 -5 -5  17.92  1.18
  3 -5 -5  18.04  0.51
 -3  3  6  9.47  0.91
  3 -3 -6  9.52  0.72
  3 -3 -6  12.05  0.70
  3 -3 -6  10.28  0.37
 -3  3  6  11.20  1.01
 -3  1  7  22.50  1.29
  3 -1 -7  22.35  0.81
 -3  1  7  20.80  1.19
  3 -1 -7  22.50  0.87
 -3  1  7  21.52  0.51
 -3 -1  8  6.19  0.42
  3  1 -8  6.40  0.31
 -3 -1  8  6.47  0.55
  3  1 -8  6.78  0.65
 -3 -3  9  1.52  0.28
 -3 -5 10  19.81  1.26
 -3 -7 11  9.51  1.03
  3 -10 -2  -0.20  0.14
  3 -8 -3  1.33  0.39
 -3  6  4  6.10  0.80
  3 -6 -4  6.12  0.75
  3 -6 -4  5.09  0.36
 -3  4  5  0.39  0.20
  3 -4 -5  0.44  0.06
  3 -4 -5  0.32  0.16
 -3  2  6  2.54  0.44
 -3  2  6  2.65  0.45
  3 -2 -6  2.61  0.35
  3 -2 -6  2.74  0.22
  3 -2 -6  2.51  0.31
  3  0 -7  6.88  0.41
 -3  0  7  6.78  0.61
 -3  0  7  6.55  0.33
  3  0 -7  7.14  0.56
  3  2 -8  0.10  0.03
 -3 -2  8  0.12  0.06
 -3 -4  9  0.11  0.10
 -3 -6 10  4.87  0.70
 -3 -8 11  1.85  0.50
  3 -9 -2  0.06  0.06
  3 -7 -3  5.49  0.75
  3 -7 -3  4.11  0.47
 -3  5  4  1.19  0.34
  3 -5 -4  1.39  0.16
  3 -5 -4  1.16  0.31
 -3  3  5  2.83  0.49
  3 -3 -5  3.34  0.44
  3 -3 -5  3.18  0.37
 -3  3  5  3.47  0.54
  3 -3 -5  2.86  0.16
 -3  1  6  68.73  2.16
  3 -1 -6  59.68  1.49
  3 -1 -6  67.51  1.48
 -3  1  6  60.74  0.74
  3 -1 -6  64.86  1.33
 -3 -1  7  4.45  0.44
  3  1 -7  5.13  0.30
 -3 -1  7  4.00  0.35
 -3 -3  8  0.20  0.12
 -3 -5  9  9.37  0.88
 -3 -7 10  1.12  0.37
  3 -10 -1  -0.03  0.18
  3 -8 -2  0.40  0.23
  3 -8 -2  0.43  0.16
  3 -6 -3  8.81  0.92
 -3  4  4  6.10  0.72
  3 -4 -4  6.31  0.68
  3 -4 -4  5.59  0.22
 -3  4  4  6.44  0.79
 -3  2  5  15.83  1.07
  3 -2 -5  16.36  0.48
  3 -2 -5  15.61  0.86
 -3  2  5  16.29  1.08
  3 -2 -5  18.16  0.86
  3  0 -6  84.52  1.51
 -3  0  6  81.70  1.23
  3  2 -7  16.50  0.45
 -3 -2  7  16.42  0.86
 -3 -4  8  0.09  0.11
 -3 -6  9  0.32  0.18
 -3 -8 10  1.67  0.51
  3 -9 -1  3.74  0.75
  3 -7 -2  3.56  0.42
  3 -7 -2  3.98  0.66
  3 -5 -3  11.48  0.95
 -3  5  3  11.13  1.00
  3 -5 -3  11.07  0.95
 -3  3  4  2.81  0.48
  3 -3 -4  2.99  0.42
  3 -3 -4  3.48  0.41
 -3  3  4  2.94  0.49
  3 -3 -4  2.95  0.12
  3 -1 -5  0.21  0.10
  3 -1 -5  0.11  0.06
 -3  1  5  0.17  0.03
 -3 -1  6  52.37  1.42
  3  1 -6  54.65  1.10
 -3 -1  6  51.81  1.32
  3  3 -7  0.11  0.02
 -3 -3  7  0.18  0.10
  3  5 -8  0.16  0.05
 -3 -5  8  0.05  0.12
 -3 -7  9  15.36  1.39
  3 -10  0  -0.02  0.14
  3 -8 -1  15.92  1.46
  3 -8 -1  15.34  0.92
  3 -6 -2  73.49  2.54
  3 -6 -2  69.45  2.58
  3 -6 -2  64.50  1.60
 -3  4  3  1.20  0.32
  3 -4 -3  1.26  0.30
 -3  4  3  1.43  0.35
  3 -4 -3  1.02  0.11
  3 -4 -3  1.54  0.28
  3 -4 -3  1.13  0.30
  3 -2 -4  83.72  2.04
  3 -2 -4  82.95  1.85
  3  0 -5  5.15  0.40
 -3  0  5  5.55  0.51
 -3  0  5  6.58  0.36
  3  2 -6  0.87  0.11
 -3 -2  6  0.74  0.16
 -3 -2  6  0.74  0.18
 -3 -4  7  0.78  0.24
  3  4 -7  0.72  0.09
  3  6 -8  1.44  0.20
 -3 -6  8  1.78  0.45
 -3 -8  9  14.94  1.50
  3 -9  0  5.40  0.94
  3 -7 -1  11.20  1.14
  3 -7 -1  9.69  0.68
  3 -5 -2  6.86  0.74
  3 -5 -2  6.38  0.42
  3 -5 -2  7.04  0.77
  3 -3 -3  1.50  0.31
 -3  3  3  1.31  0.32
  3 -3 -3  1.34  0.26
  3 -3 -3  1.11  0.28
  3 -1 -4  12.70  0.70
 -3  1  4  11.56  0.23
  3 -1 -4  13.78  0.72
 -3 -1  5  0.10  0.05
 -3 -1  5  0.03  0.03
 -3 -3  6  6.35  0.63
  3  3 -6  6.02  0.24
 -3 -5  7  0.77  0.27
  3  5 -7  0.84  0.13
  3  7 -8  3.89  0.41
 -3 -7  8  3.65  0.70
  3 -10  1  1.29  0.47
  3 -8  0  9.34  0.71
  3 -8  0  12.06  1.32
  3 -6 -1  25.71  0.98
  3 -6 -1  27.30  1.66
  3 -4 -2  5.67  0.63
 -3  4  2  5.89  0.67
  3 -4 -2  5.17  0.63
 -3  4  2  4.94  0.65
  3 -4 -2  6.53  0.59
  3 -4 -2  5.20  0.29
  3 -2 -3  2.12  0.31
  3 -2 -3  2.09  0.32
  3 -2 -3  1.89  0.32
 -3  0  4  66.96  1.91
  3  0 -4  63.29  1.34
 -3  0  4  68.89  1.74
 -3  0  4  62.82  1.18
  3  2 -5  16.68  0.56
 -3 -2  5  16.94  0.68
  3  4 -6  4.20  0.24
 -3 -4  6  4.84  0.62
 -3 -6  7  7.94  0.51
  3  6 -7  10.05  0.58
 -3 -6  7  9.89  1.10
 -3 -8  8  6.05  0.98
  3 -9  1  2.54  0.39
  3 -9  1  3.00  0.73
  3 -7  0  1.98  0.30
  3 -7  0  2.48  0.55
  3 -5 -1  8.93  0.86
  3 -5 -1  8.67  0.87
  3 -5 -1  8.11  0.47
  3 -3 -2  15.66  0.99
  3 -3 -2  17.04  0.92
  3 -3 -2  15.44  0.99
  3 -1 -3  50.54  1.57
  3 -1 -3  47.51  1.38
 -3  1  3  45.49  0.57
 -3  1  3  50.33  1.63
 -3 -1  4  1.36  0.26
 -3 -1  4  1.36  0.22
  3  3 -5  1.54  0.15
  3  5 -6  8.04  0.42
 -3 -7  7  0.22  0.05
 -3 -9  8  3.57  0.80
  3 -10  2  4.30  0.93
  3 -8  1  1.14  0.24
  3 -8  1  0.85  0.38
  3 -6  0  28.12  1.68
  3 -6  0  27.96  1.74
  3 -6  0  24.47  0.94
  3 -4 -1  25.53  1.37
  3 -4 -1  22.94  1.31
  3 -4 -1  25.32  0.62
  3 -4 -1  26.22  1.19
  3 -2 -2  22.55  1.12
  3 -2 -2  22.19  1.08
 -3  0  3  2.01  0.33
  3  0 -3  1.96  0.25
 -3  0  3  1.89  0.29
 -3 -2  4  0.03  0.04
  3  2 -4  0.02  0.04
  3  4 -5  0.10  0.05
 -3 -6  6  13.58  0.71
 -3 -8  7  0.61  0.32
  3  8 -7  0.49  0.18
  3 -9  2  0.66  0.19
  3 -9  2  1.14  0.46
  3 -7  1  1.79  0.49
  3 -7  1  1.63  0.27
  3 -5  0  1.03  0.32
  3 -5  0  1.44  0.36
  3 -5  0  1.37  0.19
  3 -3 -1  26.46  1.31
  3 -3 -1  23.26  1.22
  3 -3 -1  23.56  0.31
  3 -3 -1  27.41  1.17
  3 -1 -2  33.41  1.27
 -3  1  2  31.24  1.25
  3 -1 -2  32.06  1.15
 -3  1  2  31.91  0.49
 -3 -1  3  2.73  0.35
 -3 -1  3  2.79  0.30
  3  3 -4  24.96  0.67
 -3 -5  5  11.69  0.63
 -3 -7  6  21.28  0.97
  3  7 -6  21.97  1.04
 -3 -9  7  3.71  0.82
  3 -10  3  4.45  0.96
  3 -8  2  0.08  0.16
  3 -8  2  -0.12  0.10
  3 -6  1  5.45  0.77
  3 -6  1  5.76  0.45
  3 -4  0  0.48  0.19
  3 -4  0  0.39  0.17
  3 -4  0  0.55  0.09
  3 -4  0  0.34  0.12
  3 -2 -1  3.21  0.43
 -3  2  1  3.33  0.44
 -3  2  1  3.27  0.18
  3 -2 -1  3.52  0.44
  3  0 -2  4.41  0.42
 -3  0  2  4.87  0.50
  3  0 -2  4.69  0.37
 -3  0  2  4.80  0.43
 -3 -2  3  5.94  0.49
  3  2 -3  6.52  0.38
 -3 -2  3  6.21  0.38
 -3 -4  4  11.04  0.59
  3  4 -4  9.75  0.44
  3  6 -5  0.94  0.18
 -3 -6  5  1.17  0.22
  3  8 -6  14.37  0.94
 -3 -8  6  16.15  1.64
  3 -9  3  0.16  0.20
  3 -9  3  0.02  0.01
  3 -7  2  0.20  0.16
  3 -7  2  0.37  0.13
  3 -5  1  4.97  0.69
  3 -5  1  5.09  0.67
  3 -5  1  5.26  0.37
  3 -5  1  4.75  0.51
  3 -3  0  8.20  0.74
  3 -3  0  8.80  0.76
  3 -3  0  8.65  0.24
 -3  3  0  9.09  0.47
  3 -1 -1  13.51  0.83
 -3  1  1  12.75  0.82
 -3  1  1  13.15  0.78
  3 -1 -1  13.43  0.75
  3  1 -2  1.11  0.20
 -3 -1  2  1.05  0.18
 -3 -1  2  1.09  0.22
  3  1 -2  0.94  0.13
 -3 -3  3  7.38  0.52
  3  3 -3  6.78  0.38
 -3 -3  3  7.14  0.34
 -3 -5  4  23.19  0.92
  3  7 -5  40.10  1.41
 -3 -9  6  0.90  0.36
  3 -10  4  -0.01  0.16
  3 -8  3  5.90  0.55
  3 -8  3  7.33  1.08
  3 -6  2  5.25  0.77
  3 -6  2  4.44  0.39
  3 -4  1  12.90  1.01
  3 -4  1  12.40  0.45
  3 -4  1  13.31  1.03
  3 -2  0  37.67  1.47
  3 -2  0  39.18  0.64
  3 -2  0  36.04  1.40
 -3  2  0  38.03  0.66
  3  0 -1  11.89  0.70
 -3  0  1  12.38  0.75
 -3  0  1  11.76  0.65
  3  0 -1  12.03  0.61
 -3 -2  2  2.57  0.32
  3  2 -2  2.79  0.26
 -3 -2  2  2.70  0.24
 -3 -4  3  41.52  1.14
 -3 -4  3  40.49  1.20
 -3 -6  4  15.53  0.69
 -3 -6  4  15.82  0.83
  3  6 -4  14.69  0.75
  3  8 -5  27.54  1.35
  3 -9  4  0.37  0.26
  3 -9  4  0.12  0.05
  3 -7  3  12.36  1.29
  3 -7  3  12.04  0.73
  3 -5  2  16.19  1.22
  3 -5  2  15.07  0.64
  3 -5  2  14.57  1.19
  3 -5  2  14.78  0.89
  3 -3  1  5.61  0.62
  3 -3  1  5.05  0.21
 -3  3 -1  5.58  0.40
  3 -3  1  4.21  0.53
  3 -1  0  2.17  0.33
  3 -1  0  2.12  0.30
 -3  1  0  2.49  0.15
  3  1 -1  6.61  0.48
 -3 -1  1  6.58  0.51
  3  1 -1  7.13  0.46
  3  1 -1  7.23  0.36
 -3 -1  1  6.70  0.42
 -3 -3  2  3.31  0.32
 -3 -3  2  2.85  0.31
 -3 -3  2  3.33  0.23
 -3 -5  3  0.00  0.02
  3  5 -3  -0.03  0.02
  3  7 -4  0.17  0.10
  3  9 -5  0.67  0.24
  3 -10  5  1.27  0.52
  3 -10  5  1.25  0.27
  3 -8  4  1.41  0.48
  3 -8  4  1.61  0.28
  3 -6  3  10.01  0.59
  3 -6  3  10.87  1.14
  3 -4  2  43.85  1.91
  3 -4  2  42.55  0.86
 -3  4 -2  45.57  1.46
  3 -2  1  0.29  0.13
  3 -2  1  0.54  0.19
  3 -2  1  0.41  0.08
 -3  2 -1  0.40  0.08
  3  0  0 106.42  2.18
 -3  0  0 105.64  1.53
  3  0  0 106.12  1.91
 -3 -2  1 286.48  3.01
  3  2 -1 288.16  2.73
 -3 -2  1 281.66  2.10
 -3 -4  2  3.17  0.27
 -3 -4  2  3.00  0.34
  3  4 -2  3.01  0.28
 -3 -4  2  2.58  0.17
  3  6 -3  16.82  0.83
  3  8 -4  15.53  1.02
  3 -9  5  9.07  1.30
  3 -9  5  7.93  0.67
  3 -7  4  0.77  0.29
  3 -7  4  0.65  0.15
  3 -5  3  3.80  0.61
  3 -5  3  3.48  0.30
  3 -5  3  3.29  0.42
  3 -3  2  2.12  0.39
  3 -3  2  2.21  0.16
 -3  3 -2  2.12  0.25
  3 -1  1  38.19  1.44
 -3  1 -1  40.36  0.65
  3 -1  1  36.76  1.28
  3 -1  1  36.49  0.93
  3  1  0  20.78  0.88
  3  1  0  21.78  0.83
  3  1  0  20.68  0.63
 -3 -3  1  3.62  0.37
 -3 -5  2  0.21  0.07
  3  5 -2  0.30  0.11
 -3 -5  2  0.21  0.10
  3  7 -3  0.10  0.11
 -3 -7  3  -0.01  0.04
  3  9 -4  0.15  0.14
  3 -10  6  0.28  0.11
  3 -8  5  1.55  0.50
  3 -8  5  1.51  0.28
  3 -6  4  55.51  1.39
  3 -4  3  9.80  0.42
 -3  4 -3  9.74  0.71
  3 -2  2  1.06  0.13
 -3  2 -2  1.01  0.13
  3  0  1  22.81  1.03
 -3  0 -1  22.94  0.71
  3  0  1  23.28  0.90
  3  2  0  15.84  0.63
  3  4 -1  1.24  0.19
 -3 -4  1  0.87  0.19
  3  6 -2  10.90  0.70
 -3 -6  2  9.44  0.42
  3  8 -3  4.11  0.54
  3 -9  6  1.34  0.51
  3 -9  6  1.23  0.26
  3 -7  5  8.25  0.60
 -3  5 -4  1.54  0.34
  3 -5  4  1.41  0.20
  3 -3  3  6.57  0.29
 -3  3 -3  6.21  0.45
  3 -1  2  0.70  0.16
 -3  1 -2  0.84  0.12
  3  1  1  17.35  0.82
 -3 -1 -1  16.56  0.74
  3  1  1  17.75  0.63
 -3 -3  0  13.31  0.75
  3  3  0  13.58  0.65
  3  5 -1  0.44  0.13
  3  7 -2  3.67  0.45
  3  9 -3  0.02  0.08
  3 -10  7  5.58  0.58
  3 -8  6  1.29  0.26
  3 -6  5  4.89  0.42
  3 -4  4  56.08  1.05
 -3  2 -3  12.32  0.51
  3 -2  3  12.44  0.47
 -3  0 -2  60.56  1.14
  3  2  1  31.03  0.97
  3  2  1  30.34  0.99
  3  4  0  0.10  0.08
 -3 -4  0  0.13  0.08
  3  6 -1  0.79  0.20
  3  8 -2  0.55  0.17
  3 -9  7  3.61  0.44
  3 -7  6  0.05  0.05
  3 -5  5  4.85  0.36
 -3  5 -5  5.55  0.66
  3 -3  4  2.83  0.21
  3 -1  3  0.12  0.05
  3  1  2  11.82  0.72
 -3 -3 -1  9.24  0.65
  3  3  1  9.19  0.55
  3  5  0  1.60  0.25
  3  7 -1  1.43  0.29
  3  9 -2  0.16  0.15
  3 -10  8  12.24  0.86
  3 -8  7  1.54  0.28
  3 -6  6  18.06  0.81
  3 -4  5  0.45  0.10
 -3  4 -5  0.52  0.19
  3 -2  4  0.55  0.11
  3  0  3  9.37  0.61
  3  2  2  7.06  0.50
 -3 -2 -2  6.93  0.57
  3  2  2  6.69  0.47
 -3 -2 -2  5.95  0.51
  3  4  1  0.99  0.20
  3  6  0  13.46  0.83
  3  8 -1  0.21  0.09
  3 -9  8  6.61  0.60
  3 -7  7  0.99  0.20
  3 -5  6  -0.01  0.02
  3 -3  5  10.16  0.44
 -3  3 -5  9.89  0.63
  3 -1  4  0.30  0.09
 -3  1 -4  0.30  0.08
  3  1  3  2.31  0.30
 -3 -1 -3  2.29  0.27
  3  3  2  1.61  0.17
 -3 -3 -2  1.93  0.32
  3  3  2  2.06  0.27
  3  5  1  0.53  0.15
  3  7  0  7.54  0.69
  3  9 -1  1.31  0.36
  3 -8  8  2.64  0.35
  3 -6  7  1.57  0.23
  3 -4  6  5.70  0.36
 -3  4 -6  5.62  0.58
 -3  2 -5  6.30  0.43
  3 -2  5  6.32  0.40
 -3  0 -4  0.09  0.05
  3  0  4  0.12  0.07
 -3 -2 -3  9.16  0.68
  3  2  3  9.47  0.58
 -3 -2 -3  8.90  0.61
  3  4  2  26.62  1.02
  3  6  1  0.02  0.06
  3  8  0  2.87  0.49
  3 -9  9  8.08  0.65
  3 -7  8  2.03  0.28
  3 -5  7  0.40  0.12
  3 -3  6  8.16  0.43
 -3  3 -6  8.03  0.61
  3 -1  5  7.48  0.58
  3 -1  5  7.07  0.50
 -3  1 -5  7.80  0.42
  3  1  4  39.52  1.22
 -3 -1 -4  41.26  1.11
  3  3  3  0.14  0.07
  3  3  3  0.10  0.07
  3  5  2  0.11  0.07
  3  7  1  2.79  0.43
  3 -8  9  3.14  0.38
  3 -6  8  1.78  0.25
  3 -4  7  2.13  0.23
  3 -2  6  7.10  0.58
  3 -2  6  6.83  0.46
 -3  2 -6  6.81  0.49
 -3  0 -5  0.62  0.12
  3  0  5  0.49  0.14
  3  2  4  5.78  0.47
  3  4  3  17.21  0.86
  3  6  2  1.02  0.25
  3  8  1  0.95  0.29
  3 -9 10  1.75  0.29
  3 -7  9  0.34  0.13
  3 -5  8  0.25  0.10
  3 -3  7  0.43  0.11
  3 -1  6  36.10  1.25
 -3  1 -6  34.62  0.96
  3  1  5  0.18  0.09
  3  3  4  0.73  0.18
  3  3  4  0.57  0.09
  3  5  3  0.19  0.13
  3  7  2  2.44  0.42
  3 -8 10  0.18  0.06
  3 -6  9  0.04  0.05
  3 -4  8  0.14  0.08
  3 -2  7  1.26  0.22
  3 -2  7  1.26  0.25
  3  0  6  1.04  0.21
  3  0  6  0.89  0.22
  3  2  5  95.80  2.02
  3  2  5  85.72  1.36
  3  4  4  32.38  1.21
  3  6  3  1.41  0.31
  3 -7 10  0.26  0.10
  3 -5  9  0.09  0.09
  3 -3  8  14.07  0.85
  3 -3  8  15.13  0.71
  3 -1  7  2.59  0.34
  3 -1  7  2.09  0.32
  3  1  6  5.22  0.47
  3  3  5  0.43  0.13
  3  3  5  0.46  0.12
  3  5  4  15.30  0.93
  3  7  3  0.44  0.20
  3 -8 11  -0.06  0.06
  3 -6 10  0.57  0.15
  3 -4  9  0.65  0.18
  3 -4  9  0.92  0.18
  3 -2  8  2.48  0.35
  3 -2  8  2.70  0.34
  3  0  7  1.24  0.23
  3  0  7  1.04  0.23
  3  2  6  21.06  0.95
  3  2  6  19.18  0.73
  3  4  5  46.78  1.55
  3  6  4  0.26  0.16
  3 -7 11  0.20  0.09
  3 -5 10  -0.04  0.08
  3 -5 10  0.16  0.09
  3 -3  9  14.61  0.85
  3 -3  9  13.10  0.72
  3 -1  8  0.31  0.14
  3 -1  8  0.38  0.13
  3  1  7  0.31  0.12
  3  3  6  13.31  0.79
  3  5  5  2.79  0.42
  3 -6 11  0.55  0.20
  3 -6 11  0.87  0.21
  3 -4 10  5.39  0.47
  3 -4 10  5.30  0.54
  3 -2  9  13.15  0.78
  3 -2  9  12.98  0.82
  3  0  8  2.86  0.35
  3  0  8  2.54  0.40
  3  2  7  6.66  0.55
  3  2  7  6.01  0.46
  3  4  6  0.97  0.24
  3  6  5  0.04  0.10
  3 -7 12  0.13  0.08
  3 -5 11  1.11  0.23
  3 -5 11  1.29  0.27
  3 -3 10  0.07  0.08
  3 -3 10  0.23  0.14
  3 -1  9  1.17  0.23
  3 -1  9  0.95  0.23
  3  1  8  13.58  0.80
  3  3  7  1.03  0.24
  3  5  6  0.14  0.08
  3 -6 12  0.74  0.20
  3 -4 11  3.31  0.42
  3 -4 11  3.04  0.39
  3 -2 10  0.49  0.15
  3 -2 10  0.64  0.21
  3  0  9  2.87  0.37
  3  2  8  0.64  0.19
  3  4  7  2.80  0.41
  3 -5 12  8.35  0.66
  3 -5 12  7.00  0.59
  3 -3 11  0.10  0.06
  3 -3 11  0.41  0.19
  3 -1 10  0.42  0.15
  3 -1 10  0.49  0.19
  3  1  9  0.23  0.13
  3  3  8  2.21  0.36
  3  5  7  2.21  0.41
  3 -4 12  4.81  0.49
  3 -4 12  5.08  0.55
  3 -2 11  0.29  0.13
  3 -2 11  0.26  0.15
  3  0 10  0.11  0.09
  3  2  9  0.68  0.19
  3  4  8  0.32  0.15
  3 -3 12  -0.02  0.02
  3 -3 12  0.09  0.11
  3 -1 11  3.92  0.44
  3 -1 11  3.67  0.55
  3  1 10  1.65  0.29
  3  3  9  0.11  0.11
  3 -4 13  0.35  0.16
  3 -2 12  0.11  0.08
  3 -2 12  0.07  0.04
  3  0 11  0.82  0.21
  3  2 10  5.14  0.56
  3 -3 13  1.73  0.30
  3 -3 13  1.20  0.31
  3 -1 12  3.62  0.43
  3 -1 12  3.23  0.55
  3  1 11  0.01  0.05
  3  3 10  0.19  0.11
  3 -2 13  1.63  0.29
  3  0 12  0.16  0.10
  3  2 11  0.93  0.24
  3 -1 13  1.73  0.30
  3  1 12  0.21  0.13
  3  0 13  3.60  0.47
 -4  3 14  2.87  0.71
 -4 -3 17  7.48  0.56
 -4  4 13  2.18  0.63
 -4  2 14  2.39  0.62
 -4  0 15  0.39  0.29
 -4 -2 16  7.14  0.53
 -4  5 12  16.04  1.75
 -4  3 13  3.57  0.76
 -4  1 14  3.55  0.73
 -4 -1 15  14.02  0.73
 -4 -3 16  0.92  0.20
 -4  4 12  1.06  0.41
 -4  2 13  3.31  0.70
 -4  0 14  9.48  0.63
 -4 -2 15  12.15  0.65
 -4 -4 16  0.25  0.11
 -4  5 11  12.61  1.52
 -4  3 12  0.83  0.38
 -4  1 13  4.04  0.76
 -4  1 13  4.05  0.44
 -4 -1 14  0.37  0.12
 -4 -3 15  2.19  0.31
 -4  6 10  0.03  0.12
 -4  4 11  16.63  1.61
 -4  2 12  1.49  0.46
 -4  0 13  17.09  0.74
 -4 -2 14  4.16  0.37
 -4 -4 15  0.27  0.11
 -4  5 10  0.06  0.15
 -4  3 11  9.25  1.13
 -4  1 12  8.98  1.08
 -4  1 12  9.76  0.62
 -4 -1 13  1.00  0.17
 -4 -3 14  -0.04  0.09
 -4 -5 15  0.21  0.12
 -4  6  9  2.24  0.62
 -4  4 10  -0.10  0.19
 -4  2 11  9.60  1.11
 -4  0 12  5.36  0.37
 -4 -2 13  2.02  0.26
 -4 -4 14  9.93  0.76
  4 -7 -8  1.37  0.34
 -4  5  9  0.10  0.13
 -4  3 10  2.59  0.59
 -4  1 11  3.80  0.67
 -4  1 11  3.50  0.34
  4 -1 -11  3.52  0.35
  4 -1 -11  3.72  0.50
 -4 -1 12  12.43  0.57
 -4 -3 13  1.45  0.28
 -4 -5 14  3.67  0.52
 -4  6  8  2.08  0.56
  4 -6 -8  2.32  0.45
 -4  4  9  0.07  0.07
  4 -2 -10  24.52  1.09
 -4  2 10  23.55  1.68
 -4  0 11  21.89  0.66
  4  0 -11  23.92  1.36
 -4 -2 12  0.11  0.06
 -4 -4 13  0.18  0.12
 -4 -6 14  1.41  0.35
 -4  7  7  0.10  0.19
  4 -7 -7  0.27  0.17
 -4  5  8  9.36  1.16
  4 -5 -8  7.76  0.76
 -4  3  9  1.83  0.49
 -4  1 10  7.45  0.91
  4 -1 -10  6.66  0.48
 -4  1 10  6.88  0.41
  4 -1 -10  7.02  0.63
 -4 -1 11  3.17  0.29
  4  1 -11  3.31  0.24
 -4 -3 12  5.97  0.56
 -4 -5 13  2.08  0.40
  4 -8 -6  1.35  0.39
  4 -6 -7  0.64  0.25
 -4  6  7  1.03  0.41
 -4  4  8  0.62  0.27
  4 -4 -8  0.76  0.23
 -4  2  9  20.69  1.51
  4 -2 -9  20.21  0.90
 -4  0 10  7.30  0.87
  4  0 -10  7.45  0.45
 -4  0 10  7.27  0.36
  4  0 -10  7.30  0.70
  4  2 -11  2.50  0.13
 -4 -2 11  6.66  0.52
 -4 -4 12  0.29  0.15
 -4 -6 13  1.28  0.35
 -4  7  6  11.61  1.31
  4 -7 -6  9.85  1.00
 -4  5  7  0.01  0.08
  4 -5 -7  -0.03  0.04
 -4  3  8  0.04  0.07
  4 -3 -8  0.16  0.14
  4 -3 -8  0.10  0.05
  4 -1 -9  25.66  0.94
 -4  1  9  22.87  0.64
  4 -1 -9  24.14  1.09
 -4  1  9  25.99  1.63
  4  1 -10  3.58  0.26
 -4 -1 10  3.51  0.33
 -4 -3 11  19.81  1.05
 -4 -5 12  2.18  0.41
 -4 -7 13  2.98  0.58
  4 -8 -5  4.60  0.74
 -4  6  6  1.56  0.46
  4 -6 -6  1.90  0.42
 -4  4  7  31.84  1.97
  4 -4 -7  28.72  1.44
  4 -4 -7  29.07  0.65
 -4  2  8  2.86  0.54
  4 -2 -8  2.97  0.36
  4 -2 -8  3.06  0.31
 -4  0  9  0.67  0.26
  4  0 -9  0.62  0.14
 -4  0  9  0.61  0.10
  4  2 -10  8.83  0.28
 -4 -2 10  10.37  0.68
 -4 -4 11  22.86  1.26
 -4 -6 12  0.20  0.11
  4 -9 -4  3.68  0.73
  4 -7 -5  0.24  0.18
 -4  5  6  4.90  0.78
  4 -5 -6  4.37  0.60
  4 -3 -7  84.84  2.27
  4 -3 -7  81.32  1.17
 -4  1  8  4.46  0.65
  4 -1 -8  4.99  0.43
 -4  1  8  4.22  0.22
  4  1 -9  0.45  0.10
 -4 -1  9  0.60  0.14
 -4 -3 10  12.92  0.87
 -4 -5 11  6.52  0.76
 -4 -7 12  1.10  0.35
  4 -8 -4  1.21  0.42
 -4  6  5  0.72  0.31
  4 -6 -5  0.47  0.23
 -4  4  6  2.21  0.51
  4 -4 -6  1.89  0.37
 -4  2  7  28.12  1.67
  4 -2 -7  25.98  1.16
  4 -2 -7  29.92  1.18
 -4  0  8  4.26  0.62
  4  0 -8  4.14  0.37
 -4  0  8  3.74  0.27
  4  2 -9  4.39  0.26
 -4 -2  9  3.93  0.43
 -4 -4 10  0.70  0.25
 -4 -6 11  1.98  0.47
  4 -9 -3  -0.02  0.11
  4 -7 -4  2.28  0.52
 -4  5  5  23.02  1.64
  4 -5 -5  23.42  1.45
 -4  3  6  1.23  0.36
  4 -3 -6  0.91  0.24
  4 -1 -7  11.75  0.70
 -4  1  7  11.12  0.30
 -4 -1  8  6.44  0.73
 -4 -1  8  6.80  0.65
  4  1 -8  6.30  0.41
 -4 -1  8  6.44  0.48
  4  3 -9  6.20  0.19
 -4 -3  9  6.09  0.62
 -4 -5 10  1.91  0.42
 -4 -7 11  0.24  0.19
  4 -8 -3  18.10  1.55
 -4  6  4  7.83  0.98
  4 -6 -4  7.50  0.88
  4 -6 -4  7.21  0.34
 -4  4  5  30.42  1.80
  4 -4 -5  29.30  1.53
 -4  2  6  7.49  0.83
  4 -2 -6  7.79  0.66
  4 -2 -6  8.57  0.66
 -4  0  7  13.42  1.05
 -4  0  7  13.82  0.98
 -4  0  7  12.68  0.52
  4  0 -7  12.77  0.69
 -4 -2  8  10.98  0.76
 -4 -2  8  11.18  0.76
  4  2 -8  12.19  0.52
 -4 -4  9  0.08  0.11
 -4 -6 10  0.86  0.30
  4 -9 -2  5.09  0.90
  4 -7 -3  0.63  0.27
 -4  5  4  10.74  1.10
  4 -5 -4  10.46  0.97
 -4  3  5  26.89  1.65
  4 -3 -5  27.50  1.39
  4 -3 -5  29.81  1.31
  4 -1 -6  0.14  0.06
 -4  1  6  0.25  0.16
  4 -1 -6  0.24  0.10
 -4  1  6  0.09  0.03
 -4  1  6  0.14  0.11
 -4 -1  7  8.16  0.79
 -4 -1  7  8.14  0.70
 -4 -1  7  7.54  0.55
  4  3 -8  11.06  0.37
 -4 -3  8  10.84  0.71
 -4 -3  8  10.67  0.85
  4  5 -9  0.36  0.06
 -4 -5  9  0.57  0.22
 -4 -7 10  0.06  0.13
  4 -8 -2  26.64  1.94
  4 -6 -3  0.89  0.12
  4 -6 -3  1.41  0.14
  4 -6 -3  1.72  0.40
 -4  4  4  7.10  0.84
  4 -4 -4  7.68  0.78
 -4  2  5  2.65  0.51
  4 -2 -5  2.37  0.37
 -4  2  5  2.22  0.44
  4 -2 -5  2.75  0.39
 -4  0  6  36.69  1.70
 -4  0  6  33.38  1.49
 -4  0  6  34.86  0.93
 -4 -2  7  15.08  0.86
 -4 -2  7  14.80  0.90
  4  4 -8  10.15  0.33
 -4 -4  8  9.49  0.91
 -4 -6  9  11.60  1.20
 -4 -8 10  -0.04  0.08
  4 -9 -1  -0.01  0.05
  4 -7 -2  0.08  0.15
 -4  5  3  34.56  1.91
  4 -5 -3  35.13  1.81
  4 -3 -4  21.16  1.28
 -4  3  4  19.86  1.37
  4 -3 -4  20.63  1.19
 -4  3  4  19.89  1.38
  4 -3 -4  23.89  1.20
 -4  1  5  18.39  1.23
  4 -1 -5  17.78  0.91
 -4  1  5  19.11  1.19
 -4  1  5  17.62  0.38
 -4 -1  6  8.29  0.78
 -4 -1  6  8.81  0.69
 -4 -1  6  7.39  0.55
 -4 -3  7  0.94  0.27
  4  3 -7  0.93  0.12
 -4 -3  7  0.97  0.21
  4  5 -8  6.07  0.32
 -4 -5  8  6.90  0.87
 -4 -7  9  1.02  0.36
  4 -8 -1  10.57  1.25
  4 -6 -2  10.14  1.04
  4 -6 -2  11.45  0.42
  4 -4 -3  7.45  0.79
 -4  4  3  6.70  0.81
  4 -4 -3  6.99  0.76
  4 -2 -4  21.89  1.24
 -4  2  4  22.10  1.42
 -4  2  4  21.22  1.32
  4 -2 -4  20.02  1.09
  4 -2 -4  23.09  1.16
 -4  0  5  2.69  0.45
  4  0 -5  2.54  0.30
 -4  0  5  2.76  0.42
 -4  0  5  2.43  0.26
 -4 -2  6  0.46  0.14
 -4 -2  6  0.69  0.23
 -4 -2  6  0.76  0.19
 -4 -4  7  0.26  0.09
  4  4 -7  0.35  0.07
 -4 -4  7  0.39  0.13
  4  6 -8  4.70  0.36
 -4 -6  8  4.69  0.78
 -4 -8  9  0.44  0.32
  4 -9  0  0.74  0.36
  4 -7 -1  15.41  1.41
  4 -7 -1  15.72  0.62
  4 -5 -2  16.69  1.26
  4 -5 -2  15.85  0.30
  4 -3 -3  3.92  0.54
 -4  3  3  3.52  0.57
  4 -3 -3  3.14  0.48
 -4  3  3  3.60  0.57
  4 -3 -3  4.03  0.50
  4 -1 -4  36.67  1.52
  4 -1 -4  34.47  1.30
 -4  1  4  35.35  1.58
 -4  1  4  32.33  0.64
 -4 -1  5  3.15  0.47
 -4 -1  5  2.93  0.39
 -4 -3  6  2.00  0.36
  4  3 -6  1.70  0.19
 -4 -3  6  1.72  0.26
  4  5 -7  3.75  0.28
 -4 -5  7  3.84  0.66
 -4 -7  8  0.17  0.12
  4 -8  0  8.41  1.13
  4 -6 -1  21.39  1.56
  4 -6 -1  21.53  0.60
  4 -4 -2  0.32  0.18
 -4  4  2  0.21  0.13
  4 -4 -2  0.32  0.19
  4 -2 -3  19.72  1.16
 -4  2  3  19.62  1.24
  4 -2 -3  19.21  1.09
 -4  0  4  0.76  0.25
  4  0 -4  0.70  0.18
 -4  0  4  0.53  0.19
 -4 -2  5  4.92  0.57
  4  2 -5  4.85  0.38
 -4 -2  5  5.07  0.49
 -4 -4  6  7.26  0.67
  4  4 -6  7.36  0.38
 -4 -4  6  7.53  0.49
 -4 -6  7  14.37  1.40
 -4 -8  8  2.47  0.66
  4 -9  1  2.42  0.65
  4 -7  0  24.26  1.80
  4 -7  0  25.24  0.81
  4 -5 -1  1.92  0.13
  4 -5 -1  1.35  0.36
  4 -3 -2  3.22  0.49
 -4  3  2  3.38  0.55
  4 -3 -2  3.55  0.51
 -4  3  2  3.66  0.57
  4 -1 -3  6.28  0.62
 -4  1  3  6.35  0.70
  4 -1 -3  6.28  0.56
 -4  1  3  6.40  0.66
 -4 -1  4  78.66  2.30
 -4 -1  4  77.86  1.99
 -4 -3  5  40.82  1.56
  4  3 -5  39.91  0.99
 -4 -3  5  38.46  1.18
 -4 -5  6  52.39  1.77
 -4 -7  7  0.64  0.30
  4  7 -7  0.65  0.17
  4 -8  1  0.18  0.07
  4 -8  1  0.42  0.27
  4 -6  0  6.29  0.87
  4 -6  0  6.57  0.35
  4 -4 -1  1.48  0.37
  4 -4 -1  1.62  0.10
  4 -4 -1  1.50  0.36
 -4  2  2  0.21  0.14
  4 -2 -2  0.28  0.16
  4 -2 -2  0.14  0.09
 -4  2  2  0.19  0.03
  4  0 -3  3.38  0.43
 -4  0  3  3.41  0.50
  4  0 -3  3.56  0.37
 -4  0  3  3.55  0.45
 -4 -2  4  1.86  0.34
  4  2 -4  1.79  0.24
 -4 -2  4  1.73  0.27
 -4 -4  5  23.95  1.16
 -4 -4  5  22.58  0.82
 -4 -6  6  58.58  1.81
  4  6 -6  50.50  1.30
 -4 -8  7  5.53  1.00
  4 -9  2  1.20  0.50
  4 -7  1  5.75  0.89
  4 -7  1  5.20  0.38
  4 -5  0  5.72  0.77
  4 -5  0  6.62  0.27
  4 -3 -1  16.33  1.15
  4 -3 -1  15.55  1.08
  4 -1 -2  63.59  1.98
 -4  1  2  63.17  2.14
 -4  1  2  63.70  0.89
  4 -1 -2  64.08  1.81
 -4  1  2  64.23  2.04
 -4 -1  3  0.19  0.08
  4  1 -3  0.45  0.11
 -4 -1  3  0.46  0.14
 -4 -3  4  15.65  0.94
 -4 -3  4  15.76  0.74
 -4 -5  5  41.71  1.47
  4  5 -5  39.11  1.03
 -4 -5  5  39.45  1.02
  4  7 -6  1.32  0.24
  4 -8  2  2.83  0.70
  4 -8  2  2.59  0.29
  4 -6  1  5.68  0.84
  4 -6  1  5.59  0.34
  4 -4  0  1.99  0.43
  4 -4  0  2.03  0.43
  4 -4  0  2.08  0.13
  4 -2 -1  18.83  1.17
  4 -2 -1  16.85  1.04
 -4  2  1  16.70  0.39
  4  0 -2  31.03  1.31
 -4  0  2  32.26  1.46
  4  0 -2  31.57  1.14
 -4  0  2  31.37  1.33
 -4 -2  3  0.10  0.07
 -4 -2  3  0.14  0.07
 -4 -4  4  27.49  1.18
 -4 -4  4  26.81  0.86
 -4 -6  5  24.61  1.05
  4  6 -5  22.20  0.89
  4  8 -6  0.37  0.14
  4 -9  3  10.97  1.47
  4 -7  2  1.22  0.42
  4 -7  2  1.55  0.21
  4 -5  1  0.12  0.14
  4 -5  1  0.04  0.03
  4 -3  0  56.25  2.16
  4 -3  0  54.92  0.90
  4 -3  0  52.51  2.02
 -4  3  0  54.64  1.13
 -4  1  1  9.18  0.35
  4 -1 -1  6.88  0.68
 -4  1  1  7.82  0.73
  4 -1 -1  6.74  0.60
  4  1 -2  2.65  0.35
 -4 -1  2  3.07  0.42
  4  1 -2  2.73  0.26
 -4 -1  2  2.58  0.34
 -4 -3  3  2.71  0.38
 -4 -3  3  2.94  0.30
 -4 -5  4  0.09  0.07
 -4 -5  4  0.02  0.04
  4  5 -4  0.13  0.08
  4  7 -5  0.07  0.06
  4 -8  3  39.17  2.58
  4 -8  3  36.51  1.12
  4 -6  2  3.41  0.27
  4 -6  2  3.74  0.68
  4 -4  1  0.19  0.12
  4 -4  1  0.13  0.09
  4 -4  1  0.12  0.04
 -4  4 -1  0.11  0.06
  4 -2  0  13.19  1.00
  4 -2  0  12.27  0.91
 -4  2  0  12.48  0.39
  4  0 -1 100.61  2.37
 -4  0  1  96.38  2.47
  4  0 -1 102.36  2.07
 -4 -2  2  1.49  0.28
 -4 -2  2  1.66  0.23
 -4 -4  3  13.06  0.75
  4  4 -3  13.22  0.64
 -4 -4  3  12.83  0.54
 -4 -6  4  0.11  0.06
 -4 -6  4  0.02  0.01
  4  6 -4  0.12  0.07
  4  8 -5  -0.07  0.10
  4 -9  4  5.58  1.04
  4 -7  3  1.46  0.46
  4 -7  3  1.62  0.21
  4 -5  2  5.74  0.30
  4 -5  2  5.55  0.79
  4 -3  1  1.48  0.34
  4 -3  1  1.92  0.41
  4 -3  1  2.10  0.19
 -4  3 -1  1.99  0.23
  4 -1  0  27.04  1.36
 -4  1  0  27.42  0.62
  4 -1  0  24.56  1.21
  4  1 -1  10.86  0.73
 -4 -1  1  10.55  0.77
  4  1 -1  10.70  0.54
 -4 -3  2  1.90  0.29
  4  3 -2  2.10  0.27
 -4 -3  2  1.86  0.20
 -4 -5  3  3.97  0.35
 -4 -5  3  3.54  0.46
  4  5 -3  4.06  0.37
 -4 -5  3  3.27  0.23
  4  7 -4  0.03  0.03
  4 -8  4  4.40  0.39
  4 -8  4  4.95  0.93
  4 -6  3  17.90  0.64
  4 -6  3  18.07  1.53
  4 -4  2  14.90  0.45
  4 -4  2  13.06  1.13
 -4  4 -2  14.53  0.81
  4 -2  1  0.47  0.17
  4 -2  1  0.57  0.22
  4 -2  1  0.48  0.10
 -4  2 -1  0.57  0.09
  4  0  0  23.67  1.22
 -4  0  0  21.68  0.77
  4  0  0  23.46  1.01
  4  2 -1  0.09  0.07
  4  2 -1  0.04  0.01
  4  4 -2  4.12  0.38
  4  6 -3  0.86  0.19
  4  8 -4  1.83  0.36
  4 -9  5  3.18  0.79
  4 -9  5  2.96  0.34
  4 -7  4  0.18  0.08
  4 -7  4  0.13  0.06
  4 -5  3  14.85  0.51
  4 -5  3  14.08  1.28
  4 -3  2  9.47  0.93
  4 -3  2  9.31  0.89
 -4  3 -2  10.09  0.55
  4 -1  1  0.77  0.21
 -4  1 -1  0.98  0.12
  4 -1  1  0.94  0.26
  4  1  0  0.49  0.16
  4  1  0  0.73  0.17
  4  1  0  0.42  0.11
  4  3 -1  1.89  0.26
  4  5 -2  0.12  0.08
  4  7 -3  0.98  0.23
  4  9 -4  0.41  0.19
  4 -8  5  9.10  0.57
  4 -8  5  9.20  1.26
  4 -6  4  0.65  0.30
  4 -6  4  0.75  0.13
  4 -4  3  0.07  0.05
  4 -2  2  23.57  1.41
  4 -2  2  22.15  0.80
 -4  2 -2  22.15  0.63
  4 -2  2  21.66  1.25
  4  0  1  0.82  0.19
  4  0  1  0.73  0.22
  4  2  0  1.17  0.22
  4  2  0  1.31  0.23
  4  4 -1  0.88  0.18
  4  6 -2  0.55  0.17
  4  8 -3  1.23  0.30
  4 -9  6  0.42  0.32
  4 -9  6  0.27  0.10
  4 -7  5  2.50  0.63
  4 -7  5  2.46  0.28
  4 -5  4  3.85  0.28
 -4  5 -4  3.71  0.51
  4 -3  3  8.56  0.90
  4 -3  3  8.76  0.45
  4 -1  2  1.56  0.31
  4 -1  2  1.56  0.34
  4  1  1  0.14  0.11
 -4 -1 -1  0.11  0.05
  4  1  1  0.12  0.07
  4  1  1  0.07  0.03
  4  3  0  0.17  0.09
  4  5 -1  9.50  0.62
  4  7 -2  0.04  0.02
  4  9 -3  0.28  0.17
  4 -8  6  0.24  0.21
  4 -8  6  0.16  0.06
  4 -6  5  0.13  0.05
  4 -4  4  2.26  0.21
 -4  4 -4  2.30  0.35
  4 -2  3  4.26  0.61
  4 -2  3  4.05  0.36
  4  0  2  13.64  0.99
  4  0  2  13.48  0.82
 -4  0 -2  12.85  0.58
  4  0  2  12.03  0.79
  4  2  1  4.22  0.44
  4  2  1  3.42  0.38
  4  4  0  0.07  0.02
  4  6 -1  1.13  0.24
  4  8 -2  0.01  0.02
  4 -9  7  -0.05  0.07
  4 -7  6  0.16  0.08
  4 -5  5  0.49  0.11
 -4  5 -5  0.39  0.19
  4 -3  4  0.12  0.07
 -4  3 -4  0.08  0.06
  4 -1  3  33.75  1.65
 -4  1 -3  32.06  0.77
  4  1  2  1.76  0.34
 -4 -1 -2  1.91  0.27
  4  1  2  1.91  0.30
  4  1  2  1.88  0.26
  4  3  1  1.67  0.22
  4  3  1  1.98  0.29
  4  5  0  1.65  0.28
  4  7 -1  4.59  0.54
  4  9 -2  2.98  0.55
  4 -8  7  0.26  0.09
  4 -6  6  9.35  0.51
  4 -4  5  7.92  0.44
 -4  4 -5  7.60  0.66
  4 -2  4  1.48  0.23
 -4  2 -4  1.74  0.21
  4  0  3  1.19  0.30
  4  0  3  1.13  0.24
 -4  0 -3  1.07  0.17
  4  2  2  1.44  0.26
  4  2  2  1.24  0.24
  4  2  2  0.89  0.10
  4  4  1  0.16  0.10
  4  6  0  2.83  0.39
  4  8 -1  1.04  0.28
  4 -9  8  -0.13  0.09
  4 -7  7  0.62  0.14
  4 -5  6  0.43  0.11
  4 -3  5  4.08  0.36
 -4  3 -5  4.36  0.44
  4 -1  4  2.38  0.36
  4 -1  4  2.49  0.33
 -4  1 -4  2.63  0.24
  4  1  3  1.29  0.30
 -4 -1 -3  1.12  0.21
  4  1  3  0.99  0.21
  4  3  2  0.91  0.17
  4  3  2  1.01  0.21
  4  5  1  9.21  0.67
  4  7  0  0.11  0.10
  4 -8  8  2.36  0.30
  4 -6  7  1.90  0.24
  4 -4  6  3.73  0.33
  4 -2  5  5.14  0.46
 -4  2 -5  4.72  0.39
  4  0  4  45.66  1.52
 -4  0 -4  43.85  1.03
  4  2  3  38.10  1.47
  4  2  3  35.68  1.29
  4  4  2  0.05  0.06
  4  6  1  0.51  0.18
  4  8  0  1.58  0.37
  4 -9  9  0.35  0.12
  4 -7  8  0.36  0.12
  4 -5  7  4.86  0.39
  4 -3  6  0.63  0.16
  4 -1  5  3.45  0.45
  4 -1  5  3.44  0.42
  4  1  4  0.11  0.09
  4  3  3  17.05  0.81
  4  3  3  16.52  0.88
  4  5  2  0.08  0.09
  4  7  1  0.01  0.02
  4 -8  9  0.79  0.17
  4 -6  8  0.54  0.13
  4 -4  7  0.98  0.19
  4 -2  6  -0.07  0.09
  4 -2  6  0.04  0.03
  4  0  5 123.82  2.49
  4  2  4  88.85  2.40
  4  2  4  80.41  1.98
  4  4  3  1.26  0.25
  4  6  2  4.19  0.52
  4 -7  9  0.10  0.05
  4 -5  8  0.49  0.14
  4 -3  7  0.70  0.18
  4 -1  6  2.27  0.37
  4 -1  6  1.90  0.33
  4  1  5  1.89  0.31
  4  3  4  2.57  0.34
  4  3  4  2.36  0.34
  4  5  3  0.03  0.03
  4  7  2  11.88  0.98
  4 -8 10  1.53  0.25
  4 -6  9  0.13  0.08
  4 -4  8  4.80  0.44
  4 -2  7  0.25  0.13
  4 -2  7  0.31  0.13
  4  0  6  26.30  1.16
  4  2  5  22.96  1.08
  4  4  4  2.23  0.35
  4  6  3  0.11  0.09
  4 -7 10  0.04  0.05
  4 -5  9  4.68  0.45
  4 -3  8  2.48  0.41
  4 -3  8  2.36  0.35
  4 -1  7  -0.18  0.13
  4 -1  7  0.03  0.04
  4  1  6  0.17  0.09
  4  3  5  0.37  0.15
  4  5  4  2.38  0.38
  4 -6 10  2.22  0.31
  4 -4  9  1.10  0.28
  4 -4  9  1.02  0.24
  4 -2  8  0.39  0.13
  4 -2  8  0.78  0.22
  4  0  7  0.67  0.19
  4  2  6  6.26  0.57
  4  4  5  0.45  0.17
  4  6  4  1.69  0.35
  4 -7 11  0.07  0.06
  4 -5 10  1.73  0.30
  4 -5 10  1.58  0.35
  4 -3  9  4.36  0.52
  4 -3  9  4.60  0.52
  4 -1  8  1.95  0.35
  4 -1  8  1.98  0.37
  4  1  7  2.85  0.40
  4  3  6  3.56  0.44
  4  5  5  0.28  0.15
  4 -6 11  0.10  0.11
  4 -6 11  0.26  0.14
  4 -4 10  0.94  0.24
  4 -4 10  0.78  0.26
  4 -2  9  -0.03  0.08
  4 -2  9  0.05  0.07
  4  0  8  0.81  0.22
  4  2  7  0.47  0.16
  4  4  6  3.83  0.49
  4 -5 11  0.05  0.09
  4 -5 11  0.02  0.02
  4 -3 10  1.24  0.29
  4 -3 10  0.85  0.25
  4 -1  9  0.91  0.23
  4 -1  9  0.52  0.17
  4  1  8  0.04  0.05
  4  3  7  0.83  0.23
  4  5  6  0.15  0.10
  4 -4 11  0.32  0.17
  4 -4 11  0.05  0.09
  4 -2 10  2.27  0.37
  4 -2 10  2.22  0.42
  4  0  9  5.89  0.62
  4  2  8  0.96  0.24
  4  4  7  0.54  0.20
  4 -5 12  0.14  0.14
  4 -3 11  0.38  0.19
  4 -3 11  0.25  0.13
  4 -1 10  0.21  0.13
  4 -1 10  -0.30  0.16
  4  1  9  0.02  0.03
  4  3  8  0.16  0.10
  4 -4 12  1.34  0.33
  4 -4 12  1.66  0.33
  4 -2 11  0.01  0.06
  4 -2 11  -0.07  0.15
  4  0 10  0.13  0.08
  4  2  9  9.00  0.74
  4 -3 12  0.01  0.08
  4 -3 12  0.12  0.13
  4 -1 11  0.51  0.19
  4  1 10  -0.02  0.05
  4 -2 12  6.43  0.64
  4  0 11  0.51  0.17
  4  2 10  0.78  0.23
  4 -1 12  0.19  0.11
  4  1 11  0.56  0.19
  4 -2 13  3.02  0.44
  4  0 12  0.43  0.18
  4 -1 13  7.35  0.69
 -5  3 13  1.20  0.44
 -5  1 14  0.07  0.11
 -5 -3 16  0.17  0.07
 -5  4 12  10.17  1.40
 -5  2 13  0.41  0.30
 -5  0 14  0.32  0.25
 -5 -2 15  4.95  0.41
 -5 -4 16  -0.31  0.17
 -5  5 11  7.45  1.21
 -5  3 12  4.51  0.87
 -5  1 13  0.37  0.25
 -5 -1 14  2.71  0.63
 -5 -1 14  2.70  0.27
 -5 -3 15  3.05  0.37
 -5  6 10  1.50  0.57
 -5  4 11  2.42  0.64
 -5  2 12  1.35  0.45
 -5  0 13  2.93  0.68
 -5  0 13  3.37  0.30
 -5 -2 14  1.90  0.26
 -5 -4 15  0.50  0.19
 -5  5 10  0.54  0.29
 -5  3 11  0.36  0.23
 -5  1 12  4.20  0.79
 -5 -1 13  2.44  0.60
 -5 -1 13  1.94  0.23
 -5 -3 14  0.84  0.22
 -5 -5 15  7.32  0.74
 -5  6  9  2.60  0.68
  5 -6 -9  2.41  0.48
 -5  4 10  -0.06  0.08
 -5  2 11  0.92  0.37
 -5  0 12  2.45  0.59
 -5  0 12  2.33  0.22
 -5 -2 13  2.46  0.31
 -5 -4 14  0.16  0.09
 -5  7  8  0.77  0.38
 -5  5  9  0.13  0.09
  5 -5 -9  0.62  0.23
 -5  3 10  0.06  0.04
 -5  1 11  7.67  1.03
 -5  1 11  6.60  0.41
 -5 -1 12  3.81  0.72
 -5 -1 12  3.92  0.33
 -5 -3 13  0.27  0.13
 -5 -5 14  11.69  0.98
 -5  6  8  4.66  0.91
  5 -6 -8  5.20  0.69
 -5  4  9  0.09  0.11
  5 -4 -9  0.47  0.21
 -5  2 10  0.06  0.12
 -5  0 11  2.12  0.52
 -5  0 11  2.23  0.20
 -5 -2 12  11.17  0.69
 -5 -4 13  -0.01  0.07
 -5 -6 14  0.70  0.25
 -5  7  7  0.61  0.35
  5 -7 -7  0.48  0.20
 -5  5  8  12.49  1.41
  5 -5 -8  13.94  1.10
 -5  3  9  3.80  0.73
 -5  1 10  1.26  0.40
  5 -1 -10  1.19  0.23
 -5  1 10  0.96  0.15
 -5 -1 11  12.73  1.25
 -5 -1 11  12.26  0.62
 -5 -3 12  1.12  0.26
 -5 -5 13  1.80  0.39
 -5  6  7  0.22  0.15
  5 -6 -7  0.38  0.22
 -5  4  8  2.97  0.66
  5 -4 -8  2.88  0.47
 -5  2  9  12.30  1.26
 -5  0 10  1.39  0.41
  5  0 -10  1.12  0.20
 -5  0 10  1.30  0.15
 -5 -2 11  2.84  0.57
 -5 -2 11  3.11  0.38
 -5 -4 12  1.00  0.25
 -5 -6 13  1.48  0.38
  5 -7 -6  12.47  1.21
 -5  5  7  13.36  1.40
  5 -5 -7  13.81  1.12
 -5  3  8  0.04  0.10
  5 -3 -8  0.03  0.07
 -5  1  9  1.64  0.44
 -5  1  9  1.18  0.12
  5 -1 -9  1.04  0.22
 -5 -1 10  7.43  0.91
  5  1 -10  7.78  0.48
 -5 -1 10  7.37  0.51
 -5 -3 11  4.13  0.51
 -5 -5 12  -0.02  0.07
 -5  6  6  2.23  0.61
  5 -6 -6  1.77  0.42
 -5  4  7  0.30  0.21
  5 -4 -7  0.22  0.12
 -5  2  8  3.36  0.64
  5 -2 -8  3.44  0.45
 -5  0  9  7.86  0.94
  5  0 -9  8.00  0.59
 -5  0  9  7.79  0.40
 -5 -2 10  0.69  0.28
  5  2 -10  0.64  0.12
 -5 -2 10  0.34  0.11
 -5 -4 11  -0.10  0.14
 -5 -6 12  0.15  0.11
  5 -7 -5  0.33  0.22
 -5  5  6  1.77  0.50
  5 -5 -6  1.91  0.42
 -5  3  7  0.12  0.08
  5 -3 -7  0.02  0.06
 -5  1  8  0.16  0.14
  5 -1 -8  0.21  0.11
 -5  1  8  0.29  0.05
 -5 -1  9  2.24  0.47
  5  1 -9  2.24  0.29
 -5 -1  9  2.28  0.29
 -5 -3 10  0.88  0.31
  5  3 -10  0.62  0.09
 -5 -3 10  0.58  0.21
 -5 -5 11  1.63  0.41
 -5 -7 12  0.79  0.35
  5 -8 -4  1.04  0.39
 -5  6  5  2.10  0.57
  5 -6 -5  2.07  0.49
 -5  4  6  3.42  0.66
  5 -4 -6  3.50  0.55
 -5  2  7  5.40  0.81
  5 -2 -7  5.02  0.57
 -5  0  8  3.81  0.64
 -5  0  8  3.37  0.28
  5  0 -8  3.65  0.42
 -5 -2  9  2.11  0.46
 -5 -2  9  2.03  0.34
  5  2 -9  2.55  0.29
 -5 -4 10  0.64  0.22
 -5 -6 11  7.61  0.97
  5 -7 -4  0.14  0.13
 -5  5  5  0.41  0.24
  5 -5 -5  0.38  0.20
 -5  3  6  4.32  0.74
  5 -3 -6  4.62  0.59
 -5  1  7  1.95  0.46
  5 -1 -7  2.18  0.35
 -5  1  7  1.89  0.12
  5 -1 -7  1.86  0.33
 -5 -1  8  7.07  0.84
 -5 -1  8  6.60  0.53
  5  1 -8  7.47  0.59
 -5 -3  9  3.07  0.53
  5  3 -9  3.32  0.25
 -5 -3  9  3.07  0.49
 -5 -5 10  1.50  0.41
 -5 -7 11  0.67  0.33
  5 -8 -3  2.08  0.56
  5 -6 -4  0.50  0.27
 -5  4  5  14.45  1.34
  5 -4 -5  13.50  1.10
  5 -2 -6  1.70  0.34
 -5  2  6  1.29  0.37
  5 -2 -6  1.08  0.26
 -5  0  7  5.87  0.78
 -5  0  7  6.35  0.42
 -5 -2  8  0.11  0.14
 -5 -2  8  0.08  0.04
 -5 -4  9  5.20  0.69
  5  4 -9  5.47  0.27
 -5 -4  9  4.52  0.65
 -5 -6 10  1.83  0.48
  5 -7 -3  0.34  0.25
 -5  5  4  0.11  0.17
  5 -5 -4  0.12  0.12
 -5  3  5  2.21  0.53
  5 -3 -5  2.79  0.46
  5 -1 -6  1.84  0.35
 -5  1  6  1.48  0.40
 -5  1  6  1.27  0.11
  5 -1 -6  1.11  0.24
 -5 -1  7  3.12  0.55
 -5 -1  7  3.13  0.50
 -5 -1  7  3.03  0.37
 -5 -3  8  3.91  0.59
  5  3 -8  3.93  0.31
 -5 -3  8  3.51  0.48
 -5 -3  8  3.68  0.54
 -5 -5  9  0.25  0.16
  5  5 -9  0.10  0.05
 -5 -5  9  0.13  0.11
 -5 -7 10  6.16  0.80
 -5 -7 10  6.94  1.04
  5 -8 -2  6.92  1.03
  5 -6 -3  6.19  0.85
 -5  4  4  3.09  0.61
  5 -4 -4  2.39  0.46
 -5  2  5  0.23  0.14
  5 -2 -5  0.16  0.13
  5 -2 -5  0.19  0.12
 -5  0  6  5.09  0.71
  5  0 -6  4.92  0.47
 -5  0  6  4.99  0.64
 -5  0  6  5.02  0.41
 -5 -2  7  1.36  0.30
 -5 -2  7  1.15  0.33
 -5 -2  7  0.99  0.26
 -5 -4  8  2.64  0.53
 -5 -4  8  3.00  0.50
  5  4 -8  3.28  0.26
 -5 -4  8  2.79  0.40
 -5 -6  9  0.02  0.10
 -5 -6  9  0.14  0.11
  5 -7 -2  0.74  0.31
 -5  5  3  2.68  0.58
  5 -5 -3  2.46  0.50
 -5  3  4  0.06  0.11
  5 -3 -4  0.03  0.03
 -5  1  5  11.81  1.12
  5 -1 -5  10.18  0.75
 -5  1  5  10.15  0.96
 -5  1  5  9.87  0.40
 -5 -1  6  24.05  1.51
 -5 -1  6  22.97  1.32
 -5 -1  6  22.54  1.09
 -5 -3  7  19.31  1.29
  5  3 -7  19.60  0.76
 -5 -3  7  18.55  1.09
 -5 -3  7  17.50  1.24
 -5 -5  8  0.45  0.25
 -5 -5  8  0.35  0.20
 -5 -5  8  0.35  0.13
 -5 -7  9  8.58  1.20
  5 -8 -1  2.57  0.64
  5 -6 -2  1.80  0.45
 -5  4  3  2.39  0.53
  5 -4 -3  2.67  0.49
 -5  2  4  1.47  0.37
 -5  2  4  1.76  0.44
  5 -2 -4  1.87  0.36
 -5  0  5  0.52  0.14
 -5  0  5  0.64  0.26
  5  0 -5  0.57  0.16
 -5  0  5  0.67  0.24
 -5 -2  6  14.67  1.14
 -5 -2  6  14.17  0.96
 -5 -4  7  67.22  2.37
 -5 -4  7  66.14  1.87
 -5 -6  8  5.76  0.70
 -5 -6  8  5.38  0.89
  5 -7 -1  3.61  0.71
  5 -5 -2  2.00  0.47
 -5  3  3  17.53  1.38
  5 -3 -3  18.07  1.22
 -5  1  4  1.80  0.40
  5 -1 -4  1.61  0.35
 -5  1  4  1.60  0.40
  5 -1 -4  1.49  0.30
 -5 -1  5  26.88  1.57
 -5 -1  5  27.50  1.40
 -5 -3  6  81.30  2.60
 -5 -3  6  78.77  2.11
 -5 -5  7  4.32  0.58
 -5 -5  7  4.02  0.44
 -5 -7  8  0.05  0.14
  5 -8  0  1.18  0.42
  5 -6 -1  0.23  0.05
  5 -6 -1  0.46  0.26
  5 -4 -2  0.05  0.09
 -5  2  3  0.24  0.17
 -5  2  3  0.45  0.23
  5 -2 -3  0.35  0.15
 -5  0  4  -0.04  0.12
  5  0 -4  -0.01  0.03
 -5  0  4  0.00  0.08
 -5 -2  5  75.23  2.53
 -5 -2  5  76.68  2.17
 -5 -4  6  48.89  1.95
 -5 -4  6  51.57  1.61
 -5 -6  7  0.69  0.22
  5  6 -7  0.50  0.13
  5 -7  0  0.22  0.24
  5 -5 -1  6.30  0.82
 -5  3  2  0.09  0.17
  5 -3 -2  0.02  0.09
 -5  1  3  0.78  0.25
  5 -1 -3  0.65  0.22
 -5  1  3  0.84  0.28
 -5  1  3  0.89  0.12
  5 -1 -3  0.81  0.22
 -5 -1  4  38.69  1.86
  5  1 -4  37.78  1.11
 -5 -1  4  36.44  1.59
 -5 -3  5  44.19  1.86
  5  3 -5  45.74  1.28
 -5 -3  5  44.72  1.55
 -5 -5  6  5.47  0.63
  5  5 -6  5.20  0.39
 -5 -5  6  5.42  0.49
  5 -8  1  1.54  0.53
  5 -6  0  0.00  0.01
  5 -6  0  0.00  0.08
  5 -4 -1  5.45  0.73
  5 -2 -2  23.67  1.42
 -5  2  2  25.31  1.58
  5 -2 -2  23.63  1.32
 -5  2  2  24.80  0.45
 -5  2  2  25.34  1.51
  5  0 -3  2.78  0.44
 -5  0  3  2.89  0.51
  5  0 -3  2.51  0.35
 -5  0  3  2.47  0.43
  5  2 -4  2.26  0.31
 -5 -2  4  1.99  0.40
 -5 -2  4  1.73  0.32
  5  4 -5  0.15  0.08
 -5 -4  5  -0.04  0.09
 -5 -4  5  0.18  0.09
 -5 -6  6  0.82  0.23
  5  6 -6  0.73  0.16
  5 -7  1  3.78  0.23
  5 -7  1  4.58  0.84
  5 -5  0  0.10  0.05
  5 -5  0  -0.04  0.09
 -5  3  1  0.98  0.14
  5 -3 -1  1.01  0.29
  5 -1 -2  16.72  1.14
 -5  1  2  15.16  1.18
  5 -1 -2  14.96  0.98
 -5  1  2  15.83  0.51
 -5  1  2  16.97  1.16
 -5 -1  3  0.11  0.09
  5  1 -3  0.07  0.07
 -5 -1  3  0.20  0.14
  5  1 -3  0.11  0.07
 -5 -3  4  5.38  0.64
  5  3 -4  5.61  0.47
 -5 -3  4  5.20  0.50
 -5 -5  5  0.61  0.20
  5  5 -5  0.67  0.16
 -5 -5  5  0.80  0.18
  5  7 -6  0.18  0.10
  5 -8  2  3.53  0.79
  5 -6  1  1.48  0.46
  5 -6  1  1.63  0.15
  5 -4  0  6.62  0.37
  5 -4  0  6.24  0.81
 -5  4  0  6.52  0.47
  5 -2 -1  38.38  1.86
  5 -2 -1  38.82  1.74
 -5  2  1  39.56  0.67
  5  0 -2  15.14  1.03
 -5  0  2  15.66  1.14
  5  0 -2  15.33  0.86
 -5  0  2  14.36  0.99
 -5 -2  3  2.19  0.40
  5  2 -3  2.35  0.33
 -5 -2  3  2.24  0.35
 -5 -4  4  5.66  0.61
  5  4 -4  5.72  0.46
 -5 -4  4  5.83  0.47
  5  6 -5  0.74  0.17
  5 -7  2  2.62  0.64
  5 -7  2  2.65  0.21
  5 -5  1  1.58  0.42
  5 -5  1  1.57  0.17
 -5  3  0  0.12  0.05
  5 -3  0  0.23  0.18
  5 -1 -1  0.01  0.07
 -5  1  1  0.11  0.06
  5 -1 -1  0.07  0.05
  5  1 -2  7.70  0.69
 -5 -1  2  7.53  0.76
  5  1 -2  7.58  0.50
 -5 -1  2  7.03  0.63
 -5 -3  3  5.76  0.60
  5  3 -3  6.09  0.50
 -5 -3  3  6.62  0.51
 -5 -5  4  2.18  0.33
  5  5 -4  1.92  0.27
 -5 -5  4  1.67  0.21
  5  7 -5  0.38  0.13
  5 -8  3  1.07  0.44
  5 -6  2  1.66  0.48
  5 -6  2  1.82  0.18
  5 -4  1  1.72  0.44
  5 -4  1  1.77  0.21
 -5  4 -1  1.85  0.28
  5 -2  0  19.68  1.37
  5 -2  0  20.14  1.29
 -5  2  0  20.49  0.54
  5  0 -1  2.93  0.46
  5  0 -1  3.04  0.39
 -5 -2  2  2.53  0.42
  5  2 -2  2.48  0.34
 -5 -4  3  0.15  0.06
  5  4 -3  0.24  0.10
 -5 -4  3  0.22  0.11
  5  6 -4  7.07  0.56
  5  8 -5  -0.06  0.08
  5 -7  3  0.02  0.15
  5 -7  3  0.06  0.04
  5 -5  2  0.60  0.30
  5 -5  2  0.62  0.13
  5 -3  1  0.61  0.24
 -5  3 -1  0.50  0.11
  5 -1  0  0.37  0.19
 -5  1  0  0.28  0.07
  5 -1  0  0.27  0.16
  5  1 -1  7.74  0.70
  5  1 -1  9.41  0.71
  5  1 -1  9.14  0.57
  5  3 -2  12.79  0.75
  5  5 -3  0.15  0.08
  5  7 -4  2.13  0.34
  5 -8  4  0.45  0.33
  5 -6  3  2.52  0.59
  5 -6  3  2.00  0.20
  5 -4  2  0.84  0.31
  5 -4  2  0.71  0.14
  5 -2  1  18.39  1.35
 -5  2 -1  16.73  0.54
  5 -2  1  17.03  1.22
  5  0  0  0.02  0.01
  5  0  0  0.04  0.04
  5  2 -1  0.01  0.05
  5  2 -1  0.00  0.04
  5  4 -2  3.36  0.39
  5  6 -3  0.07  0.08
  5  8 -4  0.08  0.08
  5 -7  4  -0.05  0.09
  5 -7  4  0.04  0.04
  5 -5  3  2.06  0.52
  5 -5  3  2.57  0.25
 -5  5 -3  2.49  0.40
  5 -3  2  11.74  0.65
  5 -3  2  11.26  1.06
  5 -1  1  3.16  0.53
  5 -1  1  2.93  0.48
  5  1  0  0.05  0.04
 -5 -1  0  -0.02  0.07
  5  1  0  0.11  0.08
  5  1  0  0.15  0.08
  5  3 -1  1.98  0.31
  5  5 -2  0.21  0.10
  5  7 -3  1.11  0.26
  5 -8  5  0.96  0.42
  5 -8  5  0.97  0.16
  5 -6  4  1.29  0.46
  5 -6  4  1.80  0.20
  5 -4  3  0.23  0.14
  5 -4  3  0.22  0.08
 -5  4 -3  0.36  0.12
  5 -2  2  0.75  0.26
  5  0  1  0.02  0.08
 -5  0 -1  0.16  0.08
  5  0  1  0.04  0.04
  5  2  0  4.02  0.48
  5  2  0  5.16  0.51
  5  4 -1  9.66  0.68
  5  6 -2  2.74  0.38
  5  8 -3  0.24  0.13
  5 -7  5  0.13  0.20
  5 -7  5  0.03  0.05
  5 -5  4  3.54  0.31
  5 -5  4  4.38  0.76
 -5  5 -4  3.72  0.53
  5 -3  3  10.18  0.63
 -5  3 -3  10.43  0.61
  5 -3  3  9.77  1.01
  5 -1  2  26.96  1.61
 -5  1 -2  26.82  0.73
  5 -1  2  25.32  1.41
  5  1  1  20.89  1.25
  5  1  1  18.70  1.03
 -5 -1 -1  17.25  0.85
  5  1  1  19.77  0.87
  5  3  0  3.69  0.43
  5  5 -1  5.18  0.51
  5  7 -2  1.38  0.31
  5 -8  6  0.21  0.20
  5 -8  6  0.18  0.09
  5 -6  5  1.40  0.48
  5 -6  5  1.05  0.17
  5 -4  4  18.20  0.80
  5 -4  4  16.95  1.43
 -5  4 -4  19.69  1.06
 -5  2 -3  13.00  0.59
  5 -2  3  12.88  1.10
  5  0  2  6.26  0.75
  5  0  2  6.31  0.63
 -5  0 -2  6.40  0.43
  5  0  2  6.17  0.62
  5  2  1  5.29  0.56
  5  2  1  5.37  0.53
  5  2  1  4.29  0.22
  5  4  0  1.95  0.32
  5  6 -1  3.43  0.44
  5  8 -2  3.86  0.55
  5 -7  6  0.60  0.35
  5 -7  6  0.88  0.17
  5 -5  5  0.15  0.07
  5 -3  4  17.31  0.87
 -5  3 -4  18.24  0.86
  5 -1  3  2.85  0.55
 -5  1 -3  2.47  0.24
  5 -1  3  2.51  0.46
  5  1  2  1.65  0.35
  5  1  2  1.73  0.26
  5  1  2  1.49  0.31
  5  3  1  7.02  0.54
  5  3  1  6.08  0.57
  5  5  0  0.11  0.06
  5  7 -1  0.71  0.23
  5 -8  7  0.38  0.12
  5 -6  6  0.11  0.04
  5 -4  5  0.28  0.11
  5 -2  4  53.39  1.70
 -5  2 -4  54.68  1.28
  5  0  3  40.61  1.99
  5  0  3  41.47  1.61
  5  0  3  41.15  1.66
  5  2  2  1.25  0.26
  5  2  2  1.43  0.31
  5  2  2  1.04  0.11
  5  4  1  4.50  0.50
  5  6  0  0.26  0.12
  5 -7  7  0.46  0.14
  5 -5  6  3.53  0.36
  5 -3  5  0.13  0.09
  5 -1  4  2.83  0.45
  5  1  3  14.98  1.14
  5  1  3  14.28  0.90
  5  1  3  15.29  0.86
  5  3  2  3.33  0.38
  5  3  2  3.59  0.44
  5  5  1  5.72  0.57
  5  7  0  0.31  0.14
  5 -8  8  0.16  0.07
  5 -6  7  6.07  0.49
  5 -4  6  0.20  0.12
  5 -2  5  76.46  2.14
  5  0  4  85.04  2.97
  5  0  4  85.85  2.31
  5  0  4  82.57  2.48
  5  2  3  4.36  0.57
  5  2  3  3.79  0.47
  5  2  3  2.94  0.21
  5  4  2  3.26  0.44
  5  6  1  2.42  0.40
  5 -7  8  0.60  0.15
  5 -5  7  0.49  0.16
  5 -3  6  2.69  0.38
  5 -1  5  0.45  0.18
  5  1  4  0.72  0.19
  5  1  4  0.86  0.30
  5  1  4  0.76  0.21
  5  3  3  0.51  0.18
  5  5  2  2.52  0.39
  5 -8  9  0.28  0.13
  5 -6  8  0.84  0.20
  5 -4  7  1.47  0.28
  5 -2  6  2.85  0.47
  5 -2  6  2.38  0.39
  5  0  5  1.38  0.31
  5  2  4  0.95  0.24
  5  2  4  1.41  0.33
  5  2  4  1.07  0.16
  5  4  3  0.09  0.07
  5  6  2  1.55  0.33
  5 -7  9  2.03  0.30
  5 -5  8  14.40  0.86
  5 -3  7  0.01  0.07
  5 -3  7  0.06  0.04
  5 -1  6  0.67  0.22
  5  1  5  0.03  0.04
  5  1  5  0.18  0.19
  5  3  4  0.07  0.09
  5  5  3  0.96  0.25
  5 -6  9  0.38  0.15
  5 -4  8  8.12  0.70
  5 -2  7  15.11  1.05
  5 -2  7  13.47  0.99
  5  0  6  5.15  0.60
  5  2  5  0.05  0.05
  5  4  4  -0.05  0.08
  5 -7 10  5.36  0.54
  5 -5  9  1.30  0.29
  5 -3  8  2.30  0.40
  5 -3  8  2.45  0.43
  5 -1  7  9.81  0.81
  5  1  6  3.09  0.46
  5  3  5  0.82  0.23
  5  5  4  10.29  0.86
  5 -6 10  5.73  0.59
  5 -4  9  0.08  0.10
  5 -4  9  0.10  0.14
  5 -2  8  0.91  0.25
  5 -2  8  1.05  0.29
  5  0  7  0.50  0.18
  5  2  6  0.74  0.24
  5  4  5  1.68  0.33
  5 -5 10  0.09  0.07
  5 -5 10  -0.06  0.10
  5 -3  9  2.60  0.45
  5 -3  9  1.93  0.41
  5 -1  8  0.60  0.21
  5  1  7  0.00  0.02
  5  3  6  0.14  0.08
  5 -6 11  3.81  0.60
  5 -4 10  2.84  0.49
  5 -4 10  2.06  0.44
  5 -2  9  3.40  0.49
  5 -2  9  3.34  0.55
  5  0  8  0.18  0.11
  5  2  7  -0.02  0.03
  5 -5 11  0.30  0.19
  5 -5 11  0.07  0.09
  5 -3 10  1.09  0.31
  5 -3 10  1.25  0.32
  5 -1  9  0.99  0.28
  5  1  8  0.68  0.23
  5  3  7  0.30  0.16
  5 -4 11  3.61  0.54
  5 -4 11  2.74  0.51
  5 -2 10  0.34  0.17
  5  0  9  9.76  0.84
  5  2  8  0.25  0.15
  5 -3 11  2.29  0.41
  5 -1 10  0.06  0.06
  5  1  9  0.96  0.26
  5 -4 12  9.02  0.83
  5 -2 11  1.16  0.29
  5  0 10  7.97  0.76
  5 -3 12  2.08  0.39
  5 -1 11  0.17  0.08
  5 -2 12  0.13  0.11
 -6  3 12  0.17  0.26
 -6  1 13  0.46  0.32
 -6 -1 14  0.15  0.16
 -6  4 11  1.53  0.55
 -6  2 12  -0.05  0.02
 -6  0 13  2.53  0.65
 -6 -2 14  0.22  0.27
 -6 -4 15  1.21  0.29
 -6  5 10  0.07  0.02
 -6  3 11  0.36  0.28
 -6  1 12  1.38  0.47
 -6 -1 13  0.17  0.12
 -6 -3 14  10.95  1.31
 -6 -3 14  10.95  0.78
 -6 -5 15  3.36  0.53
 -6  6  9  -0.03  0.03
 -6  4 10  0.99  0.43
 -6  2 11  2.42  0.64
 -6  0 12  5.74  0.96
 -6 -2 13  2.57  0.63
 -6 -2 13  3.02  0.37
 -6 -4 14  0.80  0.35
 -6 -4 14  0.86  0.25
 -6  5  9  0.13  0.17
  6 -5 -9  0.22  0.19
 -6  3 10  0.17  0.14
 -6  1 11  12.49  1.40
 -6 -1 12  1.77  0.51
 -6 -1 12  1.03  0.16
 -6 -3 13  1.17  0.41
 -6 -3 13  2.07  0.36
 -6 -5 14  0.39  0.24
 -6 -5 14  0.19  0.13
 -6  6  8  1.49  0.53
 -6  4  9  0.27  0.26
  6 -4 -9  0.20  0.16
 -6  2 10  1.23  0.45
 -6  0 11  5.29  0.89
 -6  0 11  4.70  0.29
 -6 -2 12  0.24  0.17
 -6 -2 12  0.46  0.16
 -6 -4 13  0.04  0.14
 -6 -4 13  -0.12  0.15
 -6 -6 14  1.92  0.54
 -6  7  7  5.31  1.03
 -6  5  8  0.34  0.25
  6 -5 -8  0.12  0.10
 -6  3  9  0.01  0.05
  6 -3 -9  0.15  0.15
 -6  1 10  0.09  0.10
 -6 -1 11  10.33  1.20
 -6 -1 11  11.38  0.62
 -6 -3 12  1.25  0.44
 -6 -3 12  0.94  0.24
 -6 -5 13  -0.06  0.07
 -6 -5 13  -0.06  0.14
 -6  6  7  -0.08  0.20
  6 -6 -7  0.21  0.15
 -6  4  8  1.21  0.46
  6 -4 -8  1.23  0.34
 -6  2  9  -0.06  0.08
 -6  0 10  0.26  0.10
 -6  0 10  0.17  0.04
 -6 -2 11  0.25  0.16
 -6 -2 11  0.17  0.08
 -6 -4 12  0.31  0.19
 -6 -4 12  0.21  0.06
 -6 -6 13  8.96  1.14
 -6 -6 13  10.56  1.12
 -6  5  7  0.05  0.10
  6 -5 -7  -0.02  0.09
 -6  3  8  6.39  1.01
  6 -3 -8  5.53  0.66
 -6  1  9  0.68  0.33
 -6  1  9  0.30  0.05
 -6 -1 10  2.90  0.62
 -6 -1 10  2.97  0.34
 -6 -3 11  0.66  0.28
 -6 -3 11  0.57  0.17
 -6 -5 12  3.65  0.70
 -6 -5 12  3.97  0.64
 -6  6  6  0.48  0.28
  6 -6 -6  0.38  0.22
 -6  4  7  1.10  0.44
  6 -4 -7  0.71  0.28
 -6  2  8  3.65  0.74
  6 -2 -8  4.09  0.54
 -6  0  9  0.44  0.27
  6  0 -9  0.45  0.18
 -6  0  9  0.58  0.13
 -6 -2 10  2.64  0.57
 -6 -2 10  1.86  0.32
 -6 -4 11  7.23  0.96
 -6 -4 11  8.09  0.86
 -6 -6 12  0.11  0.17
 -6 -6 12  0.25  0.23
  6 -7 -5  1.24  0.42
 -6  5  6  0.10  0.16
  6 -5 -6  0.07  0.09
 -6  3  7  1.02  0.40
  6 -3 -7  0.88  0.27
 -6  1  8  12.23  1.32
 -6  1  8  10.43  0.28
 -6 -1  9  5.21  0.82
 -6 -1  9  6.02  0.52
  6  1 -9  5.38  0.55
 -6 -3 10  0.72  0.32
  6  3 -10  0.75  0.14
 -6 -3 10  0.61  0.24
 -6 -5 11  2.94  0.61
 -6 -5 11  3.01  0.59
 -6  6  5  0.53  0.30
  6 -6 -5  0.72  0.29
 -6  4  6  2.16  0.57
  6 -4 -6  2.25  0.46
 -6  2  7  5.40  0.90
  6 -2 -7  4.69  0.57
  6  0 -8  0.02  0.05
 -6  0  8  -0.01  0.03
 -6 -2  9  7.05  0.93
 -6 -2  9  6.43  0.66
 -6 -4 10  7.30  0.93
 -6 -4 10  7.64  0.87
 -6 -6 11  -0.14  0.15
 -6 -6 11  0.22  0.26
  6 -7 -4  0.02  0.07
 -6  5  5  0.38  0.25
  6 -5 -5  0.56  0.25
 -6  3  6  1.69  0.49
  6 -3 -6  1.40  0.36
  6 -1 -7  16.22  0.99
 -6  1  7  17.04  0.39
 -6 -1  8  7.58  0.97
 -6 -1  8  6.33  0.57
 -6 -3  9  7.24  0.93
 -6 -3  9  6.63  0.76
 -6 -5 10  36.80  2.09
 -6 -5 10  38.60  2.17
  6 -6 -4  2.17  0.52
 -6  4  5  0.18  0.17
  6 -4 -5  0.24  0.17
 -6  2  6  0.52  0.29
  6 -2 -6  0.44  0.18
 -6  0  7  0.73  0.31
 -6  0  7  0.82  0.16
 -6 -2  8  1.06  0.35
 -6 -2  8  0.74  0.22
 -6 -4  9  0.20  0.17
 -6 -4  9  0.38  0.22
 -6 -6 10  0.28  0.19
 -6 -6 10  -0.03  0.08
  6 -7 -3  0.19  0.18
 -6  5  4  6.28  0.98
  6 -5 -4  6.00  0.83
 -6  3  5  0.54  0.32
  6 -3 -5  0.40  0.19
  6 -1 -6  15.98  0.99
 -6  1  6  15.92  0.49
 -6 -1  7  73.23  2.98
 -6 -1  7  66.99  1.98
 -6 -3  8  15.75  1.34
 -6 -3  8  15.60  1.22
 -6 -5  9  0.59  0.28
 -6 -5  9  0.75  0.29
  6 -6 -3  0.78  0.32
 -6  4  4  0.37  0.22
  6 -4 -4  0.26  0.13
 -6  2  5  2.22  0.53
  6 -2 -5  1.66  0.36
  6  0 -6  36.04  1.35
 -6  0  6  37.08  1.28
 -6 -2  7  74.24  2.90
  6  2 -7  72.42  1.89
 -6 -2  7  67.32  2.30
 -6 -4  8  4.19  0.67
  6  4 -8  4.26  0.37
 -6 -4  8  4.24  0.72
 -6 -6  9  12.07  1.15
 -6 -6  9  13.80  1.48
  6 -7 -2  1.32  0.43
  6 -5 -3  0.00  0.06
 -6  3  4  2.96  0.64
  6 -3 -4  2.33  0.46
  6 -1 -5  47.02  1.74
 -6  1  5  45.66  0.87
 -6  1  5  46.26  1.09
 -6 -1  6  24.85  1.73
 -6 -1  6  24.31  1.53
 -6 -3  7  39.11  2.06
  6  3 -7  43.67  1.36
 -6 -3  7  37.88  1.76
 -6 -5  8  4.44  0.77
 -6 -5  8  3.76  0.63
  6  5 -8  4.85  0.37
 -6 -7  9  2.96  0.74
  6 -6 -2  -0.07  0.11
 -6  4  3  7.96  1.04
  6 -4 -3  9.13  0.98
 -6  2  4  3.71  0.69
  6 -2 -4  3.38  0.51
 -6  0  5  18.67  1.50
  6  0 -5  18.11  0.97
 -6  0  5  20.15  1.44
 -6 -2  6  16.16  1.35
  6  2 -6  16.89  0.95
 -6 -2  6  16.88  1.19
 -6 -4  7  8.50  0.93
  6  4 -7  8.53  0.57
 -6 -4  7  7.93  0.76
 -6 -6  8  2.20  0.59
  6 -7 -1  0.16  0.14
  6 -5 -2  0.43  0.25
 -6  3  3  6.21  0.90
  6 -3 -3  5.89  0.74
 -6  1  4  0.13  0.14
 -6  1  4  0.50  0.09
  6 -1 -4  0.39  0.15
 -6 -1  5  41.83  2.19
 -6 -1  5  43.54  1.98
 -6 -3  6  6.76  0.84
  6  3 -6  7.27  0.57
 -6 -3  6  6.01  0.67
 -6 -5  7  0.19  0.13
  6  5 -7  0.09  0.04
 -6 -7  8  4.76  0.97
  6 -8  0  0.59  0.33
  6 -6 -1  8.15  1.06
  6 -4 -2  8.23  0.94
 -6  2  3  10.09  1.12
  6 -2 -3  9.88  0.90
 -6  2  3  9.25  0.27
 -6  0  4  0.02  0.05
 -6  0  4  0.02  0.07
  6  0 -4  -0.02  0.06
 -6 -2  5  31.77  1.85
  6  2 -5  32.01  1.32
 -6 -2  5  29.22  1.52
 -6 -4  6  4.45  0.66
  6  4 -6  3.77  0.40
 -6 -4  6  3.65  0.49
  6  6 -7  3.44  0.36
  6 -7  0  0.80  0.36
  6 -5 -1  1.13  0.38
  6 -3 -2  0.25  0.13
 -6  3  2  0.07  0.04
 -6  1  3  0.01  0.10
 -6  1  3  -0.05  0.14
 -6  1  3  0.07  0.05
  6 -1 -3  0.04  0.08
 -6 -1  4  68.94  2.70
 -6 -1  4  66.11  2.37
 -6 -3  5  2.96  0.54
  6  3 -5  3.11  0.39
 -6 -3  5  1.88  0.37
 -6 -5  6  2.27  0.45
  6  5 -6  1.87  0.27
  6 -8  1  0.02  0.14
  6 -6  0  0.28  0.20
  6 -4 -1  39.37  2.12
 -6  2  2  1.27  0.39
 -6  2  2  1.22  0.12
  6 -2 -2  1.32  0.33
 -6  0  3  2.31  0.43
 -6  0  3  2.99  0.57
  6  0 -3  2.93  0.40
 -6 -2  4  3.75  0.61
  6  2 -4  4.08  0.48
 -6 -2  4  3.43  0.50
  6  4 -5  1.88  0.29
 -6 -4  5  2.38  0.45
  6  6 -6  3.65  0.39
  6 -7  1  0.05  0.15
  6 -5  0  1.39  0.44
 -6  3  1  0.00  0.03
  6 -3 -1  -0.42  0.20
 -6  1  2  19.95  1.48
  6 -1 -2  20.35  1.22
 -6  1  2  20.02  0.61
  6  1 -3  5.46  0.65
 -6 -1  3  5.53  0.75
  6  1 -3  5.26  0.46
 -6 -1  3  4.12  0.56
 -6 -3  4  1.13  0.25
  6  3 -4  1.75  0.29
 -6 -3  4  1.47  0.35
 -6 -5  5  0.89  0.26
  6  5 -5  1.01  0.22
  6 -6  1  0.43  0.29
  6 -4  0  0.78  0.30
 -6  4  0  1.08  0.20
 -6  2  1  0.28  0.06
  6 -2 -1  0.16  0.12
 -6  0  2  35.46  1.89
  6  0 -2  35.99  1.44
 -6 -2  3  15.24  1.17
  6  2 -3  15.01  0.94
 -6 -2  3  14.20  0.93
  6  4 -4  0.57  0.16
 -6 -4  4  0.20  0.13
  6  6 -5  0.03  0.04
  6 -7  2  0.18  0.22
  6 -5  1  0.67  0.33
 -6  3  0  1.20  0.17
  6 -3  0  0.96  0.32
  6 -1 -1  16.79  1.14
  6  1 -2  0.49  0.19
 -6 -1  2  0.62  0.24
  6  1 -2  0.91  0.18
  6  1 -2  0.77  0.23
 -6 -3  3  0.80  0.26
  6  3 -3  0.35  0.14
  6  5 -4  8.19  0.63
  6  7 -5  9.30  0.73
  6 -6  2  2.94  0.69
  6 -6  2  2.35  0.27
 -6  4 -1  0.53  0.16
  6 -4  1  0.29  0.16
  6 -2  0  8.98  0.92
  6  0 -1  30.24  1.65
  6  0 -1  30.05  1.35
 -6  0  1  28.25  0.97
  6  2 -2  13.57  0.90
  6  4 -3  0.08  0.05
  6  6 -4  1.09  0.24
  6 -7  3  1.96  0.58
  6 -5  2  5.68  0.46
  6 -5  2  6.30  0.95
  6 -3  1  0.12  0.14
  6 -1  0  19.35  1.25
 -6  1  0  20.31  0.64
  6  1 -1  2.62  0.45
  6  1 -1  2.75  0.43
  6  1 -1  2.99  0.35
 -6 -1  1  2.26  0.32
  6  3 -2  0.12  0.10
  6  5 -3  0.24  0.11
  6  7 -4  0.29  0.15
  6 -6  3  9.42  0.57
  6 -6  3  10.34  1.30
  6 -4  2  0.14  0.14
 -6  4 -2  0.10  0.05
  6 -2  1  28.86  1.70
 -6  2 -1  29.75  0.81
  6  0  0  21.98  1.17
 -6  0  0  20.53  0.83
  6  2 -1  1.99  0.37
  6  2 -1  2.05  0.36
  6  4 -2  18.88  1.03
  6  6 -3  0.09  0.07
  6  8 -4  2.08  0.40
  6 -7  4  1.18  0.45
  6 -5  3  2.18  0.59
  6 -5  3  1.76  0.27
  6 -3  2  28.43  1.82
 -6  3 -2  29.48  1.02
 -6  1 -1  5.81  0.35
  6 -1  1  5.84  0.72
  6  1  0  7.48  0.80
  6  1  0  8.60  0.77
  6  1  0  7.69  0.57
  6  3 -1  10.20  0.78
  6  5 -2  3.65  0.46
  6  7 -3  0.15  0.09
  6 -6  4  2.46  0.64
  6 -6  4  3.18  0.36
  6 -4  3  45.38  1.51
  6 -4  3  48.63  2.57
 -6  4 -3  50.16  1.64
  6 -2  2  2.38  0.48
 -6  2 -2  2.43  0.26
  6  0  1  1.26  0.31
  6  0  1  1.07  0.26
  6  2  0  20.16  1.18
  6  2  0  21.62  1.16
  6  4 -1  0.25  0.13
  6  6 -2  3.14  0.45
  6 -7  5  4.53  0.92
  6 -5  4  10.88  0.71
  6 -5  4  11.23  1.30
  6 -3  3  0.31  0.23
 -6  3 -3  0.18  0.11
  6 -1  2  18.00  1.30
  6  1  1  0.88  0.28
  6  1  1  1.18  0.22
  6  1  1  1.48  0.31
  6  3  0  4.77  0.55
  6  5 -1  0.12  0.09
  6  7 -2  0.11  0.11
  6 -6  5  0.95  0.39
  6 -6  5  1.14  0.23
  6 -4  4  13.95  0.88
  6 -4  4  12.92  1.34
  6 -2  3  93.50  3.26
  6  0  2  14.23  1.03
  6  0  2  13.78  1.00
  6  2  1  -0.06  0.08
  6  2  1  0.06  0.03
  6  2  1  0.12  0.11
  6  4  0  0.23  0.12
  6  6 -1  0.36  0.15
  6 -7  6  0.63  0.33
  6 -7  6  0.28  0.11
  6 -5  5  0.18  0.21
  6 -5  5  0.17  0.08
  6 -3  4  10.23  1.13
  6 -1  3  0.18  0.12
  6 -1  3  0.38  0.18
  6  1  2  3.74  0.61
  6  1  2  4.07  0.53
  6  1  2  3.47  0.39
  6  3  1  1.96  0.35
  6  5  0  0.15  0.12
  6  7 -1  0.25  0.13
  6 -6  6  0.33  0.16
  6 -6  6  0.58  0.19
  6 -4  5  61.67  1.94
  6 -4  5  56.46  2.84
  6 -2  4  1.24  0.39
  6  0  3  0.05  0.11
  6  0  3  0.02  0.05
  6  2  2  7.88  0.72
  6  4  1  5.76  0.62
  6  6  0  2.24  0.41
  6 -7  7  1.60  0.28
  6 -5  6  0.10  0.14
  6 -5  6  -0.03  0.09
  6 -3  5  5.66  0.86
  6 -1  4  0.25  0.18
  6 -1  4  0.53  0.19
  6  1  3  0.21  0.13
  6  1  3  0.11  0.09
  6  3  2  0.09  0.04
  6  5  1  0.11  0.10
  6 -6  7  0.55  0.33
  6 -6  7  0.51  0.20
  6 -4  6  17.15  1.09
  6 -4  6  12.85  1.38
  6 -2  5  0.43  0.24
  6 -2  5  0.36  0.19
  6  0  4  4.58  0.59
  6  0  4  3.45  0.54
  6  2  3  5.16  0.61
  6  4  2  3.17  0.47
  6 -7  8  3.58  0.45
  6 -5  7  1.47  0.32
  6 -1  5  0.38  0.16
  6 -1  5  0.78  0.25
  6  1  4  4.42  0.57
  6  3  3  5.10  0.60
  6  5  2  0.41  0.17
  6 -6  8  11.48  0.88
  6 -4  7  0.80  0.24
  6 -2  6  6.52  0.77
  6  0  5  4.08  0.57
  6  0  5  3.77  0.58
  6  2  4  0.37  0.18
  6  4  3  1.20  0.29
  6 -7  9  1.11  0.28
  6 -5  8  17.81  1.16
  6 -3  7  0.13  0.12
  6 -1  6  0.06  0.07
  6 -1  6  0.18  0.13
  6  1  5  0.07  0.03
  6  3  4  1.91  0.38
  6 -6  9  3.71  0.54
  6 -4  8  1.52  0.36
  6 -4  8  1.65  0.41
  6 -2  7  2.38  0.45
  6  0  6  3.43  0.51
  6  2  5  7.19  0.73
  6 -5  9  1.52  0.35
  6 -5  9  0.95  0.32
  6 -3  8  1.81  0.41
  6 -1  7  0.41  0.19
  6  1  6  0.00  0.03
  6  3  5  1.03  0.28
  6 -6 10  0.03  0.15
  6 -4  9  2.13  0.45
  6 -4  9  2.30  0.48
  6 -2  8  2.04  0.42
  6  0  7  3.31  0.55
  6  2  6  0.10  0.09
  6 -5 10  2.09  0.45
  6 -3  9  0.88  0.30
  6 -1  8  3.59  0.54
  6  1  7  -0.04  0.09
  6 -4 10  0.41  0.21
  6 -2  9  23.81  1.42
  6  0  8  0.46  0.19
  6 -3 10  0.51  0.22
  6 -1  9  0.12  0.09
 -7  1 12  6.13  1.09
 -7 -1 13  2.09  0.61
 -7  2 11  1.37  0.53
 -7  0 12  1.11  0.48
 -7 -2 13  2.25  0.62
 -7  3 10  0.28  0.21
 -7  1 11  2.01  0.59
 -7 -1 12  0.31  0.27
 -7 -3 13  1.74  0.54
 -7  4  9  2.62  0.71
  7 -4 -9  2.42  0.48
 -7  2 10  0.45  0.32
 -7  0 11  3.37  0.78
 -7 -2 12  3.59  0.77
 -7 -4 13  0.38  0.28
 -7 -4 13  0.26  0.12
 -7  5  8  1.36  0.50
 -7  3  9  2.25  0.65
  7 -3 -9  2.04  0.41
 -7  1 10  0.21  0.25
 -7 -1 11  -0.08  0.02
 -7 -3 12  0.03  0.16
 -7 -3 12  -0.18  0.11
 -7 -5 13  0.29  0.25
 -7 -5 13  0.00  0.07
 -7  4  8  1.71  0.55
  7 -4 -8  1.32  0.36
 -7  2  9  2.61  0.69
 -7  0 10  2.04  0.59
 -7 -2 11  0.10  0.12
 -7 -2 11  0.09  0.07
 -7 -4 12  0.95  0.39
 -7 -4 12  0.58  0.24
 -7  5  7  0.68  0.39
  7 -5 -7  0.59  0.29
 -7  3  8  0.19  0.23
  7 -3 -8  0.27  0.15
 -7  1  9  3.25  0.75
 -7 -1 10  7.35  1.09
 -7 -1 10  8.74  0.61
 -7 -3 11  8.25  1.13
 -7 -3 11  6.71  0.74
 -7 -5 12  11.20  1.33
 -7 -5 12  10.95  1.14
 -7  6  6  0.32  0.24
 -7  4  7  0.47  0.30
  7 -4 -7  0.71  0.28
 -7  2  8  -0.07  0.23
  7 -2 -8  0.14  0.14
 -7  0  9  6.99  1.08
 -7 -2 10  1.08  0.39
  7  2 -10  1.37  0.26
 -7 -2 10  1.07  0.26
 -7 -4 11  1.51  0.47
 -7 -4 11  1.80  0.43
 -7  5  6  0.22  0.26
  7 -5 -6  -0.08  0.12
 -7  3  7  18.08  1.77
  7 -3 -7  15.07  1.17
 -7  1  8  39.23  2.59
 -7 -1  9  3.86  0.78
 -7 -1  9  4.00  0.45
 -7 -3 10  13.39  1.41
 -7 -3 10  12.65  1.07
 -7 -5 11  3.23  0.69
 -7 -5 11  3.15  0.63
  7 -6 -5  0.04  0.20
 -7  4  6  0.56  0.35
  7 -4 -6  0.36  0.21
 -7  2  7  2.99  0.70
  7 -2 -7  2.76  0.47
 -7  0  8  15.45  1.59
 -7  0  8  15.80  0.72
 -7 -2  9  0.16  0.12
  7  2 -9  0.34  0.14
 -7 -2  9  0.51  0.19
 -7 -4 10  -0.18  0.18
 -7 -4 10  0.29  0.17
 -7 -6 11  2.00  0.56
 -7  5  5  0.50  0.31
  7 -5 -5  0.39  0.23
 -7  3  6  33.70  2.39
  7 -3 -6  29.66  1.68
 -7  1  7  12.80  1.44
  7 -1 -7  11.93  0.90
 -7 -1  8  0.16  0.18
 -7 -1  8  0.28  0.12
  7  3 -9  4.11  0.43
 -7 -3  9  3.47  0.70
 -7 -3  9  3.57  0.59
 -7 -5 10  1.67  0.50
 -7 -5 10  1.18  0.37
  7 -6 -4  2.38  0.59
 -7  4  5  0.32  0.28
  7 -4 -5  0.18  0.15
 -7  2  6  24.44  1.99
  7 -2 -6  20.86  1.31
 -7  0  7  33.72  2.31
 -7  0  7  31.68  1.17
 -7 -2  8  0.61  0.29
  7  2 -8  0.55  0.19
 -7 -2  8  0.30  0.16
 -7 -4  9  11.92  1.28
 -7 -4  9  12.10  1.23
 -7 -6 10  0.44  0.31
  7 -5 -4  0.34  0.27
 -7  3  5  2.37  0.61
  7 -3 -5  3.10  0.59
 -7  1  6  32.81  2.25
  7 -1 -6  30.57  1.47
 -7  1  6  32.53  0.86
 -7 -1  7  0.48  0.18
 -7 -1  7  0.39  0.24
 -7 -3  8  0.00  0.08
 -7 -3  8  -0.14  0.13
  7  3 -8  0.04  0.04
 -7 -5  9  0.16  0.08
 -7 -5  9  0.31  0.19
  7 -6 -3  7.54  1.04
 -7  4  4  0.07  0.11
  7 -4 -4  0.11  0.15
 -7  2  5  3.02  0.70
  7 -2 -5  3.03  0.50
 -7  0  6  0.01  0.10
 -7  0  6  -0.01  0.16
  7  0 -6  0.02  0.09
 -7 -2  7  1.00  0.39
  7  2 -7  1.29  0.28
 -7 -4  8  3.40  0.66
 -7 -4  8  4.51  0.77
  7  4 -8  4.44  0.45
 -7 -6  9  0.80  0.36
  7 -5 -3  -0.03  0.14
 -7  3  4  0.93  0.38
  7 -3 -4  1.49  0.39
 -7  1  5  3.23  0.71
  7 -1 -5  2.16  0.40
 -7  1  5  2.65  0.30
 -7 -1  6  1.16  0.40
 -7 -3  7  4.28  0.77
  7  3 -7  4.64  0.50
 -7 -5  8  0.21  0.18
 -7 -5  8  0.40  0.24
  7 -6 -2  13.72  1.42
  7 -4 -3  5.02  0.77
 -7  2  4  4.58  0.84
  7 -2 -4  4.21  0.62
 -7  2  4  3.38  0.22
 -7  0  5  4.39  0.79
  7  0 -5  3.53  0.45
 -7 -2  6  5.21  0.82
  7  2 -6  4.64  0.55
  7  4 -7  4.11  0.45
 -7 -4  7  3.47  0.66
  7 -5 -2  0.25  0.22
  7 -3 -3  12.93  1.17
 -7  1  4  4.98  0.85
  7 -1 -4  5.02  0.63
 -7  1  4  5.10  0.30
 -7 -1  5  2.19  0.52
 -7 -3  6  1.49  0.43
  7  3 -6  1.27  0.27
  7  5 -7  2.78  0.36
  7 -6 -1  7.07  1.04
  7 -4 -2  1.87  0.48
 -7  2  3  5.70  0.90
  7 -2 -3  5.35  0.71
 -7  0  4  0.22  0.17
  7  0 -4  0.13  0.11
 -7 -2  5  1.25  0.34
 -7 -2  5  1.72  0.46
  7  2 -5  1.22  0.28
 -7 -4  6  3.74  0.64
  7  4 -6  3.73  0.44
  7 -7  0  0.28  0.16
  7 -5 -1  3.40  0.68
  7 -3 -2  -0.05  0.11
 -7  1  3  0.91  0.36
 -7  1  3  0.61  0.11
  7 -1 -3  0.58  0.21
 -7 -1  4  1.58  0.38
 -7 -1  4  1.63  0.45
  7  1 -4  1.60  0.27
  7  3 -5  3.07  0.42
 -7 -3  5  3.22  0.59
  7  5 -6  7.65  0.63
  7 -6  0  0.98  0.42
  7 -4 -1  7.07  0.95
 -7  2  2  1.03  0.13
  7 -2 -2  1.20  0.32
 -7  0  3  0.22  0.18
 -7  0  3  0.37  0.10
  7  0 -3  0.25  0.12
 -7 -2  4  0.04  0.05
 -7 -2  4  0.06  0.10
  7  2 -4  0.02  0.02
  7  4 -5  0.31  0.13
 -7 -4  5  0.32  0.20
  7  6 -6  8.70  0.67
  7 -5  0  0.19  0.12
  7 -3 -1  0.28  0.20
  7 -1 -2  12.27  1.00
 -7 -1  3  1.08  0.36
  7  1 -3  1.44  0.25
  7  1 -3  1.41  0.32
 -7 -3  4  1.40  0.37
  7  3 -4  1.34  0.29
  7  5 -5  10.47  0.78
  7 -6  1  2.53  0.65
  7 -4  0  1.08  0.38
  7 -2 -1  0.03  0.04
  7  0 -2  10.36  0.83
 -7  0  2  8.45  0.54
  7  2 -3  6.12  0.65
  7  4 -4  -0.03  0.08
  7  6 -5  1.06  0.25
  7 -5  1  9.06  1.18
  7 -3  0  1.25  0.39
  7 -1 -1  3.10  0.53
 -7  1  1  2.86  0.24
  7  1 -2  19.71  1.23
  7  1 -2  20.21  0.95
  7  3 -3  1.17  0.28
  7  5 -4  1.23  0.28
  7 -6  2  10.55  1.36
  7 -4  1  1.08  0.38
 -7  2  0  1.72  0.20
  7 -2  0  1.71  0.43
  7  0 -1  14.50  0.99
  7  2 -2  3.42  0.50
  7  4 -3  -0.24  0.12
  7  6 -4  0.30  0.28
  7 -5  2  4.40  0.84
  7 -3  1  0.25  0.18
  7 -1  0  16.45  1.21
 -7  1  0  16.49  0.61
  7  1 -1  0.09  0.07
  7  1 -1  0.08  0.02
  7  3 -2  0.16  0.13
  7  5 -3  0.27  0.12
  7  7 -4  0.07  0.08
  7 -6  3  13.35  1.56
  7 -4  2  12.95  1.37
  7 -2  1  4.51  0.71
 -7  2 -1  4.82  0.36
  7  0  0  2.03  0.41
  7  0  0  1.76  0.34
  7  2 -1  -0.01  0.10
  7  4 -2  0.09  0.05
  7  6 -3  0.17  0.09
  7 -5  3  1.12  0.42
  7 -3  2  11.46  1.25
  7 -1  1  3.41  0.58
  7  1  0  0.34  0.11
  7  1  0  0.18  0.12
  7  3 -1  0.49  0.18
  7  5 -2  0.35  0.16
  7 -6  4  22.45  2.05
  7 -4  3  13.12  1.42
  7 -2  2  0.29  0.18
  7  0  1  2.52  0.47
  7  0  1  1.98  0.37
  7  2  0  5.01  0.61
  7  4 -1  0.36  0.18
  7  6 -2  0.37  0.18
  7 -5  4  2.20  0.62
  7 -3  3  -0.05  0.07
  7 -1  2  0.21  0.14
  7  1  1  0.32  0.13
  7  1  1  0.46  0.20
  7  3  0  0.80  0.25
  7  5 -1  0.73  0.23
  7 -6  5  0.64  0.38
  7 -4  4  2.19  0.60
  7 -2  3  0.67  0.32
  7  0  2  1.30  0.33
  7  0  2  1.81  0.38
  7  2  1  0.66  0.25
  7  4  0  0.22  0.12
  7 -5  5  0.17  0.22
  7 -3  4  0.81  0.33
  7 -1  3  0.52  0.23
  7 -1  3  0.94  0.34
  7  1  2  2.28  0.44
  7  3  1  1.49  0.34
  7  5  0  2.21  0.41
  7 -4  5  2.83  0.68
  7 -2  4  3.74  0.62
  7 -2  4  3.77  0.70
  7  0  3  0.28  0.16
  7  0  3  0.28  0.13
  7  2  2  0.21  0.15
  7  4  1  0.41  0.18
  7 -5  6  3.04  0.74
  7 -5  6  2.02  0.39
  7 -3  5  0.49  0.25
  7 -1  4  1.07  0.33
  7 -1  4  1.15  0.35
  7  1  3  0.59  0.22
  7  3  2  4.50  0.60
  7 -4  6  0.12  0.15
  7 -2  5  0.04  0.10
  7 -2  5  0.21  0.13
  7  0  4  1.29  0.35
  7  2  3  2.47  0.47
  7 -5  7  0.52  0.32
  7 -5  7  0.26  0.10
  7 -3  6  0.04  0.10
  7 -3  6  0.07  0.01
  7 -1  5  0.31  0.24
  7 -1  5  0.30  0.17
  7  1  4  0.06  0.10
  7  3  3  0.16  0.13
  7 -4  7  0.43  0.25
  7 -4  7  0.07  0.04
  7 -2  6  0.64  0.34
  7 -2  6  0.99  0.31
  7  0  5  3.42  0.56
  7  2  4  19.06  1.28
  7 -5  8  -0.27  0.21
  7 -3  7  0.02  0.09
  7 -3  7  -0.02  0.05
  7 -1  6  0.33  0.22
  7  1  5  0.73  0.25
  7 -4  8  12.77  1.51
  7 -2  7  1.58  0.40
  7  0  6  0.45  0.21
  7 -3  8  0.08  0.11
 -8  0 11  0.18  0.30
 -8 -2 12  0.85  0.42
 -8  1 10  0.28  0.30
 -8 -1 11  8.42  1.30
 -8 -3 12  6.18  1.07
 -8  2  9  0.04  0.19
 -8  0 10  0.52  0.30
 -8 -2 11  0.55  0.28
 -8 -4 12  0.41  0.31
 -8  3  8  14.00  1.71
  8 -3 -8  13.03  1.11
 -8  1  9  0.37  0.25
 -8 -1 10  8.31  1.27
 -8 -3 11  0.11  0.15
 -8  4  7  2.98  0.79
  8 -4 -7  2.27  0.50
 -8  2  8  14.93  1.71
  8 -2 -8  14.31  1.10
 -8  0  9  0.63  0.33
 -8 -2 10  2.20  0.63
 -8 -4 11  0.94  0.37
 -8 -4 11  1.46  0.40
 -8  3  7  10.80  1.48
  8 -3 -7  9.20  0.95
 -8  1  8  0.43  0.29
 -8 -1  9  1.39  0.52
 -8 -3 10  0.03  0.13
 -8 -3 10  0.45  0.23
 -8 -5 11  1.41  0.46
 -8  4  6  11.20  1.51
  8 -4 -6  10.72  1.12
 -8  2  7  7.11  1.17
  8 -2 -7  6.54  0.74
 -8  0  8  2.03  0.62
 -8 -2  9  1.09  0.44
  8  2 -9  0.58  0.19
 -8 -4 10  0.54  0.30
 -8 -4 10  0.15  0.13
 -8  3  6  1.00  0.45
  8 -3 -6  1.54  0.40
 -8  1  7  2.62  0.71
  8 -1 -7  1.59  0.35
 -8 -1  8  0.18  0.26
 -8 -3  9  0.42  0.28
 -8 -3  9  0.40  0.19
 -8 -5 10  -0.07  0.11
 -8  4  5  -0.08  0.17
  8 -4 -5  -0.01  0.04
 -8  2  6  0.92  0.44
  8 -2 -6  0.75  0.26
 -8  0  7  1.98  0.58
 -8 -2  8  2.84  0.50
  8  2 -8  2.25  0.39
 -8 -2  8  2.63  0.67
 -8 -4  9  2.44  0.58
 -8 -4  9  2.89  0.68
  8 -5 -4  0.91  0.37
 -8  3  5  0.16  0.17
  8 -3 -5  0.15  0.07
 -8  1  6  1.28  0.50
  8 -1 -6  0.95  0.29
 -8 -1  7  0.04  0.07
 -8 -1  7  0.24  0.25
 -8 -3  8  2.64  0.55
  8  3 -8  3.85  0.48
 -8 -3  8  2.87  0.66
 -8 -5  9  0.64  0.29
  8 -4 -4  0.20  0.17
 -8  2  5  2.40  0.67
  8 -2 -5  1.90  0.43
 -8  0  6  0.14  0.15
  8  0 -6  0.10  0.14
 -8 -2  7  1.85  0.53
  8  2 -7  1.78  0.35
 -8 -4  8  0.24  0.09
 -8 -4  8  0.43  0.29
  8 -5 -3  2.27  0.57
  8 -3 -4  1.95  0.47
 -8  1  5  0.12  0.07
  8 -1 -5  0.02  0.04
 -8 -1  6  0.69  0.35
 -8 -3  7  2.23  0.58
  8  3 -7  1.90  0.35
  8 -4 -3  1.03  0.39
 -8  2  4  0.47  0.36
  8 -2 -4  0.17  0.12
 -8  0  5  0.24  0.24
  8  0 -5  0.11  0.10
  8  2 -6  3.61  0.51
 -8 -2  6  3.20  0.70
  8  4 -7  2.04  0.35
 -8 -4  7  2.62  0.60
  8 -5 -2  -0.07  0.15
  8 -3 -3  0.43  0.25
 -8  1  4  0.56  0.41
  8 -1 -4  0.14  0.13
 -8 -1  5  4.06  0.79
  8  1 -5  2.91  0.48
 -8 -3  6  14.22  1.40
  8  3 -6  14.03  0.98
  8 -4 -2  4.54  0.79
  8 -2 -3  5.58  0.75
 -8  0  4  1.51  0.48
  8  0 -4  1.23  0.29
 -8 -2  5  1.47  0.45
  8  2 -5  0.89  0.27
  8  4 -6  9.34  0.78
  8 -5 -1  0.08  0.20
  8 -3 -2  15.33  1.38
  8 -1 -3  13.79  1.11
 -8 -1  4  0.23  0.15
  8  1 -4  0.28  0.17
 -8 -3  5  7.00  0.94
  8  3 -5  7.74  0.74
  8  5 -6  12.54  0.89
  8 -4 -1  0.76  0.35
  8 -2 -2  6.62  0.86
  8  0 -3  0.01  0.06
  8  2 -4  0.03  0.08
  8  4 -5  3.52  0.50
  8 -5  0  0.98  0.40
  8 -3 -1  12.73  1.29
  8 -1 -2  1.25  0.35
  8  1 -3  2.14  0.31
  8  1 -3  1.59  0.36
  8  3 -4  0.19  0.15
  8  5 -5  0.28  0.14
  8 -4  0  0.05  0.15
  8 -2 -1  2.33  0.52
  8  0 -2  2.34  0.40
  8  2 -3  3.11  0.50
  8  4 -4  0.39  0.18
  8 -5  1  0.81  0.36
  8 -3  0  0.03  0.01
  8 -1 -1  0.31  0.17
  8  1 -2  0.04  0.06
  8  3 -3  2.26  0.42
  8  5 -4  0.09  0.06
  8 -4  1  1.71  0.49
  8 -2  0  2.24  0.51
  8  0 -1  5.26  0.71
  8  0 -1  6.03  0.67
  8  2 -2  3.64  0.55
  8  4 -3  -0.05  0.06
  8 -5  2  1.15  0.45
  8 -3  1  0.05  0.16
  8 -1  0  0.01  0.13
  8  1 -1  0.14  0.13
  8  3 -2  1.31  0.32
  8  5 -3  0.31  0.18
  8 -4  2  -0.01  0.18
  8 -2  1  2.88  0.61
  8  0  0  0.41  0.20
  8  0  0  0.62  0.22
  8  2 -1  0.41  0.20
  8  4 -2  2.79  0.47
  8 -5  3  1.01  0.45
  8 -3  2  0.34  0.27
  8 -1  1  0.72  0.29
  8 -1  1  0.53  0.23
  8  1  0  0.06  0.11
  8  3 -1  1.96  0.41
  8 -4  3  3.88  0.80
  8 -2  2  0.04  0.12
  8  0  1  0.34  0.16
  8  2  0  1.38  0.36
  8  4 -1  0.95  0.29
  8 -5  4  0.49  0.28
  8 -3  3  0.21  0.21
  8 -1  2  0.72  0.27
  8 -1  2  0.68  0.28
  8  1  1  16.88  1.26
  8  3  0  0.00  0.02
  8 -4  4  0.06  0.05
  8 -2  3  0.25  0.16
  8 -2  3  0.36  0.24
  8  0  2  0.68  0.28
  8  2  1  0.15  0.13
  8 -3  4  0.12  0.03
  8 -1  3  1.84  0.47
  8  1  2  -0.06  0.09
  8 -4  5  0.16  0.23
  8 -2  4  1.01  0.33
  8 -2  4  0.57  0.29
  8  0  3  7.76  0.90
  8 -3  5  2.73  0.67
  8 -4  6  0.86  0.39
  9 -2 -8  6.18  0.76
 -9 -2 10  3.03  0.79
 -9  1  8  1.74  0.61
 -9 -1  9  0.38  0.29
 -9 -3 10  0.07  0.11
  9 -2 -7  0.14  0.19
 -9  0  8  0.67  0.40
 -9 -2  9  3.77  0.87
  9 -3 -6  1.11  0.34
 -9  1  7  -0.16  0.27
  9 -1 -7  0.04  0.11
 -9 -1  8  2.00  0.62
 -9 -3  9  1.49  0.50
 -9  2  6  3.32  0.85
  9 -2 -6  2.54  0.50
 -9  0  7  2.66  0.73
 -9 -2  8  0.79  0.42
  9 -3 -5  0.14  0.21
 -9  1  6  0.06  0.18
  9 -1 -6  0.16  0.16
 -9 -1  7  10.42  1.42
  9  1 -7  8.49  0.85
 -9 -3  8  3.84  0.83
  9 -2 -5  0.80  0.29
 -9  0  6  0.24  0.30
 -9 -2  7  3.29  0.76
  9  2 -7  2.44  0.43
  9 -3 -4  3.83  0.71
 -9  1  5  7.32  1.19
  9 -1 -5  6.27  0.73
 -9 -1  6  6.74  1.11
  9  1 -6  6.38  0.76
 -9 -3  7  7.38  1.11
  9  3 -7  6.55  0.69
  9 -4 -3  3.71  0.72
  9 -2 -4  -0.05  0.12
 -9  0  5  3.53  0.79
  9  0 -5  3.03  0.45
 -9 -2  6  0.99  0.40
  9  2 -6  1.42  0.33
  9 -3 -3  9.86  1.14
  9 -1 -4  3.09  0.53
  9  1 -5  0.77  0.27
  9  3 -6  6.75  0.72
  9 -4 -2  0.52  0.32
  9 -2 -3  0.06  0.04
  9  0 -4  0.67  0.24
  9  2 -5  1.28  0.33
  9 -3 -2  2.05  0.53
  9 -1 -3  1.20  0.32
  9  1 -4  0.92  0.27
  9  3 -5  1.89  0.38
  9 -4 -1  1.63  0.50
  9 -2 -2  0.11  0.14
  9  0 -3  0.08  0.04
  9  2 -4  0.02  0.09
  9  4 -5  0.00  0.04
  9 -3 -1  0.00  0.09
  9 -1 -2  -0.09  0.16
  9  1 -3  2.20  0.47
  9  3 -4  -0.13  0.12
  9 -4  0  0.68  0.36
  9 -2 -1  3.43  0.65
  9  0 -2  2.73  0.54
  9  2 -3  4.15  0.61
  9 -3  0  0.25  0.17
  9  1 -2  0.41  0.22
  9  3 -3  0.21  0.12
  9 -4  1  2.23  0.62
  9 -2  0  0.34  0.18
  9  0 -1  2.25  0.49
  9  2 -2  0.22  0.17
  9 -3  1  0.31  0.22
  9  1 -1  0.38  0.19
  9 -4  2  1.39  0.45
  9 -3  2  0.09  0.15
  9 -4  3  0.16  0.10
 10 -1 -6  3.57  0.56
 10 -2 -4  0.27  0.20
  0  0  0  0.00  0.00
;
_shelx_hkl_checksum              71680
_shelx_res_file
;
TITL 2-F in P-1
  2-F.res
  created by SHELXL-2017/1 at 19:47:16 on 02-Jul-2019
CELL 0.71073  7.3336  7.9301 12.5780 107.140 104.982 94.285
ZERR  2.00  0.0006  0.0007  0.0012  0.008  0.007  0.007
LATT 1
SFAC C H O F
UNIT 36 30 4 2
omit -3 0 3
OMIT -3.00 51.00
L.S. 12
ACTA
BOND $H
FMAP 2
PLAN 20
HTAB C18 O2_$1
HTAB C1 O1_$1
EQIV $1 -x+2, -y+1, -z+1
htab
conf
size 0.14 0.13 0.11
WGHT  0.046000  0.108500
FVAR    0.28054
MOLE 1
C1  1  0.721892  0.360640  0.511405  11.00000  0.01729  0.01280 =
     0.02068  0.00609  0.00922  0.00340
AFIX 43
H1  2  0.771228  0.397728  0.459412  11.00000  -1.20000
AFIX  0
C2  1  0.837578  0.387409  0.622697  11.00000  0.01389  0.01244 =
     0.02147  0.00395  0.00717  0.00199
C3  1  0.762115  0.334828  0.701033  11.00000  0.01917  0.01992 =
     0.01722  0.00581  0.00420  0.00355
AFIX 43
H3  2  0.838697  0.353096  0.776307  11.00000  -1.20000
AFIX  0
C4  1  0.572341  0.255182  0.666112  11.00000  0.02223  0.01880 =
     0.02167  0.00816  0.01243  0.00392
AFIX 43
H4  2  0.522910  0.221566  0.719243  11.00000  -1.20000
AFIX  0
C5  1  0.252250  0.124305  0.515452  11.00000  0.01815  0.01650 =
     0.02214  0.00674  0.01177  0.00272
AFIX 23
H5A  2  0.198841  0.156389  0.580286  11.00000  -1.20000
H5B  2  0.255855  -0.003073  0.494067  11.00000  -1.20000
AFIX  0
C6  1  0.121287  0.163112  0.412471  11.00000  0.01304  0.01801 =
     0.02135  0.00467  0.00687  -0.00017
AFIX 23
H6A  2  0.003819  0.077116  0.381316  11.00000  -1.20000
H6B  2  0.088339  0.281330  0.439371  11.00000  -1.20000
AFIX  0
C7  1  0.212747  0.154103  0.317323  11.00000  0.01508  0.01554 =
     0.02184  0.00838  0.00675  0.00370
C8  1  0.416903  0.243185  0.353631  11.00000  0.01731  0.01511 =
     0.02175  0.00647  0.00902  0.00477
C9  1  0.531409  0.278270  0.476503  11.00000  0.01509  0.01180 =
     0.01973  0.00463  0.00831  0.00441
C10  1  0.453370  0.223889  0.554109  11.00000  0.01594  0.01325 =
     0.02223  0.00547  0.00906  0.00468
C11  1  0.133494  0.067262  0.203639  11.00000  0.01641  0.02104 =
     0.02243  0.01017  0.00805  0.00435
AFIX 43
H11  2  0.209750  0.074230  0.155901  11.00000  -1.20000
AFIX  0
C12  1  -0.059329  -0.037918  0.144718  11.00000  0.01753  0.02158 =
     0.01867  0.01021  0.00495  0.00311
C13  1  -0.086285  -0.196495  0.053709  11.00000  0.02189  0.02854 =
     0.01887  0.00966  0.00758  0.00492
C14  1  -0.260547  -0.301756  -0.007262  11.00000  0.03157  0.02897 =
     0.01767  0.00318  0.00319  -0.00369
AFIX 43
H14  2  -0.270830  -0.407259  -0.067319  11.00000  -1.20000
AFIX  0
C15  1  -0.420676  -0.247990  0.022287  11.00000  0.01999  0.03745 =
     0.02370  0.01268  -0.00201  -0.00723
AFIX 43
H15  2  -0.540278  -0.318152  -0.017339  11.00000  -1.20000
AFIX  0
C16  1  -0.402925  -0.089935  0.110736  11.00000  0.01541  0.03567 =
     0.02579  0.01463  0.00464  0.00382
AFIX 43
H16  2  -0.511128  -0.052936  0.129795  11.00000  -1.20000
AFIX  0
C17  1  -0.224899  0.013910  0.171287  11.00000  0.01973  0.02242 =
     0.02347  0.00990  0.00524  0.00382
AFIX 43
H17  2  -0.215211  0.120052  0.230704  11.00000  -1.20000
AFIX  0
C18  1  1.150710  0.482977  0.759227  11.00000  0.01590  0.03090 =
     0.02014  0.00716  0.00110  -0.00151
AFIX 137
H18A 2  1.107737  0.560376  0.819054  11.00000  -1.50000
H18B 2  1.277251  0.533148  0.764463  11.00000  -1.50000
H18C 2  1.152546  0.367514  0.769061  11.00000  -1.50000
AFIX  0
F1  4  0.071648  -0.251419  0.024964  11.00000  0.02871  0.03809 =
     0.02772  0.00100  0.01326  0.00663
O1  3  1.023697  0.464971  0.647839  11.00000  0.01278  0.02337 =
     0.01964  0.00787  0.00325  -0.00104
O2  3  0.489464  0.278902  0.283866  11.00000  0.01876  0.03476 =
     0.02075  0.01120  0.00711  -0.00318
HKLF 4
REM 2-F in P-1
REM R1 = 0.0423 for  2111 Fo > 4sig(Fo) and 0.0498 for all  2483 data
REM  191 parameters refined using   0 restraints
END
WGHT   0.0460   0.1085
REM Instructions for potential hydrogen bonds
HTAB C1 O1_$1
HTAB C18 O2_$1
REM Highest difference peak 0.195, deepest hole -0.260, 1-sigma level 0.055
Q1  1 -0.1630 -0.2738 0.0610 11.00000 0.05  0.20
Q2  1 -0.0603 -0.1527 0.1275 11.00000 0.05  0.19
Q3  1  0.4806 0.2850 0.5137 11.00000 0.05  0.18
Q4  1  0.4914 0.2411 0.5085 11.00000 0.05  0.17
Q5  1  0.1132 0.3875 0.4184 11.00000 0.05  0.16
Q6  1  0.2758 -0.0933 0.4665 11.00000 0.05  0.16
Q7  1 -0.3108 -0.0063 0.1041 11.00000 0.05  0.16
Q8  1  0.1807 -0.1529 0.3792 11.00000 0.05  0.16
Q9  1  0.9988 0.5886 0.6378 11.00000 0.05  0.15
Q10  1 -0.5362 -0.0008 0.1809 11.00000 0.05  0.15
Q11  1 -0.6313 0.0596 0.0599 11.00000 0.05  0.15
Q12  1  0.1595 0.1597 0.3641 11.00000 0.05  0.15
Q13  1 -0.1976 -0.4627 -0.0727 11.00000 0.05  0.15
Q14  1  0.5816 0.0358 0.6357 11.00000 0.05  0.15
Q15  1  0.6521 0.3596 0.6807 11.00000 0.05  0.15
Q16  1  0.8978 0.1573 0.7971 11.00000 0.05  0.14
Q17  1 -0.2201 0.1384 0.1856 11.00000 0.05  0.14
Q18  1  0.2109 -0.0047 0.1384 11.00000 0.05  0.14
Q19  1  0.2672 -0.0882 0.2647 11.00000 0.05  0.14
Q20  1 -0.1775 -0.2054 -0.0029 11.00000 0.05  0.14
;
_shelx_res_checksum              74944
loop_
_space_group_symop_operation_xyz
'x, y, z'
'-x, -y, -z'
loop_
_atom_site_type_symbol
_atom_site_label
_atom_site_fract_x
_atom_site_fract_y
_atom_site_fract_z
_atom_site_U_iso_or_equiv
_atom_site_adp_type
_atom_site_calc_flag
_atom_site_occupancy
C C1 0.7219(2) 0.36064(18) 0.51141(12) 0.0160(3) Uani d 1
H H1 0.771228 0.397728 0.459412 0.019 Uiso calc 1
C C2 0.8376(2) 0.38741(18) 0.62270(12) 0.0159(3) Uani d 1
C C3 0.7621(2) 0.3348(2) 0.70103(13) 0.0190(3) Uani d 1
H H3 0.838697 0.353096 0.776307 0.023 Uiso calc 1
C C4 0.5723(2) 0.25518(19) 0.66611(13) 0.0193(3) Uani d 1
H H4 0.522910 0.221566 0.719243 0.023 Uiso calc 1
C C5 0.2523(2) 0.12430(19) 0.51545(12) 0.0177(3) Uani d 1
H H5A 0.198841 0.156389 0.580286 0.021 Uiso calc 1
H H5B 0.255855 -0.003073 0.494067 0.021 Uiso calc 1
C C6 0.1213(2) 0.1631(2) 0.41247(12) 0.0177(3) Uani d 1
H H6A 0.003819 0.077116 0.381316 0.021 Uiso calc 1
H H6B 0.088339 0.281330 0.439371 0.021 Uiso calc 1
C C7 0.2127(2) 0.15410(19) 0.31732(12) 0.0166(3) Uani d 1
C C8 0.4169(2) 0.24318(19) 0.35363(12) 0.0172(3) Uani d 1
C C9 0.5314(2) 0.27827(18) 0.47650(12) 0.0149(3) Uani d 1
C C10 0.4534(2) 0.22389(18) 0.55411(12) 0.0164(3) Uani d 1
C C11 0.1335(2) 0.0673(2) 0.20364(13) 0.0187(3) Uani d 1
H H11 0.209750 0.074230 0.155901 0.022 Uiso calc 1
C C12 -0.0593(2) -0.0379(2) 0.14472(12) 0.0185(3) Uani d 1
C C13 -0.0863(2) -0.1965(2) 0.05371(13) 0.0223(4) Uani d 1
C C14 -0.2605(2) -0.3018(2) -0.00726(13) 0.0284(4) Uani d 1
H H14 -0.270830 -0.407259 -0.067319 0.034 Uiso calc 1
C C15 -0.4207(2) -0.2480(2) 0.02229(13) 0.0288(4) Uani d 1
H H15 -0.540278 -0.318152 -0.017339 0.035 Uiso calc 1
C C16 -0.4029(2) -0.0899(2) 0.11074(13) 0.0249(4) Uani d 1
H H16 -0.511128 -0.052936 0.129795 0.030 Uiso calc 1
C C17 -0.2249(2) 0.0139(2) 0.17129(13) 0.0215(4) Uani d 1
H H17 -0.215211 0.120052 0.230704 0.026 Uiso calc 1
C C18 1.1507(2) 0.4830(2) 0.75923(13) 0.0237(4) Uani d 1
H H18A 1.107737 0.560376 0.819054 0.036 Uiso calc 1
H H18B 1.277251 0.533148 0.764463 0.036 Uiso calc 1
H H18C 1.152546 0.367514 0.769061 0.036 Uiso calc 1
F F1 0.07165(13) -0.25142(13) 0.02496(8) 0.0327(3) Uani d 1
O O1 1.02370(14) 0.46497(13) 0.64784(8) 0.0189(3) Uani d 1
O O2 0.48946(15) 0.27890(15) 0.28387(9) 0.0244(3) Uani d 1
loop_
_atom_site_aniso_label
_atom_site_aniso_U_11
_atom_site_aniso_U_22
_atom_site_aniso_U_33
_atom_site_aniso_U_12
_atom_site_aniso_U_13
_atom_site_aniso_U_23
C1 0.0173(8) 0.0128(7) 0.0207(7) 0.0034(6) 0.0092(6) 0.0061(6)
C2 0.0139(7) 0.0124(7) 0.0215(7) 0.0020(6) 0.0072(6) 0.0040(6)
C3 0.0192(8) 0.0199(8) 0.0172(7) 0.0036(6) 0.0042(6) 0.0058(6)
C4 0.0222(8) 0.0188(8) 0.0217(8) 0.0039(6) 0.0124(6) 0.0082(6)
C5 0.0182(8) 0.0165(7) 0.0221(8) 0.0027(6) 0.0118(6) 0.0067(6)
C6 0.0130(7) 0.0180(8) 0.0214(8) -0.0002(6) 0.0069(6) 0.0047(6)
C7 0.0151(8) 0.0155(7) 0.0218(8) 0.0037(6) 0.0067(6) 0.0084(6)
C8 0.0173(8) 0.0151(7) 0.0218(8) 0.0048(6) 0.0090(6) 0.0065(6)
C9 0.0151(7) 0.0118(7) 0.0197(7) 0.0044(6) 0.0083(6) 0.0046(6)
C10 0.0159(8) 0.0132(7) 0.0222(7) 0.0047(6) 0.0091(6) 0.0055(6)
C11 0.0164(8) 0.0210(8) 0.0224(8) 0.0043(6) 0.0081(6) 0.0102(6)
C12 0.0175(8) 0.0216(8) 0.0187(7) 0.0031(6) 0.0049(6) 0.0102(6)
C13 0.0219(9) 0.0285(9) 0.0189(8) 0.0049(7) 0.0076(6) 0.0097(7)
C14 0.0316(10) 0.0290(9) 0.0177(8) -0.0037(7) 0.0032(7) 0.0032(7)
C15 0.0200(9) 0.0374(10) 0.0237(8) -0.0072(7) -0.0020(7) 0.0127(8)
C16 0.0154(8) 0.0357(10) 0.0258(8) 0.0038(7) 0.0046(7) 0.0146(7)
C17 0.0197(8) 0.0224(8) 0.0235(8) 0.0038(6) 0.0052(7) 0.0099(7)
C18 0.0159(8) 0.0309(9) 0.0201(8) -0.0015(7) 0.0011(6) 0.0072(7)
F1 0.0287(6) 0.0381(6) 0.0277(5) 0.0066(4) 0.0133(4) 0.0010(4)
O1 0.0128(5) 0.0234(6) 0.0196(5) -0.0010(4) 0.0032(4) 0.0079(4)
O2 0.0188(6) 0.0348(7) 0.0208(6) -0.0032(5) 0.0071(5) 0.0112(5)
loop_
_atom_type_symbol
_atom_type_description
_atom_type_scat_dispersion_real
_atom_type_scat_dispersion_imag
_atom_type_scat_source
C C 0.0033 0.0016 'International Tables Vol C Tables 4.2.6.8 and 6.1.1.4'
H H 0.0000 0.0000 'International Tables Vol C Tables 4.2.6.8 and 6.1.1.4'
O O 0.0106 0.0060 'International Tables Vol C Tables 4.2.6.8 and 6.1.1.4'
F F 0.0171 0.0103 'International Tables Vol C Tables 4.2.6.8 and 6.1.1.4'
loop_
_geom_angle_atom_site_label_1
_geom_angle_atom_site_label_2
_geom_angle_atom_site_label_3
_geom_angle
C2 C1 C9 120.41(13)
C2 C1 H1 119.8
C9 C1 H1 119.8
O1 C2 C1 116.13(12)
O1 C2 C3 124.25(13)
C1 C2 C3 119.62(13)
C4 C3 C2 119.58(13)
C4 C3 H3 120.2
C2 C3 H3 120.2
C3 C4 C10 122.07(14)
C3 C4 H4 119.0
C10 C4 H4 119.0
C10 C5 C6 113.30(12)
C10 C5 H5A 108.9
C6 C5 H5A 108.9
C10 C5 H5B 108.9
C6 C5 H5B 108.9
H5A C5 H5B 107.7
C7 C6 C5 112.34(12)
C7 C6 H6A 109.1
C5 C6 H6A 109.1
C7 C6 H6B 109.1
C5 C6 H6B 109.1
H6A C6 H6B 107.9
C11 C7 C8 116.35(13)
C11 C7 C6 126.58(13)
C8 C7 C6 116.99(12)
O2 C8 C9 121.03(13)
O2 C8 C7 121.45(13)
C9 C8 C7 117.45(12)
C1 C9 C10 120.70(13)
C1 C9 C8 118.05(13)
C10 C9 C8 121.19(13)
C4 C10 C9 117.60(13)
C4 C10 C5 121.03(13)
C9 C10 C5 121.24(13)
C7 C11 C12 128.04(14)
C7 C11 H11 116.0
C12 C11 H11 116.0
C13 C12 C17 115.84(14)
C13 C12 C11 119.95(14)
C17 C12 C11 124.17(13)
F1 C13 C14 118.31(14)
F1 C13 C12 117.63(13)
C14 C13 C12 124.05(15)
C13 C14 C15 118.61(15)
C13 C14 H14 120.7
C15 C14 H14 120.7
C16 C15 C14 119.87(15)
C16 C15 H15 120.1
C14 C15 H15 120.1
C15 C16 C17 120.38(15)
C15 C16 H16 119.8
C17 C16 H16 119.8
C16 C17 C12 121.22(14)
C16 C17 H17 119.4
C12 C17 H17 119.4
O1 C18 H18A 109.5
O1 C18 H18B 109.5
H18A C18 H18B 109.5
O1 C18 H18C 109.5
H18A C18 H18C 109.5
H18B C18 H18C 109.5
C2 O1 C18 117.62(11)
loop_
_geom_bond_atom_site_label_1
_geom_bond_atom_site_label_2
_geom_bond_distance
C1 C2 1.381(2)
C1 C9 1.396(2)
C1 H1 0.9300
C2 O1 1.3704(17)
C2 C3 1.393(2)
C3 C4 1.385(2)
C3 H3 0.9300
C4 C10 1.391(2)
C4 H4 0.9300
C5 C10 1.5048(19)
C5 C6 1.527(2)
C5 H5A 0.9700
C5 H5B 0.9700
C6 C7 1.5030(19)
C6 H6A 0.9700
C6 H6B 0.9700
C7 C11 1.337(2)
C7 C8 1.499(2)
C8 O2 1.2243(17)
C8 C9 1.487(2)
C9 C10 1.402(2)
C11 C12 1.470(2)
C11 H11 0.9300
C12 C13 1.389(2)
C12 C17 1.399(2)
C13 F1 1.3642(18)
C13 C14 1.369(2)
C14 C15 1.381(2)
C14 H14 0.9300
C15 C16 1.380(2)
C15 H15 0.9300
C16 C17 1.385(2)
C16 H16 0.9300
C17 H17 0.9300
C18 O1 1.4277(17)
C18 H18A 0.9600
C18 H18B 0.9600
C18 H18C 0.9600
loop_
_geom_hbond_atom_site_label_D
_geom_hbond_atom_site_label_H
_geom_hbond_atom_site_label_A
_geom_hbond_site_symmetry_A
_geom_hbond_distance_DH
_geom_hbond_distance_HA
_geom_hbond_distance_DA
_geom_hbond_angle_DHA
_geom_hbond_publ_flag
C18 H18B O2 2_766 0.96 2.49 3.3795(19) 154 yes
C1 H1 O1 2_766 0.93 2.63 3.5475(18) 168 yes
loop_
_geom_torsion_atom_site_label_1
_geom_torsion_atom_site_label_2
_geom_torsion_atom_site_label_3
_geom_torsion_atom_site_label_4
_geom_torsion
C9 C1 C2 O1 178.32(12)
C9 C1 C2 C3 -1.2(2)
O1 C2 C3 C4 -179.08(13)
C1 C2 C3 C4 0.5(2)
C2 C3 C4 C10 0.6(2)
C10 C5 C6 C7 46.60(17)
C5 C6 C7 C11 132.15(15)
C5 C6 C7 C8 -44.41(17)
C11 C7 C8 O2 20.0(2)
C6 C7 C8 O2 -163.05(14)
C11 C7 C8 C9 -156.89(13)
C6 C7 C8 C9 20.02(18)
C2 C1 C9 C10 1.0(2)
C2 C1 C9 C8 -176.44(12)
O2 C8 C9 C1 2.9(2)
C7 C8 C9 C1 179.80(12)
O2 C8 C9 C10 -174.57(13)
C7 C8 C9 C10 2.4(2)
C3 C4 C10 C9 -0.8(2)
C3 C4 C10 C5 175.18(13)
C1 C9 C10 C4 0.0(2)
C8 C9 C10 C4 177.40(12)
C1 C9 C10 C5 -175.98(13)
C8 C9 C10 C5 1.4(2)
C6 C5 C10 C4 157.80(13)
C6 C5 C10 C9 -26.33(19)
C8 C7 C11 C12 176.97(14)
C6 C7 C11 C12 0.4(3)
C7 C11 C12 C13 -140.31(16)
C7 C11 C12 C17 42.1(2)
C17 C12 C13 F1 179.87(13)
C11 C12 C13 F1 2.1(2)
C17 C12 C13 C14 -1.2(2)
C11 C12 C13 C14 -179.02(14)
F1 C13 C14 C15 179.26(14)
C12 C13 C14 C15 0.3(2)
C13 C14 C15 C16 0.8(2)
C14 C15 C16 C17 -1.0(2)
C15 C16 C17 C12 0.0(2)
C13 C12 C17 C16 1.0(2)
C11 C12 C17 C16 178.71(13)
C1 C2 O1 C18 -175.63(12)
C3 C2 O1 C18 3.9(2)

_cod_database_fobs_code 2021731
