#------------------------------------------------------------------------------
#$Date: 2019-08-29 07:13:12 +0300 (Thu, 29 Aug 2019) $
#$Revision: 217821 $
#$URL: file:///home/coder/svn-repositories/cod/cif/2/02/17/2021758.cif $
#------------------------------------------------------------------------------
#
# This file is available in the Crystallography Open Database (COD),
# http://www.crystallography.net/. The original data for this entry
# were provided by IUCr Journals, http://journals.iucr.org/.
#
# The file may be used within the scientific community so long as
# proper attribution is given to the journal article from which the
# data were obtained.
#
data_2021758
loop_
_publ_author_name
'Meundaeng, Natthaya'
'Prior, Timothy John'
'Rujiwatra, Apinpus'
_publ_section_title
;
 Crystal structures and Hirshfeld surface analysis of transition-metal
 complexes of 1,3-azolecarboxylic acids
;
_journal_coeditor_code           FN3320
_journal_issue                   9
_journal_name_full               'Acta Crystallographica Section C'
_journal_page_first
;
;
_journal_paper_doi               10.1107/S2053229619011525
_journal_volume                  75
_journal_year                    2019
_chemical_formula_iupac          '[Co (C4 H2 N O3)2 (H2 O)2]'
_chemical_formula_moiety         'C8 H8 Co N2 O8'
_chemical_formula_sum            'C8 H8 Co N2 O8'
_chemical_formula_weight         319.09
_chemical_name_systematic
;
Diaquabis(1,3-oxazole-4-carboxylato-\k^2^<i>N</i>,<i>O</i>^4^)cobalt(II)
;
_space_group_crystal_system      monoclinic
_space_group_IT_number           14
_space_group_name_Hall           '-P 2ybc'
_space_group_name_H-M_alt        'P 1 21/c 1'
_symmetry_space_group_name_Hall  '-P 2ybc'
_symmetry_space_group_name_H-M   'P 1 21/c 1'
_atom_sites_solution_hydrogens   difmap
_audit_creation_method           SHELXL-2018/3
_cell_angle_alpha                90
_cell_angle_beta                 99.378(10)
_cell_angle_gamma                90
_cell_formula_units_Z            2
_cell_length_a                   5.1664(7)
_cell_length_b                   10.9879(15)
_cell_length_c                   9.7550(11)
_cell_measurement_reflns_used    2467
_cell_measurement_temperature    150(2)
_cell_measurement_theta_max      29.4
_cell_measurement_theta_min      2.8
_cell_volume                     546.37(12)
_computing_cell_refinement
;
X-AREA (Stoe & Cie, 2016)
;
_computing_data_collection
;
X-AREA (Stoe & Cie, 2016)
;
_computing_data_reduction
;
SORTAV (Blessing, 1987, 1989)
;
_computing_structure_refinement
;
SHELXL2018 (Sheldrick, 2015b)
;
_computing_structure_solution
;
SHELXS86 (Sheldrick, 2008)
;
_diffrn_ambient_temperature      150(2)
_diffrn_detector_area_resol_mean 6.67
_diffrn_measured_fraction_theta_full 0.997
_diffrn_measured_fraction_theta_max 0.993
_diffrn_measurement_device_type  'Stoe IPDS2'
_diffrn_measurement_method       \w-scans
_diffrn_radiation_type           MoK\a
_diffrn_radiation_wavelength     0.71073
_diffrn_reflns_av_R_equivalents  0.0244
_diffrn_reflns_av_unetI/netI     0.0416
_diffrn_reflns_limit_h_max       6
_diffrn_reflns_limit_h_min       -7
_diffrn_reflns_limit_k_max       15
_diffrn_reflns_limit_k_min       -13
_diffrn_reflns_limit_l_max       12
_diffrn_reflns_limit_l_min       -13
_diffrn_reflns_number            2995
_diffrn_reflns_theta_full        25.242
_diffrn_reflns_theta_max         29.161
_diffrn_reflns_theta_min         2.813
_diffrn_source                   'fine-focus sealed tube'
_exptl_absorpt_coefficient_mu    1.613
_exptl_absorpt_correction_T_max  0.948
_exptl_absorpt_correction_T_min  0.942
_exptl_absorpt_correction_type   multi-scan
_exptl_absorpt_process_details
;
(SORTAV; Blessing, 1995)
;
_exptl_crystal_colour            pink
_exptl_crystal_density_diffrn    1.940
_exptl_crystal_description       rod
_exptl_crystal_F_000             322
_exptl_crystal_size_max          0.200
_exptl_crystal_size_mid          0.110
_exptl_crystal_size_min          0.110
_refine_diff_density_max         0.371
_refine_diff_density_min         -0.278
_refine_ls_extinction_method     none
_refine_ls_goodness_of_fit_ref   0.908
_refine_ls_hydrogen_treatment    refall
_refine_ls_matrix_type           full
_refine_ls_number_parameters     98
_refine_ls_number_reflns         1458
_refine_ls_number_restraints     0
_refine_ls_restrained_S_all      0.908
_refine_ls_R_factor_all          0.0401
_refine_ls_R_factor_gt           0.0247
_refine_ls_shift/su_max          0.000
_refine_ls_shift/su_mean         0.000
_refine_ls_structure_factor_coef Fsqd
_refine_ls_weighting_details
'w=1/[\s^2^(Fo^2^)+(0.0281P)^2^] where P=(Fo^2^+2Fc^2^)/3'
_refine_ls_weighting_scheme      calc
_refine_ls_wR_factor_gt          0.0502
_refine_ls_wR_factor_ref         0.0522
_reflns_number_gt                1104
_reflns_number_total             1458
_reflns_threshold_expression     'I > 2\s(I)'
_cod_data_source_file            fn3320sup1.cif
_cod_data_source_block           Co-4oxa
_cod_database_code               2021758
_shelx_space_group_comment
;
The symmetry employed for this shelxl refinement is uniquely defined
by the following loop, which should always be used as a source of
symmetry information in preference to the above space-group names.
They are only intended as comments.
;
_shelx_estimated_absorpt_t_min   0.739
_shelx_estimated_absorpt_t_max   0.843
_shelx_hkl_file
;
  -7  -2   2   73.11   17.12
  -7  -1   1  251.94   14.56
  -7  -1   2  -24.29   18.37
  -7  -1   3  170.51   17.24
  -7   0   1    7.33   16.03
  -7   0   2  317.94   14.71
  -7   0   3  -13.39   18.10
  -7   0   4   83.24   17.09
  -7   1   1  243.29   19.17
  -7   1   2    0.15   12.83
  -7   1   3  160.99   18.23
  -7   2   2   74.88   16.74
  -6  -7   1  242.90   18.20
   6   7  -1  211.67   17.08
  -6  -7   2   -0.98   17.76
   6   7  -2   -3.97   15.71
  -6  -7   3   54.81   18.18
   6   7  -3   66.48   17.60
   6   7  -4  -10.14   18.31
  -6  -7   4   19.95   13.86
  -6  -7   5  117.18   18.93
   6   7  -5  103.33   18.76
   6   6  -1    9.89   11.73
  -6  -6   1   -5.60   16.42
   6   6  -2  240.47   15.83
  -6  -6   2  255.26   17.54
   6   6  -3   15.20   12.26
  -6  -6   3   13.77   12.44
   6   6  -4  173.89   15.99
  -6  -6   4  184.67   18.01
  -6  -6   5    9.38   12.87
   6   6  -5   10.29   12.49
  -6  -6   6  132.04   14.19
   6   6  -6  141.81   16.87
  -6  -5   1   71.01   16.33
   6   5  -1   63.18   15.77
   6   5  -2   34.50   11.42
  -6  -5   2   26.34   15.69
  -6  -5   3  139.14   11.80
   6   5  -3  165.52   15.76
   6   5  -4   19.81   16.15
  -6  -5   4   27.46   16.58
  -6  -5   5  147.49   17.47
   6   5  -5  144.43   16.82
   6   5  -6   18.77   12.51
  -6  -5   6    4.48   17.49
   6   5  -7   32.00   18.60
  -6  -5   7   23.34   17.13
  -6  -4   1   98.29   15.96
   6   4  -1   71.93   14.70
   6   4  -2   24.79   13.46
  -6  -4   2   21.60   14.18
  -6  -4   3    3.48   14.71
   6   4  -3    9.58   14.75
   6   4  -4  195.88   15.55
  -6  -4   4  201.72   12.49
   6   4  -5    7.42   15.64
  -6  -4   5   15.25   11.66
   6   4  -6   93.94   14.94
  -6  -4   6  116.52   12.85
   6   4  -7    2.64   17.27
  -6  -4   7   -0.77   18.34
  -6  -3   1  143.36   15.22
  -6  -3   2  132.10   11.55
   6   3  -2  132.76   11.29
   6   3  -3  274.37   15.14
  -6  -3   3  251.09   16.00
  -6  -3   4   28.16   14.41
   6   3  -4   10.50   15.18
   6   3  -5  301.04   15.84
  -6  -3   5  285.18   16.17
   6   3  -6    0.80   11.23
  -6  -3   6   -4.92   15.82
   6   3  -7  143.44   17.72
  -6  -3   7  138.42   12.89
  -6  -3   8    3.21   17.60
   6   3  -8   13.95   18.75
  -6  -2   1   59.79   14.65
  -6  -2   2  445.03   12.41
  -6  -2   3  -10.98   13.26
   6   2  -4  426.65   15.13
  -6  -2   4  442.31   16.34
  -6  -2   5   47.77   13.90
   6   2  -5   48.24   10.85
   6   2  -6  404.84   15.82
  -6  -2   6  392.33   13.45
   6   2  -7   26.07   12.26
  -6  -2   7   22.92   16.01
   6   2  -8   -1.41   12.60
  -6  -2   8   12.98   18.10
  -6  -1   1   33.36   13.00
  -6  -1   2   18.91   12.97
  -6  -1   3  282.37   12.11
  -6  -1   4   21.37   10.72
  -6  -1   5  477.01   15.44
  -6  -1   6   42.88   14.70
  -6  -1   7   33.28   16.17
  -6  -1   8    3.05   18.16
  -6   0   1    1.00   10.16
  -6   0   2   38.96   14.13
  -6   0   3    1.99   13.98
  -6   0   4  648.34   16.99
  -6   0   5    3.80   13.71
  -6   0   6    3.30   15.65
  -6   0   7    6.73   15.58
  -6   0   8   42.87   18.13
  -6   1   0   75.69   10.80
  -6   1   1   29.34   14.08
  -6   1   2    5.41   10.23
  -6   1   3  284.53   11.49
  -6   1   4   31.31   10.77
  -6   1   5  497.02   17.22
  -6   1   6   36.73   11.69
  -6   1   7   45.90   12.72
  -6   1   8    6.50   17.56
  -6   2   0   99.64   13.07
  -6   2   1   43.50   10.36
  -6   2   2  435.55   15.78
  -6   2   3   12.80   14.33
  -6   2   4  450.50   16.37
  -6   2   5   34.38   11.17
  -6   2   6  407.76   16.29
  -6   2   7   16.36   15.60
  -6   2   8   -0.38   18.51
  -6   3   0  103.00   14.82
  -6   3   1  144.50   13.98
  -6   3   2  119.92   13.18
  -6   3   3  265.07   11.95
  -6   3   4   28.21   14.68
  -6   3   5  301.88   15.42
  -6   3   6   -2.30   15.70
  -6   3   7  175.36   16.28
  -6   3   8   17.45   19.20
  -6   4   0  419.30   17.83
  -6   4   1   73.02   14.74
  -6   4   2   18.45   13.57
  -6   4   3    1.06   10.57
  -6   4   4  182.72   14.72
  -6   4   5    8.76   14.42
  -6   4   6  125.84   17.02
  -6   4   7   -1.84   16.09
  -6   5   0   -6.37   15.44
  -6   5   1   63.89   14.51
  -6   5   2   31.99   13.92
  -6   5   3  170.18   11.96
  -6   5   4   15.76   15.29
  -6   5   5  147.90   15.29
  -6   5   6   32.64   17.24
  -6   5   7   21.88   13.37
  -6   6   0  102.29   12.46
  -6   6   1   11.12   11.69
  -6   6   2  244.89   16.36
  -6   6   3   15.58   16.26
  -6   6   4  206.83   17.12
  -6   6   5    6.20   12.89
  -6   6   6  155.17   14.46
  -6   7   0    4.33   16.77
  -6   7   1  199.10   17.07
  -6   7   2   -2.26   12.76
  -6   7   3   56.87   12.93
  -6   7   4   17.09   13.15
  -6   7   5  116.43   18.23
  -5 -10   1   22.38   18.07
   5  10  -1   -2.50   17.50
  -5 -10   2  115.15   13.63
   5  10  -2  126.69   16.15
  -5 -10   3   37.28   12.89
   5  10  -3   29.28   17.20
   5  10  -4  219.61   19.35
  -5 -10   4  224.75   18.37
   5   9  -1  292.11   15.75
  -5  -9   1  316.70   18.23
  -5  -9   2   16.74   14.90
   5   9  -2    1.47   16.04
   5   9  -3  205.99   15.97
  -5  -9   3  223.63   17.44
  -5  -9   4    6.09   16.76
   5   9  -4   -2.44   12.22
  -5  -9   5  162.11   13.33
   5   9  -5  140.16   17.59
   5   9  -6   18.38   13.84
  -5  -9   6    7.16   17.06
  -5  -8   1    9.15   13.84
   5   8  -1    3.86   14.96
  -5  -8   2  892.50   18.22
   5   8  -2  879.26   18.66
  -5  -8   3   19.97   15.12
   5   8  -3   29.45   14.29
  -5  -8   4  259.29   12.93
   5   8  -4  257.56   12.84
  -5  -8   5    3.60   16.51
   5   8  -5    7.78   16.10
   5   8  -6   72.37   15.65
  -5  -8   6  106.27   17.73
   5   8  -7   24.19   17.80
  -5  -8   7   23.97   18.06
  -5  -7   1  150.61   11.11
   5   7  -1  162.92   14.39
  -5  -7   2   19.83   10.64
   5   7  -2   34.85   10.54
  -5  -7   3  306.02   16.32
   5   7  -3  320.38   15.41
   5   7  -4   15.12   14.78
  -5  -7   4   18.14   10.73
   5   7  -5   13.51   15.54
  -5  -7   5   19.62   11.60
   5   7  -6   18.26   11.93
  -5  -7   6   13.03   11.73
  -5  -7   7  190.46   13.32
   5   7  -7  173.97   17.16
  -5  -7   8   76.28   19.01
   5   7  -8   96.61   18.42
   5   6  -1   26.23   13.56
  -5  -6   1   33.01   13.17
   5   6  -2  318.82   15.07
  -5  -6   2  330.70   11.88
  -5  -6   3   12.27   14.34
   5   6  -3   -2.05   10.38
   5   6  -4  400.27   12.07
  -5  -6   4  410.62   14.93
   5   6  -5   21.71   10.93
  -5  -6   5   18.68   13.63
   5   6  -6   85.72   15.10
  -5  -6   6   75.07   14.58
  -5  -6   7   47.73   15.81
   5   6  -7   51.16   11.55
   5   6  -8   52.61   13.03
  -5  -6   8   62.09   16.55
   5   6  -9   34.47   18.88
  -5  -6   9   41.05   17.33
  -5  -5   1  409.40   14.80
   5   5  -1  398.43   13.55
  -5  -5   2  145.45   10.21
   5   5  -2  157.88   13.31
   5   5  -3  345.91   11.33
  -5  -5   3  341.53   14.58
  -5  -5   4  178.44   14.44
   5   5  -4  188.74   14.09
  -5  -5   5  358.35   15.42
   5   5  -5  302.12   14.84
   5   5  -6    3.97   10.31
  -5  -5   6   10.54   13.44
  -5  -5   7  111.56   14.12
   5   5  -7  118.72   11.31
  -5  -5   8   15.03   12.39
   5   5  -8    7.26   15.22
  -5  -5   9  244.27   16.90
   5   5  -9  252.22   13.79
   5   4  -1   -0.91   12.73
  -5  -4   1    3.00    9.28
  -5  -4   2  176.01   13.38
   5   4  -2  185.91   13.33
  -5  -4   3   38.68   13.15
   5   4  -3   40.58    9.47
  -5  -4   4    2.23   13.05
   5   4  -4   -1.02   11.98
   5   4  -5   15.94    9.58
  -5  -4   5   15.70   13.34
   5   4  -6   55.23   13.03
  -5  -4   6   47.71   10.41
  -5  -4   7    7.72   13.60
   5   4  -7    7.03   10.24
  -5  -4   8  223.75   16.15
   5   4  -8  221.91   12.54
  -5  -4   9   12.64   15.72
   5   4  -9   15.51   15.80
   5   4 -10  138.59   18.84
  -5  -4  10  133.85   14.78
   5   3  -1  455.55   11.48
  -5  -3   1  442.77   14.25
   5   3  -2   54.29    9.48
  -5  -3   2   49.97    9.18
   5   3  -3 1294.63   23.32
  -5  -3   3 1309.10   17.35
  -5  -3   4   11.88   12.83
   5   3  -4    5.73   12.14
   5   3  -5  218.01   13.06
  -5  -3   5  232.90   13.26
  -5  -3   6    0.01   13.48
   5   3  -6   -4.14   13.16
  -5  -3   7  402.77   15.84
   5   3  -7  415.15   16.65
  -5  -3   8   74.18   15.78
   5   3  -8   76.79   14.24
   5   3  -9  451.28   18.96
  -5  -3   9  482.34   19.31
  -5  -3  10  180.53   17.95
   5   3 -10  179.22   17.10
  -5  -2   1  413.50   11.26
   5   2  -1  408.72   14.19
   5   2  -2  752.11   15.34
  -5  -2   2  729.94   14.08
   5   2  -3    2.78    8.98
  -5  -2   3    2.49    9.11
   5   2  -4 1095.22   21.31
  -5  -2   4 1101.06   17.66
   5   2  -5   50.49    9.40
  -5  -2   5   48.33    9.53
  -5  -2   6  442.77   14.73
   5   2  -6  459.94   15.50
  -5  -2   7   94.68   13.32
   5   2  -7  107.00   11.03
  -5  -2   8  625.00   14.77
   5   2  -8  670.54   16.10
   5   2  -9   15.38   16.56
  -5  -2   9   -4.82   16.60
   5   2 -10   93.13   13.47
  -5  -2  10  102.58   18.53
  -5  -1   1   99.02   11.72
  -5  -1   2   85.13   11.55
  -5  -1   3  111.86   12.03
   5   1  -3  118.61    9.76
   5   1  -4  198.33    9.87
  -5  -1   4  220.05   10.14
  -5  -1   5  222.03   10.26
   5   1  -5  232.30   10.27
  -5  -1   6   31.72    9.90
   5   1  -6   38.54   13.12
   5   1  -7  245.02   11.05
  -5  -1   7  246.97   14.29
  -5  -1   8   -2.72   14.99
   5   1  -8    8.38   13.25
   5   1  -9   83.09   15.42
  -5  -1   9   82.50   16.32
  -5  -1  10   10.93   18.13
   5   1 -10   15.80   17.24
  -5   0   1    2.15   11.61
  -5   0   2  180.34   12.49
  -5   0   3   -2.95   12.11
  -5   0   4   85.87    9.24
  -5   0   5    4.12    9.04
   5   0  -6  258.82   13.36
  -5   0   6  248.41   10.94
  -5   0   7   -4.64   13.78
   5   0  -7  -13.13   13.62
  -5   0   8   69.31   14.97
   5   0  -8   94.11   14.94
  -5   0   9   -4.83   16.23
  -5   0  10  167.70   16.72
  -5   1   0   28.02   10.84
  -5   1   1   83.56   11.93
  -5   1   2   75.75   11.49
  -5   1   3   90.37   12.12
  -5   1   4  205.68    9.50
  -5   1   5  210.89   10.04
  -5   1   6   36.40   13.33
  -5   1   7  254.92   11.33
  -5   1   8    6.02   10.51
  -5   1   9   81.97   16.13
  -5   1  10    8.57   16.71
  -5   2   0  201.96    9.66
  -5   2   1  414.45   13.91
  -5   2   2  744.66   18.79
  -5   2   3   12.48   11.86
  -5   2   4 1082.44   20.46
  -5   2   5   50.67   13.01
  -5   2   6  453.51   15.43
  -5   2   7   95.34   14.02
  -5   2   8  666.39   17.90
  -5   2   9   17.15   15.10
  -5   2  10   92.46   19.09
  -5   3   0   43.80    8.82
  -5   3   1  434.86   14.93
  -5   3   2   45.96   11.81
  -5   3   3 1245.06   25.20
  -5   3   4   -6.18   12.14
  -5   3   5  203.69   13.68
  -5   3   6   -0.68    9.43
  -5   3   7  412.79   12.90
  -5   3   8   81.19   15.37
  -5   3   9  464.14   17.67
  -5   3  10  166.68   19.27
  -5   4   0  134.18   11.88
  -5   4   1    4.89   11.30
  -5   4   2  181.24    9.75
  -5   4   3   30.61   12.11
  -5   4   4    1.61    9.18
  -5   4   5   32.65    9.88
  -5   4   6   41.06   13.75
  -5   4   7   12.03   14.17
  -5   4   8  210.22   15.71
  -5   4   9    8.47   16.48
  -5   4  10  134.59   18.61
  -5   5   0   21.09   11.93
  -5   5   1  416.23   11.57
  -5   5   2  137.99    9.67
  -5   5   3  331.79   11.05
  -5   5   4  188.77   12.88
  -5   5   5  340.31   14.40
  -5   5   6   15.00   13.89
  -5   5   7  108.37   15.20
  -5   5   8    2.59   15.31
  -5   5   9  291.70   19.25
  -5   6   0  112.06   12.85
  -5   6   1   33.56    9.38
  -5   6   2  318.26   10.75
  -5   6   3    6.73    9.67
  -5   6   4  397.93   15.13
  -5   6   5    3.94   13.95
  -5   6   6   89.23   13.78
  -5   6   7   44.24   15.74
  -5   6   8   77.74   18.35
  -5   6   9   33.73   18.61
  -5   7   0  129.01   10.75
  -5   7   1  139.81   13.34
  -5   7   2   12.73   12.21
  -5   7   3  291.87   14.90
  -5   7   4   12.10   13.11
  -5   7   5   27.28   13.68
  -5   7   6   16.05   15.29
  -5   7   7  194.06   17.34
  -5   7   8   99.60   18.08
  -5   8   0  218.54   13.57
  -5   8   1   19.67   10.55
  -5   8   2  797.34   20.69
  -5   8   3   11.38   13.67
  -5   8   4  258.34   16.11
  -5   8   5    5.44   14.44
  -5   8   6   95.20   16.83
  -5   8   7   20.09   16.46
  -5   9   0   74.21   14.00
  -5   9   1  269.52   12.39
  -5   9   2   -6.93   15.52
  -5   9   3  210.50   16.45
  -5   9   4    4.41   12.25
  -5   9   5  171.63   16.30
  -5   9   6   -5.04   17.82
  -5  10   0  102.53   12.69
  -5  10   1    5.89   12.07
  -5  10   2  101.49   15.48
  -5  10   3   26.25   16.69
  -5  10   4  228.81   14.40
  -4 -12   1   31.95   17.03
   4  12  -1   31.74   13.37
   4  12  -2   43.71   18.27
  -4 -12   2   51.10   17.15
   4  12  -3   84.04   18.30
  -4 -12   3  102.58   13.39
  -4 -12   4   13.75   14.17
   4  11  -1  386.88   17.63
  -4 -11   1  403.81   17.51
   4  11  -2   65.84   14.91
  -4 -11   2   57.55   16.03
   4  11  -3  133.10   17.01
  -4 -11   3  157.90   17.94
   4  11  -4   20.07   16.81
  -4 -11   4    5.70   16.78
  -4 -11   5  164.76   16.35
   4  11  -5  145.46   12.84
  -4 -11   6  213.36   18.68
   4  11  -6  160.30   18.86
   4  10  -1   -2.52   10.99
  -4 -10   1    1.14   13.55
   4  10  -2   64.18   13.78
  -4 -10   2   80.67   14.95
  -4 -10   3   69.28   15.89
   4  10  -3   57.54   11.57
   4  10  -4  337.06   13.00
  -4 -10   4  350.21   13.79
  -4 -10   5   36.94   16.90
   4  10  -5   33.57   15.66
  -4 -10   6  165.46   13.21
   4  10  -6  136.00   13.13
  -4 -10   7   17.37   18.17
   4  10  -7  -10.59   15.86
  -4  -9   1    8.94   13.88
   4   9  -1   -1.88   13.72
   4   9  -2   56.19   10.09
  -4  -9   2   85.22   14.00
   4   9  -3  316.67   15.31
  -4  -9   3  323.74   11.91
   4   9  -4   79.91   14.83
  -4  -9   4   75.32   13.94
   4   9  -5  228.85   11.77
  -4  -9   5  223.23   11.97
   4   9  -6   39.96   15.53
  -4  -9   6   20.40   15.81
  -4  -9   7  145.14   16.62
   4   9  -7  137.75   16.84
  -4  -9   8   36.01   17.62
   4   9  -8   47.89   17.51
   4   8  -1    2.60   12.09
  -4  -8   1    5.56   12.57
   4   8  -2  822.63   14.25
  -4  -8   2  836.78   18.61
  -4  -8   3   80.83    9.75
   4   8  -3   90.34   13.34
   4   8  -4  792.53   18.81
  -4  -8   4  809.45   19.97
   4   8  -5   13.22   13.46
  -4  -8   5    1.82   13.02
  -4  -8   6  213.19   14.61
   4   8  -6  252.95   14.58
   4   8  -7   10.65   11.33
  -4  -8   7    9.64   15.36
  -4  -8   8   78.35   16.53
   4   8  -8  102.66   15.95
  -4  -8   9    6.90   13.69
   4   8  -9    3.06   18.15
   4   7  -1  243.81   10.59
  -4  -7   1  253.36   10.99
   4   7  -2   13.98   12.97
  -4  -7   2    8.23   12.11
   4   7  -3  270.61   10.71
  -4  -7   3  280.41   10.69
  -4  -7   4   94.82   13.49
   4   7  -4  125.32   13.41
   4   7  -5  622.33   12.96
  -4  -7   5  638.44   16.18
   4   7  -6    0.35   14.25
  -4  -7   6    7.91   13.29
   4   7  -7  157.43   14.09
  -4  -7   7  156.80   11.04
   4   7  -8    7.42   15.81
  -4  -7   8   24.06   15.68
  -4  -7   9  135.36   13.12
   4   7  -9  122.22   15.94
   4   7 -10    2.25   18.97
  -4  -7  10    1.76   14.34
   4   6  -1    7.91    8.43
  -4  -6   1    7.89   11.91
  -4  -6   2  172.28    9.21
   4   6  -2  141.67    8.99
   4   6  -3   94.78   12.54
  -4  -6   3   84.63   12.40
   4   6  -4  457.61   11.25
  -4  -6   4  469.64   14.02
   4   6  -5   63.86   13.35
  -4  -6   5   64.07   12.63
   4   6  -6  219.77   10.82
  -4  -6   6  231.73   10.65
   4   6  -7   12.11   13.42
  -4  -6   7   20.52   13.87
   4   6  -8   80.18   14.21
  -4  -6   8   86.53   15.06
   4   6  -9   -2.50   11.66
  -4  -6   9   13.24   14.82
  -4  -6  10   34.95   16.10
   4   6 -10   29.93   16.36
   4   5  -1  400.53   10.68
  -4  -5   1  432.56   13.58
   4   5  -2   24.36    8.43
  -4  -5   2   26.86   10.77
  -4  -5   3  367.72   12.94
   4   5  -3  391.89   14.17
   4   5  -4   -5.85    8.51
  -4  -5   4    7.51   11.77
   4   5  -5  203.83   10.21
  -4  -5   5  210.07   10.07
   4   5  -6  238.47   13.89
  -4  -5   6  223.72   13.33
   4   5  -7  341.31   14.60
  -4  -5   7  335.71   13.67
   4   5  -8   12.30   14.41
  -4  -5   8   26.78   13.02
  -4  -5   9   48.62   15.81
   4   5  -9   51.26   11.65
  -4  -5  10   12.77   16.70
   4   5 -10    4.34   17.04
  -4  -5  11  246.88   15.98
   4   5 -11  213.20   19.44
  -4  -4   1   30.99   11.43
   4   4  -1   31.08   11.42
   4   4  -2  394.39   13.12
  -4  -4   2  372.09   13.55
  -4  -4   3   17.21   11.44
   4   4  -3   16.79   11.04
  -4  -4   4   32.87    8.44
   4   4  -4   23.71   11.98
  -4  -4   5   35.39   11.34
   4   4  -5   42.46   11.91
   4   4  -6  546.30   13.48
  -4  -4   6  552.62   16.11
   4   4  -7   47.91   12.71
  -4  -4   7   46.72   12.44
  -4  -4   8  244.06   11.58
   4   4  -8  261.15   14.87
  -4  -4   9   -0.89   15.16
   4   4  -9   -0.52   10.62
   4   4 -10  171.28   15.71
  -4  -4  10  161.98   13.28
  -4  -4  11   66.75   18.73
   4   4 -11   51.95   16.95
  -4  -3   1 1786.49   21.33
   4   3  -1 1799.75   21.65
  -4  -3   2  127.21   11.51
   4   3  -2  135.78   11.65
  -4  -3   3 1065.51   15.54
   4   3  -3 1090.33   19.15
   4   3  -4   28.98    8.61
  -4  -3   4   32.64   11.28
  -4  -3   5  712.00   15.56
   4   3  -5  700.05   13.56
  -4  -3   6  309.92   13.39
   4   3  -6  334.66   13.59
   4   3  -7  415.46   14.16
  -4  -3   7  418.22   11.52
  -4  -3   8   16.24   13.94
   4   3  -8   11.53   13.78
   4   3  -9  391.04   16.20
  -4  -3   9  399.28   16.89
   4   3 -10  128.42   15.86
  -4  -3  10  127.74   16.05
   4   3 -11  236.01   18.47
  -4  -3  11  218.92   18.54
   4   2  -1    8.14    8.40
  -4  -2   1    6.74   10.81
  -4  -2   2  543.38   13.69
   4   2  -2  512.32   14.74
   4   2  -3   14.31    8.62
  -4  -2   3    4.23   10.88
   4   2  -4  638.23   15.38
  -4  -2   4  640.69   12.40
  -4  -2   5  320.84   13.28
   4   2  -5  333.10   13.39
   4   2  -6  626.89   15.50
  -4  -2   6  631.19   15.00
  -4  -2   7   43.41   12.60
   4   2  -7   48.69   12.76
  -4  -2   8  733.99   16.01
   4   2  -8  751.19   19.48
   4   2  -9   -7.17   12.89
  -4  -2   9    0.65   14.05
  -4  -2  10  118.61   15.98
   4   2 -10  116.04   15.25
   4   2 -11   31.92   12.85
  -4  -2  11   27.99   15.91
  -4  -1   1  917.78   15.78
   4   1  -1  931.08   17.01
   4   1  -2   15.07   11.12
  -4  -1   2    6.42   10.66
   4   1  -3    7.08   11.22
  -4  -1   3    6.26   11.00
  -4  -1   4   60.55   11.57
   4   1  -4   55.90    9.03
  -4  -1   5   78.75    8.68
   4   1  -5   94.92    8.82
  -4  -1   6  340.42   13.23
   4   1  -6  343.75   13.07
  -4  -1   7 1014.16   20.92
   4   1  -7 1041.30   15.54
   4   1  -8   -0.72   11.78
  -4  -1   8   -1.72   12.97
   4   1  -9  140.84   14.32
  -4  -1   9  119.56   13.94
  -4  -1  10   27.15   13.87
   4   1 -10   28.39   15.14
  -4  -1  11   27.90   16.67
   4   1 -11   29.58   15.23
  -4  -1  12   19.94   20.55
   4   1 -12   27.17   19.65
  -4   0   1   -9.70    7.80
  -4   0   2 2128.35   25.79
   4   0  -3   -7.12   10.48
  -4   0   3   -9.61   10.55
   4   0  -4   55.07    8.73
  -4   0   4   64.71   10.94
   4   0  -5    2.99    7.99
  -4   0   5   -5.13   11.06
  -4   0   6  671.07   14.96
   4   0  -6  675.84   17.43
  -4   0   7   -9.26   12.00
   4   0  -7   -6.21   11.36
  -4   0   8  348.97   14.30
   4   0  -8  340.97   15.24
  -4   0   9    0.15   10.12
   4   0  -9   -9.54   12.41
  -4   0  10   33.99   15.26
   4   0 -10   32.25   16.43
  -4   0  11    6.94   17.02
   4   0 -11   15.58   15.78
  -4   0  12   48.64   23.18
  -4   1   0    4.37    7.85
  -4   1   1  921.15   16.96
  -4   1   2   22.92   10.01
  -4   1   3   11.95   10.92
  -4   1   4   55.15    8.23
  -4   1   5   82.24   10.87
   4  -1  -6  335.54   10.97
  -4   1   6  332.30   10.82
  -4   1   7 1061.65   18.67
   4  -1  -7 1062.00   19.48
  -4   1   8    7.73   12.54
  -4   1   9  128.31   14.91
  -4   1  10   22.74   15.80
  -4   1  11   28.83   19.85
  -4   1  12   21.06   23.36
  -4   2   0  923.64   16.25
  -4   2   1    3.77   10.43
  -4   2   2  504.97   11.44
  -4   2   3    8.46    8.02
  -4   2   4  630.31   14.31
  -4   2   5  304.89   12.93
  -4   2   6  633.42   15.57
  -4   2   7   64.62   12.19
  -4   2   8  733.93   17.53
  -4   2   9    7.11   14.40
  -4   2  10  124.66   18.04
  -4   2  11   26.85   20.57
  -4   3   0   15.16   10.36
  -4   3   1 1734.00   24.98
  -4   3   2  128.84   11.35
  -4   3   3 1113.31   23.82
  -4   3   4   35.09    7.95
  -4   3   5  735.86   13.60
  -4   3   6  321.06   13.46
  -4   3   7  395.97   14.37
  -4   3   8    5.55   12.95
  -4   3   9  411.25   17.50
  -4   3  10  129.59   16.61
  -4   3  11  217.26   19.69
  -4   4   0  365.59   12.45
  -4   4   1   14.80   10.83
  -4   4   2  361.00   13.20
  -4   4   3   12.88   10.80
  -4   4   4   42.79   10.30
  -4   4   5   38.86   11.30
  -4   4   6  525.57   15.42
  -4   4   7   41.63   12.92
  -4   4   8  247.48   14.93
  -4   4   9   -0.08   15.79
  -4   4  10  162.45   19.64
  -4   4  11   39.72   24.37
  -4   5   0  208.21   10.29
  -4   5   1  425.93   13.00
  -4   5   2   21.45    8.18
  -4   5   3  373.17   13.52
  -4   5   4   11.42    7.96
  -4   5   5  200.07   12.04
  -4   5   6  229.42   13.28
  -4   5   7  354.15   15.39
  -4   5   8   29.41   14.30
  -4   5   9   41.29   15.66
  -4   5  10    3.65   19.84
  -4   5  11  153.93   27.39
  -4   6   1   -8.06   11.01
  -4   6   2  139.07   11.37
  -4   6   3   85.98   10.89
  -4   6   4  449.18   14.34
  -4   6   5   66.74   11.39
  -4   6   6  237.33   13.86
  -4   6   7   23.32   12.50
  -4   6   8   82.12   16.39
  -4   6   9    5.48   16.26
  -4   6  10   28.60   21.12
  -4   7   2   14.19   11.13
  -4   7   3  283.59   12.83
  -4   7   4  104.72   11.42
  -4   7   5  671.81   18.37
  -4   7   6    0.59   13.17
  -4   7   7  147.73   15.15
  -4   7   8   11.30   15.16
  -4   7   9  128.45   17.70
  -4   7  10   -0.16   25.93
  -4   8   3   72.34   12.53
  -4   8   4  792.44   17.58
  -4   8   5    2.82   12.03
  -4   8   6  236.38   14.19
  -4   8   7   11.36   15.35
  -4   8   8   98.69   16.87
  -4   8   9    9.61   20.40
  -4   9   3  305.59   11.39
  -4   9   4   71.52   10.23
  -4   9   5  221.39   14.97
  -4   9   6   31.85   15.11
  -4   9   7  133.41   16.84
  -4   9   8   44.66   20.49
  -4  10   4  357.39   15.12
  -4  10   5   26.20   14.66
  -4  10   6  174.01   16.16
  -4  10   7    7.52   18.91
  -4  11   4   -1.13   11.69
  -4  11   5  179.15   16.21
  -4  11   6  221.26   17.59
  -4  12   4   17.60   17.74
   3  13  -1  146.10   18.31
   3  13  -2    0.76   13.05
   3  13  -3  139.11   13.55
   3  13  -4   11.00   16.96
  -3 -12   1  100.02   16.47
   3  12  -1  101.98   14.82
  -3 -12   2  312.19   14.68
   3  12  -2  315.87   15.76
   3  12  -3    8.08   15.28
  -3 -12   3   13.77   17.12
  -3 -12   4  169.60   17.73
   3  12  -4  140.86   12.94
   3  12  -5   48.15   17.65
   3  12  -6   89.74   17.39
   3  11  -1  378.44   15.01
  -3 -11   1  411.28   16.15
   3  11  -2   -1.10   13.39
  -3 -11   2   25.59   13.11
  -3 -11   3  455.83   15.06
   3  11  -3  435.79   16.51
  -3 -11   4   11.53   14.80
   3  11  -4    6.55   11.32
  -3 -11   5   50.49   16.80
   3  11  -5   56.29   15.99
  -3 -11   6    6.39   12.63
   3  11  -6   15.63   12.52
   3  11  -7  160.41   16.75
  -3 -10   1   21.28   12.99
   3  10  -1   15.98   12.81
  -3 -10   2  227.73   14.88
   3  10  -2  209.61   10.72
  -3 -10   3  175.57   13.96
   3  10  -3  171.17   10.98
  -3 -10   4  142.78   13.35
   3  10  -4  145.09   11.16
  -3 -10   5   -4.38   13.74
   3  10  -5   15.93   14.75
   3  10  -6  279.56   15.59
  -3 -10   6  296.56   14.14
  -3 -10   7   13.33   16.64
   3  10  -7   -8.69   16.44
   3  10  -8   37.94   17.42
   3  10  -9  112.57   17.84
  -3  -9   1  211.76   13.29
   3   9  -1  199.37    9.75
   3   9  -2  153.81   13.19
  -3  -9   2  152.59   13.14
  -3  -9   3  201.19   10.60
   3   9  -3  186.81   13.08
  -3  -9   4  100.62   12.82
   3   9  -4  109.33   13.46
  -3  -9   5  549.70   13.27
   3   9  -5  531.63   14.94
   3   9  -6   -6.23   14.57
  -3  -9   6   -8.89   13.97
   3   9  -7  300.71   15.84
  -3  -9   7  317.03   16.42
  -3  -9   8   13.50   14.92
   3   9  -8   11.93   11.71
   3   9  -9   93.94   18.09
   3   8  -1   38.73    8.76
  -3  -8   1   17.98   11.06
  -3  -8   2   67.33   12.36
   3   8  -2   59.99   12.70
  -3  -8   3  130.64    9.18
   3   8  -3  112.87    9.65
   3   8  -4  446.00   11.20
  -3  -8   4  451.19   14.28
  -3  -8   5   13.74   12.99
   3   8  -5   10.38   13.29
  -3  -8   6  182.65   13.49
   3   8  -6  167.77   10.52
  -3  -8   7   -5.02   13.56
   3   8  -7    3.07   10.49
  -3  -8   8  164.41   12.18
   3   8  -8  159.15   15.58
   3   8  -9   -2.54   12.47
   3   8 -10  117.64   13.75
  -3  -7   1  292.74   12.67
   3   7  -1  266.42   12.75
  -3  -7   2  434.64   11.88
   3   7  -2  456.54   13.90
  -3  -7   3  301.77   10.50
   3   7  -3  294.96   10.19
  -3  -7   4    6.78   10.66
   3   7  -4    5.70    8.68
  -3  -7   5 1287.09   18.63
   3   7  -5 1266.61   18.78
  -3  -7   6  159.52   10.27
   3   7  -6  161.82   10.34
   3   7  -7  752.38   13.75
  -3  -7   7  754.83   17.41
  -3  -7   8    9.03   10.23
   3   7  -8   -9.73   14.21
   3   7  -9  180.48   12.38
  -3  -7   9  183.55   15.26
   3   7 -10   20.46   12.73
   3   7 -11  136.43   17.82
   3   6  -1  150.39    9.47
  -3  -6   1  155.27   11.73
  -3  -6   2  591.04   13.98
   3   6  -2  557.34   12.46
  -3  -6   3   87.01   11.41
   3   6  -3   98.27   12.28
  -3  -6   4  289.87   12.59
   3   6  -4  290.46   13.14
  -3  -6   5  115.93    9.27
   3   6  -5  100.94   12.91
  -3  -6   6  718.99   17.46
   3   6  -6  736.90   16.35
  -3  -6   7  215.37   13.81
   3   6  -7  231.83   13.98
  -3  -6   8   44.38   10.17
   3   6  -8   47.75   14.24
  -3  -6   9   11.76   10.86
   3   6  -9    5.13   13.83
   3   6 -10  103.47   15.26
   3   6 -11   -0.65   17.80
   3   5  -1  280.56   12.45
  -3  -5   1  251.50   12.05
  -3  -5   2   20.88   11.07
   3   5  -2   16.26    8.50
   3   5  -3  144.60   12.06
  -3  -5   3  146.37    9.23
  -3  -5   4   71.88   11.50
   3   5  -4   80.35    9.03
  -3  -5   5  148.29    9.54
   3   5  -5  174.28   12.73
  -3  -5   6   74.57    9.10
   3   5  -6   58.45    9.28
  -3  -5   7  105.38    8.98
   3   5  -7  111.72    9.82
  -3  -5   8   37.90   12.67
   3   5  -8   33.07   12.57
  -3  -5   9   48.82   14.24
   3   5  -9   46.47   10.52
   3   5 -10   32.70   10.97
  -3  -5  10   33.54   11.37
   3   5 -11   67.02   16.41
   3   5 -12    6.95   17.89
  -3  -4   1   45.11    7.87
   3   4  -1   45.93   10.90
   3   4  -2   80.36    8.37
  -3  -4   2   79.44   11.05
   3   4  -3  444.36   10.81
  -3  -4   3  460.20   10.89
  -3  -4   4 1765.88   22.12
   3   4  -4 1779.16   28.47
   3   4  -5  117.37   12.44
  -3  -4   5  116.58    9.04
   3   4  -6  997.92   16.95
  -3  -4   6  999.46   20.29
  -3  -4   7    7.76   11.71
   3   4  -7   -2.24    8.40
  -3  -4   8 1045.03   18.17
   3   4  -8 1108.28   20.39
  -3  -4   9   11.75   12.18
   3   4  -9    4.90   10.09
  -3  -4  10  343.60   16.82
   3   4 -10  343.74   15.59
   3   4 -11   73.09   16.38
   3   4 -12  358.42   20.22
   3   3  -1 1101.32   18.65
  -3  -3   1 1133.24   18.73
   3   3  -2    4.95    7.70
  -3  -3   2    3.14    7.45
   3   3  -3  592.82   11.88
  -3  -3   3  595.82   11.96
  -3  -3   4  451.00   11.68
   3   3  -4  473.61   13.65
   3   3  -5 1075.60   19.80
  -3  -3   5 1079.89   17.14
  -3  -3   6   39.00   10.97
   3   3  -6   35.12    8.20
  -3  -3   7  121.52    8.97
   3   3  -7  130.66    9.22
  -3  -3   8   11.72    9.13
   3   3  -8   -0.69   11.94
   3   3  -9  192.73   13.16
  -3  -3   9  221.21   13.55
   3   3 -10   30.21   13.41
  -3  -3  10   41.28   14.80
   3   3 -11  499.36   18.20
   3   3 -12    7.51   17.53
   3   2  -1 1192.42   18.67
  -3  -2   1 1157.41   17.58
   3   2  -2 1082.59   16.16
  -3  -2   2 1084.40   15.06
  -3  -2   3  121.19   11.08
   3   2  -3  122.33    8.61
  -3  -2   4  578.88   12.15
   3   2  -4  578.30   15.85
   3   2  -5   75.13   11.27
  -3  -2   5   73.86    8.34
  -3  -2   6 1059.63   16.29
   3   2  -6 1080.70   21.10
   3   2  -7  342.51   13.40
  -3  -2   7  338.61   13.18
  -3  -2   8   11.08   11.51
   3   2  -8    7.54   12.04
   3   2  -9   11.71   12.92
  -3  -2   9   15.00   12.90
  -3  -2  10  403.82   15.93
   3   2 -10  412.35   16.42
   3   2 -11   -2.15   14.53
   3   2 -12   88.94   17.71
   3   1  -1  966.10   22.47
  -3  -1   1  933.95   18.04
  -3  -1   2  121.09    8.03
   3   1  -2  126.38    8.76
  -3  -1   3 1079.47   17.07
   3   1  -3 1064.11   19.02
  -3  -1   4  495.97   14.05
   3   1  -4  516.72   13.50
   3   1  -5 1061.14   18.06
  -3  -1   5 1041.73   16.13
  -3  -1   6  193.97   12.03
   3   1  -6  197.12    9.21
   3   1  -7  522.78   14.62
  -3  -1   7  506.76   15.43
   3   1  -8  254.31   12.64
  -3  -1   8  258.45   13.49
  -3  -1   9  570.25   17.23
   3   1  -9  576.55   15.91
   3   1 -10   -1.56   13.01
  -3  -1  10    4.11   13.45
   3   1 -11  304.90   17.23
  -3  -1  11  302.90   18.61
   3   1 -12   12.04   17.43
  -3   0   1    5.52    7.16
   3   0  -1    4.64    7.59
  -3   0   2  616.57   13.82
   3   0  -2  631.47   12.49
   3   0  -3    2.36    7.53
  -3   0   3   -0.58   10.12
   3   0  -4  620.76   12.55
  -3   0   4  642.16   12.42
   3   0  -5   -0.67    7.99
  -3   0   5    7.04   10.83
  -3   0   6   35.90    7.75
   3   0  -6   42.67    7.90
  -3   0   7   -5.02   11.34
   3   0  -7   -2.71   10.61
   3   0  -8  708.69   18.79
  -3   0   8  692.48   16.94
  -3   0   9    0.92   14.46
   3   0  -9    5.13   11.78
   3   0 -10  377.94   15.89
  -3   0  10  351.69   15.93
  -3   0  11    2.91   15.52
   3   0 -11    5.62   15.17
   3   0 -12  149.47   19.72
  -3   1   0   53.43    7.53
  -3   1   1  937.27   16.25
  -3   1   2  126.63   10.56
  -3   1   3 1076.86   20.81
   3  -1  -3 1091.21   19.53
   3  -1  -4  483.35   11.60
  -3   1   4  483.39   12.24
   3  -1  -5 1049.84   17.33
  -3   1   5 1035.98   17.60
  -3   1   6  205.63   11.75
   3  -1  -6  201.05   11.27
  -3   1   7  542.92   15.08
   3  -1  -7  539.09   12.38
   3  -1  -8  272.24   12.97
  -3   1   8  259.85   13.91
   3  -1  -9  597.12   16.75
  -3   1   9  561.36   18.31
  -3   1  10    7.84   14.38
   3  -1 -10    5.08   13.34
  -3   2   0  437.93   12.53
  -3   2   1 1217.86   21.55
  -3   2   2 1062.81   22.89
  -3   2   3  117.51   10.57
  -3   2   4  556.77   15.28
  -3   2   5   73.51   11.05
  -3   2   6 1123.36   18.60
  -3   2   7  351.39   14.25
  -3   2   8    0.81   12.11
  -3   2   9   11.79   13.55
  -3   2  10  439.49   20.92
  -3   3   0  311.44   11.79
  -3   3   1 1105.67   17.13
  -3   3   2   -3.92    6.67
  -3   3   3  582.17   14.49
  -3   3   4  472.64   13.75
  -3   3   5 1072.49   17.67
  -3   3   6   40.49   11.32
  -3   3   7  133.80   12.41
  -3   3   8    0.18   12.10
  -3   3   9  199.09   14.74
  -3   3  10   41.08   18.81
  -3   4   2   71.07    7.39
  -3   4   3  447.34   12.85
  -3   4   4 1726.22   33.97
  -3   4   5  119.51   11.40
  -3   4   6 1090.91   21.10
  -3   4   7    3.82   11.96
  -3   4   8 1114.14   23.50
  -3   4   9    8.97   16.08
  -3   4  10  344.34   24.14
  -3   5   3  147.58   10.48
  -3   5   4   80.43   10.41
  -3   5   5  170.35   12.13
  -3   5   6   72.93   10.93
  -3   5   7  123.60   12.87
  -3   5   8   33.53   13.39
  -3   5   9   49.24   18.64
  -3   6   4  288.53   12.54
  -3   6   5  118.02   11.60
  -3   6   6  738.30   16.79
  -3   6   7  251.12   14.31
  -3   6   8   43.25   15.80
  -3   6   9    4.19   19.86
  -3   7   4   -0.50   10.69
  -3   7   5 1316.68   27.44
  -3   7   6  149.67   12.47
  -3   7   7  759.86   20.42
  -3   7   8    0.78   15.76
  -3   7   9  196.34   26.49
  -3   7   9  193.54   25.55
  -3   8   5    9.98   11.26
  -3   8   6  174.88   13.53
  -3   8   7   -1.31   13.46
  -3   8   8  161.23   18.48
  -3   8   9    2.57   26.90
  -3   8   9   -1.12   28.86
  -3   9   5  526.40   18.73
  -3   9   6    5.95   13.19
  -3   9   7  303.79   18.36
  -3   9   8    1.20   18.89
  -3   9   8   -1.42   18.63
  -3  10   6  295.68   15.77
  -3  10   7   10.47   17.91
  -3  10   7    8.94   17.51
  -3  10   8   44.95   21.05
  -3  10   8   49.43   19.72
  -3  11   5   65.50   17.10
  -3  11   6   -0.19   17.32
  -3  11   6    3.14   15.83
  -3  11   7  146.42   19.23
  -3  11   7  150.69   18.31
  -3  11   8   28.57   22.99
  -3  12   0  201.58   13.46
  -3  12   1   93.93   15.62
  -3  12   2  290.37   18.62
  -3  12   3   21.93   17.26
  -3  12   4  166.04   18.79
  -3  12   5   71.17   18.33
  -3  12   6   85.89   19.10
  -3  12   6  100.89   17.46
  -3  13   0  -12.18   17.32
  -3  13   1  164.14   14.84
  -3  13   2   -5.76   18.74
  -3  13   3  154.36   19.75
  -3  13   4   12.16   17.84
   2  14  -1   -1.10   13.34
   2  14  -2  168.14   14.40
   2  14  -3   13.39   13.77
   2  13  -1  342.22   17.45
   2  13  -2   14.22   15.12
   2  13  -3   18.87   17.00
   2  13  -4   17.16   13.02
   2  13  -5  183.81   18.42
   2  13  -6   20.71   19.10
   2  12  -1    7.17   10.83
   2  12  -2  281.85   15.46
   2  12  -3   29.80   13.60
   2  12  -4  207.08   15.22
   2  12  -5    5.71   11.96
   2  12  -6  268.90   13.58
   2  12  -7   31.48   16.79
  -2 -11   1  113.48   10.31
   2  11  -1  120.74   13.65
   2  11  -2   -2.23   12.69
   2  11  -3  381.75   15.16
   2  11  -4   53.13   13.69
   2  11  -5   44.99   15.78
   2  11  -6  100.64   16.43
   2  11  -7  201.40   15.63
   2  11  -8   -8.97   18.36
  -2 -10   1  148.22   12.60
   2  10  -1  119.48   13.18
   2  10  -2  209.80   10.38
  -2 -10   2  204.11   11.01
   2  10  -3   83.84    9.97
  -2 -10   3   87.23   10.00
  -2 -10   4  442.86   13.65
   2  10  -4  420.25   15.82
   2  10  -5  192.12   14.03
   2  10  -6  331.69   15.68
   2  10  -7   79.81   16.10
   2  10  -8  212.72   12.74
   2  10  -9   84.78   14.12
   2   9  -1 1735.41   22.99
  -2  -9   1 1723.66   26.65
   2   9  -2  997.41   15.67
  -2  -9   2 1005.39   17.42
  -2  -9   3  173.18   12.93
   2   9  -3  172.56    9.41
   2   9  -4    2.57   13.02
  -2  -9   4    6.84   12.00
   2   9  -5  577.87   14.12
  -2  -9   5  590.65   16.00
   2   9  -6   21.36   10.19
   2   9  -7  448.66   16.91
   2   9  -8    0.10   11.05
   2   9  -9  127.69   13.50
   2   9 -10  -11.47   13.81
   2   8  -1   62.15    9.37
  -2  -8   1   67.25   11.22
   2   8  -2  364.08   13.96
  -2  -8   2  345.49   13.47
  -2  -8   3   -0.78    8.20
   2   8  -3   -0.41   11.87
   2   8  -4   49.40   12.47
  -2  -8   4   52.55   11.66
  -2  -8   5   12.42    8.72
   2   8  -5   25.29   13.06
   2   8  -6  180.60   14.20
  -2  -8   6  186.57    9.91
   2   8  -7   11.45   13.49
   2   8  -8  272.29   15.21
   2   8  -9   40.20   15.14
   2   8 -10  201.03   17.78
   2   8 -11   16.88   17.61
  -2  -7   1  411.49   11.24
   2   7  -1  417.29   10.86
   2   7  -2  329.54   10.85
  -2  -7   2  334.72   12.50
   2   7  -3  466.79   11.84
  -2  -7   3  448.47   12.38
   2   7  -4   10.70    8.77
  -2  -7   4   19.52    8.10
   2   7  -5  305.66   12.88
  -2  -7   5  295.63    9.89
  -2  -7   6   15.15    8.76
   2   7  -6   17.00   11.52
   2   7  -7  941.28   15.63
  -2  -7   7  973.69   18.21
   2   7  -8   44.67   13.18
   2   7  -9  200.35   14.91
   2   7 -10   29.03   12.29
   2   7 -11   92.67   18.51
  -2  -6   1  259.36    9.40
   2   6  -1  252.37   12.40
  -2  -6   2 1017.27   17.39
   2   6  -2 1024.99   17.23
  -2  -6   3   60.22    7.92
   2   6  -3   53.93    8.58
   2   6  -4 1446.29   19.31
  -2  -6   4 1448.49   19.02
  -2  -6   5  213.81   12.59
   2   6  -5  201.05   13.43
   2   6  -6  298.43   13.84
  -2  -6   6  285.88    9.93
   2   6  -7  123.17    9.84
  -2  -6   7  122.53    9.88
   2   6  -8  585.99   16.71
   2   6  -9  269.13   15.52
   2   6 -10  107.15   11.86
   2   6 -11   50.03   17.18
   2   6 -12   58.21   19.64
   2   5  -1  850.10   16.78
  -2  -5   1  833.51   15.58
   2   5  -2  813.81   14.05
  -2  -5   2  836.93   15.75
   2   5  -3  664.55   15.35
  -2  -5   3  642.55   14.77
   2   5  -4   41.47   11.96
  -2  -5   4   51.87    7.60
   2   5  -5  418.99   11.60
  -2  -5   5  422.95   10.72
  -2  -5   6  217.26    9.68
   2   5  -6  227.31   10.40
   2   5  -7  163.07   12.35
  -2  -5   7  151.11    9.65
   2   5  -8   77.61    9.85
  -2  -5   8   82.00   12.18
   2   5  -9  693.54   13.96
   2   5 -10   11.99   14.90
   2   5 -11   79.10   15.22
   2   5 -12    1.37   17.32
  -2  -4   1  295.73   10.42
   2   4  -1  291.09   10.40
   2   4  -2 1463.32   20.38
  -2  -4   2 1486.00   21.48
  -2  -4   3  183.92   11.23
   2   4  -3  186.94   12.67
   2   4  -4  859.53   16.57
  -2  -4   4  837.38   14.70
  -2  -4   5   97.05   10.38
   2   4  -5  116.57    9.09
   2   4  -6  960.54   16.97
  -2  -4   6 1005.40   17.35
   2   4  -7  286.01   10.08
  -2  -4   7  280.59   12.00
   2   4  -8  639.19   15.46
  -2  -4   8  629.12   19.06
   2   4  -9   28.14    9.57
   2   4 -10  566.84   17.26
   2   4 -11    4.73   14.86
   2   4 -12   98.62   18.31
   2   3  -1  241.39   10.22
  -2  -3   1  239.48    9.69
   2   3  -2  855.04   15.80
  -2  -3   2  860.41   17.02
  -2  -3   3  962.22   16.85
   2   3  -3  963.62   16.84
  -2  -3   4    8.16    7.45
   2   3  -4    0.78   11.67
  -2  -3   5  154.43    8.73
   2   3  -5  162.31   12.33
  -2  -3   6   58.31   10.61
   2   3  -6   49.12   11.86
  -2  -3   7  178.63   12.11
   2   3  -7  189.86   12.31
  -2  -3   8    7.41   12.27
   2   3  -8    4.09   12.10
   2   3  -9  257.41   13.93
   2   3 -10  303.62   14.75
   2   3 -11  307.23   16.05
   2   3 -12    0.72   17.12
   2   2  -1  384.79   14.08
  -2  -2   1  361.02   12.97
   2   2  -2  814.20   14.90
  -2  -2   2  777.19   16.21
  -2  -2   3  422.95   11.99
   2   2  -3  442.84   14.56
  -2  -2   4 3915.78   38.49
   2   2  -4 3915.20   60.57
  -2  -2   5   34.53   10.77
   2   2  -5   23.10   11.90
  -2  -2   6  310.71   13.27
   2   2  -6  326.34   10.83
  -2  -2   7   72.99   11.21
   2   2  -7   75.43   11.94
   2   2  -8  205.79   12.71
  -2  -2   8  204.42   10.00
  -2  -2   9    0.04   11.54
   2   2  -9    2.26   11.29
   2   2 -10   41.78   13.66
   2   2 -11    2.16   13.98
   2   2 -12  113.19   17.13
   2   2 -13   -8.77   21.49
   2   1  -1   89.32    9.46
  -2  -1   1   78.54    8.25
   2   1  -2   83.52    9.11
  -2  -1   2   78.46    8.38
   2   1  -3 5891.65   54.63
  -2  -1   3 5978.72   57.48
   2   1  -4  122.44    9.55
  -2  -1   4  138.29   11.44
  -2  -1   5 2425.50   28.47
   2   1  -5 2467.17   30.09
  -2  -1   6   -5.30   10.82
   2   1  -6   -1.34    7.89
   2   1  -7  183.60    9.88
  -2  -1   7  186.72    9.87
  -2  -1   8  635.98   16.91
   2   1  -8  659.29   16.38
   2   1  -9  702.11   17.79
  -2  -1   9  652.24   17.24
   2   1 -10   -6.25   13.47
   2   1 -11  245.17   17.74
   2   1 -12    1.05   18.62
   2   1 -13   68.92   23.64
   2   0  -1   10.58   11.18
  -2   0   1   -0.04    7.45
  -2   0   2 1175.61   19.21
   2   0  -2 1181.51   17.94
  -2   0   3    1.77   10.02
   2   0  -3   -4.60   10.91
  -2   0   4 1189.56   18.42
   2   0  -4 1233.58   20.29
  -2   0   5    0.36   10.64
   2   0  -5    1.72   11.27
   2   0  -6   13.43   11.12
  -2   0   6   16.56   10.89
   2   0  -7    0.18   11.26
  -2   0   7    0.41   10.99
  -2   0   8  285.13   14.18
   2   0  -8  278.73   14.05
   2   0  -9   -0.12   12.21
  -2   0   9    1.86   12.72
   2   0 -10 1893.95   38.01
   2   0 -11   -1.14   17.55
   2   0 -12  207.96   22.36
  -2   1   0  932.78   16.33
  -2   1   1   88.94   10.56
  -2   1   2   82.01   10.45
   2  -1  -2   69.08   11.43
  -2   1   3 5716.76   54.55
   2  -1  -3 5866.52   63.98
  -2   1   4  118.99   11.44
   2  -1  -4  124.67   11.59
   2  -1  -5 2505.36   31.82
  -2   1   5 2510.66   30.74
  -2   1   6    5.46   10.62
   2  -1  -6    8.49   10.78
  -2   1   7  182.59   13.27
   2  -1  -7  189.51   12.91
   2  -1  -8  651.07   18.42
  -2   1   8  641.08   20.38
   2  -1  -9  684.03   22.13
   2  -1 -10    3.63   15.25
  -2   2   1  352.35   15.03
  -2   2   2  768.98   19.82
  -2   2   3  419.59   13.58
  -2   2   4 3975.01   41.89
  -2   2   5   31.63   10.24
  -2   2   6  340.05   13.72
  -2   2   7   71.18   11.50
  -2   2   8  206.18   15.26
  -2   3   3  959.26   21.91
  -2   3   4    2.07    9.42
  -2   3   5  155.32   11.12
  -2   3   6   45.00   12.59
  -2   3   7  172.97   15.14
  -2   3   8    8.08   15.36
  -2   4   4  847.69   21.48
  -2   4   5  115.81   10.90
  -2   4   6 1050.68   21.38
  -2   4   7  296.66   16.36
  -2   4   8  632.50   29.82
  -2   5   4   52.08    9.62
  -2   5   5  436.67   14.15
  -2   5   6  232.80   14.45
  -2   5   7  160.67   15.25
  -2   6   5  201.33   12.26
  -2   6   6  313.68   15.40
  -2   6   7  129.13   15.06
  -2   7   6   16.44   11.76
  -2   7   7 1000.49   31.23
  -2   7   7 1016.46   26.48
  -2   8   6  186.68   13.54
  -2   8   6  191.91   15.75
  -2   8   7    9.10   14.58
  -2   8   7    5.30   15.86
  -2   9   5  636.13   18.89
  -2   9   6   14.68   13.21
  -2   9   6    5.81   14.20
  -2   9   7  439.63   20.06
  -2   9   7  427.68   19.74
  -2  10   2  202.85   14.80
  -2  10   3   93.22   14.10
  -2  10   4  459.46   17.07
  -2  10   5  203.09   14.86
  -2  10   6  382.11   17.10
  -2  10   7   82.23   17.31
  -2  10   7   85.79   18.67
  -2  11   0   49.97   14.60
  -2  11   1  126.00   14.99
  -2  11   2   -2.65   13.85
  -2  11   3  391.39   16.10
  -2  11   4   70.48   14.44
  -2  11   5   59.13   15.56
  -2  11   6  110.12   16.01
  -2  11   7  228.47   19.83
  -2  11   7  207.13   20.02
  -2  11   8    7.36   29.95
  -2  11   8    6.13   30.81
  -2  12   0  327.65   12.78
  -2  12   1   14.27   15.04
  -2  12   2  304.84   16.80
  -2  12   3   19.22   15.80
  -2  12   4  209.12   16.88
  -2  12   5   -1.77   16.07
  -2  12   6  301.23   19.26
  -2  12   7    9.60   20.54
  -2  12   7   12.72   18.45
  -2  13   0  -15.25   17.01
  -2  13   1  334.81   14.53
  -2  13   2    9.82   12.65
  -2  13   3   30.16   17.57
  -2  13   4   23.27   17.99
  -2  13   5  190.70   19.21
  -2  13   6   22.32   18.83
  -2  14   0  191.75   14.63
  -2  14   1   -1.86   18.65
  -2  14   2  193.60   19.57
  -2  14   3   26.69   13.94
   1  14  -1   -2.16   17.19
   1  14  -2    6.31   18.05
   1  14  -3   20.23   13.38
   1  14  -4   97.57   18.80
   1  13  -1   63.63   14.50
   1  13  -2   26.80   15.46
   1  13  -3  236.14   15.70
   1  13  -4   23.39   16.81
   1  13  -5  225.41   18.65
   1  13  -6  -10.57   18.41
   1  12  -1   -1.19   13.30
   1  12  -2   50.43   13.48
   1  12  -3   27.56   15.04
   1  12  -4  199.05   16.36
   1  12  -5   41.28   16.20
   1  12  -6  155.24   16.40
   1  12  -7    8.63   16.90
   1  11  -1  516.10   15.57
   1  11  -2   90.28   13.68
   1  11  -3  154.73   13.40
   1  11  -4   44.06   14.37
   1  11  -5  486.19   17.50
   1  11  -6   12.31   11.72
   1  11  -7   22.23   16.68
   1  11  -8   61.63   16.59
   1  11  -9  260.15   18.98
   1  10  -1   26.75   12.71
   1  10  -2  407.34   14.63
   1  10  -3  148.32    9.89
   1  10  -4 1025.34   22.02
   1  10  -5   32.46   12.94
   1  10  -6  574.26   15.12
   1  10  -7   14.81   14.04
   1  10  -8  211.87   16.92
   1  10  -9   -5.39   16.66
   1   9  -1  450.70   11.84
   1   9  -2   13.73    9.01
   1   9  -3  719.36   15.23
   1   9  -4  129.48    9.51
   1   9  -5   46.73    9.78
   1   9  -6   47.66   14.02
   1   9  -7  344.95   15.52
   1   9  -8   36.41   14.49
   1   9  -9  105.86   16.86
   1   9 -10   -6.51   16.88
   1   8  -1   -5.21   11.80
  -1  -8   1   -1.64   11.05
   1   8  -2 1736.11   22.14
   1   8  -3  371.63   13.34
   1   8  -4   19.62   12.18
   1   8  -5   18.85   12.68
   1   8  -6   22.02    9.20
   1   8  -7   -2.00    9.91
   1   8  -8  417.96   12.58
   1   8  -9    8.12   14.87
   1   8 -10  330.90   17.42
   1   8 -11   11.32   19.57
   1   7  -1 1005.79   21.05
  -1  -7   1  994.92   16.49
  -1  -7   2   -6.18    7.81
   1   7  -2   -3.39   11.18
  -1  -7   3  340.61   12.64
   1   7  -3  331.37   13.09
   1   7  -4  293.07   13.03
   1   7  -5  171.62   12.99
   1   7  -6  522.19   12.02
   1   7  -7   80.41   12.65
   1   7  -8   -4.41   10.22
   1   7  -9  197.75   15.54
   1   7 -10   22.80   12.15
   1   7 -11    6.91   16.58
   1   6  -1    2.46   11.30
  -1  -6   1    4.11    7.37
  -1  -6   2 1733.75   24.33
   1   6  -2 1795.49   22.75
   1   6  -3  390.90   13.64
  -1  -6   3  439.49   13.18
  -1  -6   4 1768.30   23.33
   1   6  -4 1737.31   23.27
   1   6  -5   96.15   12.00
   1   6  -6  445.54   11.72
   1   6  -7    4.89    9.12
   1   6  -8  576.63   15.75
   1   6  -9  235.42   15.05
   1   6 -10  313.66   16.70
   1   6 -11   -2.43   17.35
   1   6 -12  144.80   20.36
   1   5  -1 2711.70   30.59
  -1  -5   1 2742.09   32.39
  -1  -5   2   51.98   11.05
   1   5  -2   39.75    8.83
   1   5  -3 3163.36   31.70
  -1  -5   3 3260.51   39.27
  -1  -5   4   -1.15    7.79
   1   5  -4    6.22   11.66
  -1  -5   5  872.72   20.97
   1   5  -5  884.05   14.26
   1   5  -6   -8.03   12.07
   1   5  -7 1257.10   24.30
   1   5  -8  160.18   12.84
   1   5  -9  897.38   21.20
   1   5 -10   22.83   14.57
   1   5 -11  624.77   20.17
   1   5 -12   33.14   16.93
   1   4  -1  694.68   18.74
  -1  -4   1  712.64   17.17
  -1  -4   2 1899.43   25.97
   1   4  -2 1939.31   26.70
  -1  -4   3  103.16    8.54
   1   4  -3   92.78    9.58
  -1  -4   4    6.81    7.24
   1   4  -4   -1.61   12.01
  -1  -4   5   21.05    8.16
   1   4  -5   11.84   11.45
   1   4  -6  239.71   13.53
   1   4  -7   64.82   12.12
   1   4  -8  207.07   13.23
   1   4  -9   26.25   12.93
   1   4 -10   67.26   14.87
   1   4 -11   10.11   14.91
   1   4 -12   46.66   17.90
   1   3  -1 3287.07   42.64
  -1  -3   1 3300.43   49.17
   1   3  -2   25.19   12.76
  -1  -3   2   35.49    8.17
  -1  -3   3  596.88   16.44
   1   3  -3  582.74   13.59
   1   3  -4 1577.18   24.00
  -1  -3   4 1550.68   25.32
   1   3  -5   23.30   12.12
  -1  -3   5   29.61   10.69
   1   3  -6  268.82   10.50
  -1  -3   6  255.43   10.63
   1   3  -7  696.92   17.58
   1   3  -8   11.42   12.14
   1   3  -9  343.60   14.51
   1   3 -10   18.40   14.21
   1   3 -11   45.16   16.17
   1   3 -12   98.96   17.62
   1   3 -13  225.27   23.49
  -1  -2   1 1443.17   24.23
   1   2  -1 1451.94   23.24
   1   2  -2 1500.84   23.78
  -1  -2   2 1520.45   23.33
   1   2  -3  813.51   18.81
  -1  -2   3  795.84   17.86
   1   2  -4 1505.29   24.51
  -1  -2   4 1496.74   23.95
  -1  -2   5   20.29   10.61
   1   2  -5   24.58   12.11
  -1  -2   6 1165.23   19.22
   1   2  -6 1237.76   24.37
   1   2  -7  478.35   14.57
   1   2  -8  984.15   21.37
   1   2  -9   11.55   13.09
   1   2 -10    0.15   15.30
   1   2 -11    5.72   17.03
   1   2 -12  190.13   17.83
   1   2 -13    1.32   21.45
  -1  -1   1  950.08   22.27
   1   1  -1  947.54   21.13
  -1  -1   2 1646.31   31.44
   1   1  -2 1605.70   26.11
   1   1  -3 1304.22   23.09
  -1  -1   3 1327.11   20.96
  -1  -1   4  137.00   12.01
   1   1  -4  137.52   13.12
  -1  -1   5 1408.76   25.31
   1   1  -5 1402.09   22.07
  -1  -1   6  385.89   15.47
   1   1  -6  380.26   14.73
   1   1  -7 1161.81   22.45
   1   1  -8   34.00   12.47
   1   1  -9   76.40   14.22
   1   1 -10   81.83   16.02
   1   1 -11   91.49   17.10
   1   1 -12  214.28   19.92
   1   1 -13  234.89   26.84
  -1   0   1    1.37   13.22
   1   0  -1    2.24   14.17
   1   0  -2 4763.21   53.81
  -1   0   2 4655.23   52.75
  -1   0   3   -3.00   11.01
   1   0  -3    1.58    8.47
  -1   0   4  301.61   14.05
   1   0  -4  305.34   14.70
   1   0  -5    2.88   11.36
  -1   0   5    4.22   10.33
   1   0  -6 2120.82   28.80
  -1   0   6 2081.21   32.75
   1   0  -7    2.58   10.88
   1   0  -8  811.62   20.82
   1   0  -9    6.18   13.98
   1   0 -10  884.58   23.72
   1   0 -11   -3.14   17.76
   1   0 -12  517.63   32.39
  -1   1   1  946.64   22.19
  -1   1   2 1563.75   28.71
   1  -1  -2 1580.02   30.07
  -1   1   3 1353.58   27.18
   1  -1  -3 1336.21   25.39
  -1   1   4  137.91   15.49
   1  -1  -4  140.17   13.56
   1  -1  -5 1400.12   26.42
  -1   1   5 1393.23   30.08
   1  -1  -6  376.92   16.97
  -1   1   6  372.66   15.74
   1  -1  -7 1149.30   28.46
   1  -1  -8   28.29   15.61
   1  -1  -9   80.94   17.89
   1  -1 -10   77.55   24.85
  -1   2   3  822.04   21.51
  -1   2   4 1531.85   30.40
  -1   2   5   19.97   14.39
  -1   3   4 1589.33   36.99
  -1   3   5   24.19   14.69
  -1   4   5   11.62   14.06
  -1   5   5  888.45   22.51
  -1   5   5  862.45   23.84
  -1   6   4 1885.09   44.98
  -1   6   5   94.12   14.25
  -1   6   6  470.26   23.52
  -1   6   6  469.88   25.14
  -1   7   2   -3.13   11.64
  -1   7   3  353.42   14.43
  -1   7   4  317.37   14.17
  -1   7   5  185.32   15.01
  -1   7   6  569.52   20.72
  -1   7   6  575.49   23.13
  -1   8   0  592.65   17.28
  -1   8   1    4.32   12.17
  -1   8   2 1733.07   40.62
  -1   8   3  368.99   14.55
  -1   8   4   -1.80   11.58
  -1   8   5   10.21   14.01
  -1   8   6   18.09   14.08
  -1   9   0   -4.02   11.92
  -1   9   1  441.10   14.15
  -1   9   2   26.31   11.55
  -1   9   3  770.34   19.01
  -1   9   4  148.22   13.14
  -1   9   5   55.07   13.13
  -1   9   6   57.03   13.73
  -1   9   7  375.06   27.14
  -1   9   7  360.76   28.01
  -1  10   0  340.30   13.66
  -1  10   1   28.23   12.60
  -1  10   2  416.36   13.55
  -1  10   3  157.63   10.10
  -1  10   4 1097.43   22.50
  -1  10   5   32.29   13.98
  -1  10   6  587.72   20.74
  -1  10   7   11.96   19.10
  -1  10   7   10.96   19.43
  -1  11   0  119.51   10.37
  -1  11   1  529.66   13.92
  -1  11   2   60.42   13.46
  -1  11   3  166.78   14.09
  -1  11   4   34.89   14.09
  -1  11   5  520.47   17.57
  -1  11   6    0.52   17.47
  -1  11   7   37.28   20.11
  -1  12   0  259.23   14.60
  -1  12   1   -9.81   12.99
  -1  12   2   42.96   13.94
  -1  12   3   49.39   14.78
  -1  12   4  209.59   16.57
  -1  12   5   32.04   16.35
  -1  12   6  179.99   17.70
  -1  12   7   15.07   22.89
  -1  13   0   13.12   15.44
  -1  13   1   44.32   16.26
  -1  13   2    9.64   15.54
  -1  13   3  244.69   17.25
  -1  13   4   -0.10   16.76
  -1  13   5  217.54   18.73
  -1  13   6    6.00   18.92
  -1  14   0  106.57   17.56
  -1  14   1    4.31   17.65
  -1  14   2   24.10   16.63
  -1  14   3   34.48   16.99
  -1  14   4  108.56   19.46
   0  14  -1   30.94   15.71
   0  14  -2  138.16   13.57
   0  14  -3    9.40   13.15
   0  14  -4   38.60   16.83
   0  13  -1  108.71   14.19
   0  13  -2   -4.28   15.08
   0  13  -3  208.77   17.07
   0  13  -4   -7.89   16.11
   0  13  -5   26.96   17.36
   0  13  -6    7.59   13.35
   0  12  -1   67.32   14.03
   0  12  -2  116.12   10.98
   0  12  -3    5.95   10.75
   0  12  -4  111.17   11.74
   0  12  -5    9.15   15.27
   0  12  -6   68.02   16.18
   0  12  -7   -3.45   17.49
   0  11  -1 1048.60   18.93
   0  11  -2  141.69   13.96
   0  11  -3  516.16   17.06
   0  11  -4   58.28   14.06
   0  11  -5  383.20   12.80
   0  11  -6   60.87   15.71
   0  11  -7  286.21   17.73
   0  11  -8    2.34   17.53
   0  10  -1  119.03   12.82
   0  10  -2  731.08   15.69
   0  10  -3  121.10   10.14
   0  10  -4  859.28   16.95
   0  10  -5  275.75   14.86
   0  10  -6  679.10   19.25
   0  10  -7   45.18   15.29
   0  10  -8  134.76   16.69
   0  10  -9    2.71   12.96
   0   9  -1    0.59    8.79
   0   9  -2   54.94   11.90
   0   9  -3  300.87   13.40
   0   9  -4  164.48    9.59
   0   9  -5  129.53   12.82
   0   9  -6   13.11   13.24
   0   9  -7   24.99   13.96
   0   9  -8  246.30   16.48
   0   9  -9  182.91   13.62
   0   9 -10    2.21   17.13
   0   8  -1  354.04   14.28
   0   8  -2  832.24   17.13
   0   8  -3    0.33    8.73
   0   8  -4  915.30   19.88
   0   8  -5   -1.21   11.96
   0   8  -6   -8.34   12.25
   0   8  -7   -4.79   13.43
   0   8  -8  285.52   11.99
   0   8  -9   30.37   16.06
   0   8 -10  246.94   17.96
   0   8 -11   24.93   20.27
   0   7  -1  136.89    9.06
   0   7  -2   86.27    8.76
   0   7  -3  872.21   14.94
   0   7  -4   10.46   11.79
   0   7  -5  701.37   13.97
   0   7  -6   -9.86   11.46
   0   7  -7   60.72   13.27
   0   7  -8   25.96   13.26
   0   7  -9   34.57   11.06
   0   7 -10    4.79   11.88
   0   7 -11   82.49   17.79
   0   6  -1  241.34   13.06
   0   6  -2 1112.77   21.22
   0   6  -3  141.96   12.54
   0   6  -4  721.06   16.33
   0   6  -5  184.76    9.42
   0   6  -6 1576.10   24.16
   0   6  -7   14.23    8.81
   0   6  -8   55.80   13.48
   0   6  -9  139.53   14.69
   0   6 -10  338.01   13.15
   0   6 -11   34.28   17.86
   0   6 -12  270.43   16.06
   0   5  -1 3709.02   53.64
   0   5  -2   35.28    8.65
   0   5  -3 1423.96   24.79
   0   5  -4   -3.21    8.52
   0   5  -5 2098.55   37.86
   0   5  -6  226.63   12.52
   0   5  -7  934.26   20.30
   0   5  -8  144.27   13.64
   0   5  -9  356.56   15.88
   0   5 -10   -0.59   13.92
   0   5 -11  609.98   20.72
   0   5 -12   25.14   19.54
   0   4  -1  354.35   12.49
   0   4  -2   30.29   12.53
   0   4  -3  147.29    9.92
   0   4  -4 1033.24   18.93
   0   4  -5   53.21   12.09
   0   4  -6  167.48   12.68
   0   4  -7  273.96   13.54
   0   4  -8  255.73   13.69
   0   4  -9    5.11    9.63
   0   4 -10   53.31   14.60
   0   4 -11    7.17   16.11
   0   4 -12  245.22   18.14
   0   3  -1 3348.66   70.25
   0   3  -2  157.84   13.92
   0   3  -3  450.10   12.84
   0   3  -4  247.21   13.65
   0   3  -5  486.51   13.30
   0   3  -6    4.92   11.06
   0   3  -7  474.94   15.72
   0   3  -8  120.38    9.95
   0   3  -9  296.59   14.62
   0   3 -10  148.44   14.82
   0   3 -11   96.29   15.27
   0   3 -12    3.58   17.37
   0   2  -1   63.99   12.24
   0   2  -2  495.96   15.85
   0   2  -3   78.31   12.88
   0   2  -4    5.24    9.03
   0   2  -5  109.40    9.77
   0   2  -6 2362.70   31.63
   0   2  -7    9.99   12.04
   0   2  -8  102.35   12.31
   0   2  -9   14.52   12.19
   0   2 -10  174.98   15.12
   0   2 -11   49.77   15.77
   0   2 -12   63.02   20.25
   0   2 -13   11.26   23.85
   0   1  -1 3159.95   51.40
   0   1  -2 2014.94   48.64
   0   1  -3  139.19   14.56
   0   1  -4   -1.75   11.78
   0   1  -5 1564.80   32.41
   0   1  -6  171.57   12.93
   0   1  -7 1244.48   27.07
   0   1  -8   11.67   12.49
   0   1  -9   57.47   15.52
   0   1 -10   -2.86   16.08
   0   1 -11  192.51   16.31
   0   1 -12   41.66   20.37
   0   1 -13  189.25   25.67
   0   1 -13  199.99   28.93
   0   0  -2 3424.16   60.06
   0   0  -3    0.36   12.78
   0   0  -4 1535.25   31.33
   0   0  -5   -2.49   13.76
   0   0  -6 2528.60   47.92
   0   0  -7    4.19   11.30
   0   0  -8 1701.57   33.81
   0   0  -9   -1.26   15.57
   0   0 -10  245.17   18.16
   0   0 -11    4.41   19.41
   0   1   0  -39.44   23.84
   0  -1   0   -6.95   13.30
   0   1   1 3457.23   89.54
   0  -1  -1 3418.86   85.44
   0  -1  -3  144.92   21.16
   0  -1  -4    0.72   16.55
   0  -1  -5 1611.98   37.74
   0  -1  -6  166.85   15.97
   0  -1  -7 1314.18   32.96
   0  -1  -8    9.59   18.16
   0  -1  -9   69.21   19.19
   0   2   0    4.09   11.67
   0   2   1   52.30   15.67
   0   2   2  516.40   27.09
   0   3   0    6.65   13.65
   0   3   1 3527.13   64.88
   0   3   2  178.17   16.75
   0   3   3  492.76   24.51
   0   4   0 3502.11   51.51
   0   4   1  369.82   14.78
   0   4   2   29.94   12.13
   0   4   3  142.87   13.36
   0   4   4 1085.94   33.11
   0   5   0   -3.76   12.07
   0   5   1 3765.39   48.70
   0   5   2   44.52   11.99
   0   5   3 1444.02   24.13
   0   5   4   -0.33   10.04
   0   5   5 2210.17   60.07
   0   6   0   96.25   11.84
   0   6   1  236.91   13.61
   0   6   2 1051.62   23.73
   0   6   3  161.87   11.92
   0   6   4  752.35   19.84
   0   6   5  183.42   15.23
   0   7   0   -0.61   11.18
   0   7   1  138.54    9.17
   0   7   2   83.27   11.70
   0   7   3  909.54   18.26
   0   7   4    1.68   13.10
   0   7   5  757.18   21.33
   0   7   6    5.96   19.70
   0   8   0 1139.78   21.80
   0   8   1  369.27   14.29
   0   8   2  873.37   19.87
   0   8   3    7.88   11.91
   0   8   4  973.71   22.23
   0   8   5    1.89   13.56
   0   8   6    0.08   15.45
   0   9   0    4.40    8.23
   0   9   1   -1.68   11.30
   0   9   2   50.16    8.75
   0   9   3  344.53   14.19
   0   9   4  183.79   13.31
   0   9   5  141.40   13.79
   0   9   6   15.75   14.22
   0  10   0  115.22   12.63
   0  10   1  124.38    9.49
   0  10   2  729.26   17.90
   0  10   3  111.52   12.84
   0  10   4  859.65   19.51
   0  10   5  290.49   16.58
   0  10   6  738.64   21.63
   0  10   7   60.42   26.67
   0  11   0   10.32    8.99
   0  11   1 1094.52   22.64
   0  11   2  155.46   13.87
   0  11   3  558.55   16.65
   0  11   4   50.40   13.20
   0  11   5  389.18   16.90
   0  11   6   71.93   17.45
   0  11   7  289.79   25.43
   0  12   0  203.90   14.42
   0  12   1   83.54   10.61
   0  12   2  103.90   10.98
   0  12   3   -2.60   14.32
   0  12   4  108.46   15.42
   0  12   5   16.05   17.10
   0  12   6   53.85   16.44
   0  12   7   -0.91   22.89
   0  13   0    5.18   14.41
   0  13   1  146.95   16.00
   0  13   2   13.14   15.92
   0  13   3  191.02   12.80
   0  13   4    3.72   16.35
   0  13   5   36.02   17.44
   0  13   6   10.44   21.35
   0  14   0   34.60   15.70
   0  14   1   18.90   16.05
   0  14   2  141.16   13.96
   0  14   3   -9.86   17.33
   0  14   4   56.87   19.64
   0  15   0  -11.37   19.91
   0  15   1  179.99   18.39
  -1  14  -1   -7.59   16.02
  -1  14  -2  159.48   18.81
  -1  14  -3   15.19   18.43
  -1  14  -4  113.67   19.80
  -1  13  -1  365.78   16.47
  -1  13  -2   14.38   16.42
  -1  13  -3   38.67   16.45
  -1  13  -4    5.43   15.46
  -1  13  -5   37.90   17.46
  -1  13  -6    4.96   14.38
  -1  12  -1  102.93   13.92
  -1  12  -2  593.78   17.79
  -1  12  -3   22.38   15.01
  -1  12  -4   90.89   11.95
  -1  12  -5   23.00   16.58
  -1  12  -6  150.50   18.34
  -1  12  -7    2.06   19.00
  -1  11  -1  632.87   19.08
  -1  11  -2   17.85   13.65
  -1  11  -3  412.73   15.75
  -1  11  -4   -3.39   10.88
  -1  11  -5   98.17   11.40
  -1  11  -6   20.27   11.88
  -1  11  -7  576.55   16.64
  -1  11  -8  133.97   18.59
  -1  10  -1  256.09   13.98
  -1  10  -2  271.53   14.05
  -1  10  -3  208.65   13.34
  -1  10  -4  523.20   16.30
  -1  10  -5  138.17   11.01
  -1  10  -6  354.74   16.07
  -1  10  -7    9.95   15.28
  -1  10  -8  146.32   13.71
  -1  10  -9   25.60   19.58
  -1   9  -1  265.13   11.70
  -1   9  -2  228.87   13.46
  -1   9  -3  136.53   11.97
  -1   9  -4   14.08   12.52
  -1   9  -5  595.42   16.94
  -1   9  -6   14.20   14.38
  -1   9  -7   66.46   11.14
  -1   9  -8   58.62   16.08
  -1   9  -9  128.64   18.17
  -1   9 -10   13.40   20.59
  -1   8  -1   64.43   12.39
  -1   8  -2  148.06   10.41
  -1   8  -3   62.91   12.59
  -1   8  -4  199.67   13.45
  -1   8  -5    5.45   12.39
  -1   8  -6  194.61   10.92
  -1   8  -7    7.38   13.66
  -1   8  -8   58.26   15.32
  -1   8  -9   32.65   16.35
  -1   8 -10  230.09   18.79
  -1   7  -3  990.19   23.67
  -1   7  -4    3.85   12.86
  -1   7  -5 1124.92   18.30
  -1   7  -6  139.10   13.91
  -1   7  -7  475.50   16.06
  -1   7  -8  244.26   15.19
  -1   7  -9   57.90   16.04
  -1   7 -10    5.00   16.17
  -1   7 -11  200.09   20.63
  -1   6  -5   10.98    9.32
  -1   6  -6  651.19   14.26
  -1   6  -7    0.56    8.82
  -1   6  -8  314.42   11.97
  -1   6  -9  106.71   15.62
  -1   6 -10   37.33   15.41
  -1   6 -11   47.76   16.76
  -1   5  -6   21.17   12.06
  -1   5  -7  217.64   14.05
  -1   5  -8  159.60   10.78
  -1   5  -9  202.04   15.03
  -1   5 -10    2.31   16.00
  -1   5 -11   67.92   17.86
  -1   4  -7  242.52   14.56
  -1   4  -8  236.05   13.32
  -1   4  -9   28.25   13.26
  -1   4 -10  690.51   19.27
  -1   4 -11   -0.49   17.24
  -1   4 -12  173.18   21.36
  -1   3  -7   51.14    9.51
  -1   3  -8   45.07   12.86
  -1   3  -9  382.90   16.22
  -1   3 -10    7.11   14.62
  -1   3 -11  191.10   17.76
  -1   3 -12   12.12   18.58
  -1   2  -8  139.07   13.68
  -1   2  -9   22.13   13.73
  -1   2 -10  146.66   15.29
  -1   2 -11   -2.66   16.77
  -1   2 -12   25.11   19.96
  -1   1  -8   11.66   12.88
  -1   1  -9  677.93   20.63
  -1   1 -10   93.10   16.61
  -1   1 -11  245.34   20.38
  -1   1 -12    0.63   21.81
  -1   1 -12   -0.52   19.67
  -1   0   0 6524.24   66.23
   1   0   0 6518.33   69.51
  -1   0  -1    4.10   12.41
  -1   0  -8  809.53   20.68
  -1   0  -9   -8.54   15.91
  -1   0 -10  835.60   25.32
  -1   0 -10  818.19   22.13
  -1   0 -11    0.27   18.13
  -1   0 -11    1.55   19.42
  -1   0 -12   24.75   23.21
  -1   0 -12   29.21   23.75
   1   1   0    6.22   14.18
  -1  -1   0    5.44   13.39
  -1  -1  -1 1767.35   36.89
   1   1   1 1742.29   28.63
  -1  -1  -2 9999.00  122.51
  -1  -1  -3 4102.31   63.96
  -1  -1  -4  790.40   18.56
  -1  -1  -5 1127.86   22.38
  -1  -1  -6    1.61   11.58
  -1  -1  -7  296.76   14.97
  -1  -1  -8    8.22   12.39
  -1  -1  -8   12.47   12.26
  -1  -1  -9  674.86   23.69
  -1  -1  -9  689.77   20.48
  -1  -1 -10   87.17   16.63
  -1  -1 -10   75.35   19.70
  -1  -2   0  462.67   17.42
   1   2   0  482.55   18.21
   1   2   1 2489.87   35.06
  -1  -2  -1 2587.70   36.80
   1   2   2   -1.05   10.98
  -1  -2  -2    4.81   10.60
  -1  -2  -3  113.60   11.97
  -1  -2  -4 2587.08   45.10
  -1  -2  -5   63.05   12.46
  -1  -2  -6   21.68   12.36
  -1  -2  -7   11.42   13.34
  -1  -2  -8  150.85   17.40
  -1  -2  -8  157.63   19.06
  -1  -2  -9   25.85   23.05
  -1  -2  -9   20.98   22.17
   1   3   0  112.90   14.16
  -1  -3   0  124.07   12.11
  -1  -3  -1    8.07    7.77
   1   3   1   10.36    8.34
   1   3   2   74.60   11.96
  -1  -3  -2   82.75   11.97
  -1  -3  -3 1221.48   24.79
   1   3   3 1192.99   24.07
  -1  -3  -4  368.19   15.13
  -1  -3  -5  486.40   18.51
  -1  -3  -6  157.97   15.77
  -1  -3  -7   59.21   18.71
   1   4   0  395.33   15.24
  -1  -4   0  394.63   11.75
   1   4   1  214.86   13.70
  -1  -4  -1  215.69   12.68
  -1  -4  -2 1925.79   27.78
   1   4   2 1937.46   26.96
   1   4   3   20.52   10.47
  -1  -4  -3   21.55   10.73
   1   4   4 2012.88   31.03
  -1  -4  -4 1962.98   30.15
  -1  -4  -5    8.03   12.85
  -1  -4  -6 1030.94   32.02
  -1  -5   0 1687.33   23.99
   1   5   0 1664.88   25.38
  -1  -5  -1 1682.52   27.86
   1   5   1 1731.05   25.77
  -1  -5  -2  288.08   12.52
   1   5   2  276.33   13.55
  -1  -5  -3  369.84   13.76
   1   5   3  366.92   13.47
  -1  -5  -4   15.78   12.70
   1   5   4   -0.61    9.65
   1   5   5  741.43   19.84
  -1  -5  -5  748.50   23.17
  -1  -5  -6   28.85   18.41
   1   6   0 1151.23   21.84
  -1  -6   0 1164.54   19.83
   1   6   1   18.27   11.57
  -1  -6  -1   36.52   10.58
   1   6   2  177.32   12.45
  -1  -6  -2  171.45    9.39
  -1  -6  -3 1462.18   25.36
   1   6   3 1459.22   24.34
   1   6   4 1188.27   23.13
  -1  -6  -4 1161.31   23.32
  -1  -6  -5    2.66   13.79
   1   6   5    1.21   12.50
   1   7   0  460.19   14.26
  -1  -7   0  444.86   15.15
   1   7   1   18.56   11.81
  -1  -7  -1   13.79    7.88
   1   7   2  119.07    9.21
  -1  -7  -2  105.75    8.74
  -1  -7  -3 1019.31   18.42
   1   7   3 1029.48   20.40
  -1  -7  -4   -4.46   13.29
   1   7   4    3.65   12.37
   1   7   5 1169.45   27.80
   1   7   6  148.45   16.16
  -1  -8   0  549.55   12.27
   1   8   0  554.71   14.74
  -1  -8  -1   59.44    8.17
   1   8   1   60.19   11.08
  -1  -8  -2  144.73   11.89
   1   8   2  143.28   11.51
   1   8   3   68.30   12.00
   1   8   4  192.15   12.98
   1   8   5   -1.69   11.81
   1   8   6  198.67   15.92
   1   9   0   -9.26   11.93
   1   9   1  267.81   12.56
   1   9   2  222.70   12.57
   1   9   3  133.72   12.64
   1   9   4   15.09   11.16
   1   9   5  624.49   18.82
   1   9   6   27.49   13.28
   1  10   0  359.76   11.67
   1  10   1  245.05   10.63
   1  10   2  292.23   13.34
   1  10   3  225.33   13.42
   1  10   4  552.35   15.61
   1  10   5  135.49   13.83
   1  10   6  368.53   18.98
   1  10   7   11.72   21.44
   1  11   0  120.64   13.72
   1  11   1  633.86   16.51
   1  11   2   15.94   12.89
   1  11   3  450.67   15.97
   1  11   4   -1.60   14.01
   1  11   5   91.03   14.56
   1  11   6    7.98   17.65
   1  11   7  549.41   27.23
   1  12   0  289.81   15.38
   1  12   1   83.59   14.16
   1  12   2  620.23   16.79
   1  12   3   20.34   13.55
   1  12   4   85.35   14.52
   1  12   5    1.33   18.03
   1  12   6  170.89   20.11
   1  12   7   -0.06   22.57
   1  13   0   27.04   15.88
   1  13   1  338.06   17.72
   1  13   2   13.26   15.75
   1  13   3   18.43   16.55
   1  13   4   10.58   16.91
   1  13   5   21.58   17.22
   1  14   0  130.79   17.66
   1  14   1    7.73   16.97
   1  14   2  165.16   18.56
   1  14   3    3.21   18.68
   1  14   4  108.87   20.56
  -2  14  -1   14.00   18.94
  -2  14  -2   29.13   19.56
  -2  13  -1   71.48   15.30
  -2  13  -2   25.73   16.37
  -2  13  -3  121.25   17.65
  -2  13  -4   34.65   14.23
  -2  12  -1  129.44   14.09
  -2  12  -2  430.56   13.46
  -2  12  -3   36.36   15.99
  -2  12  -4  303.94   14.13
  -2  12  -5   -5.42   12.94
  -2  12  -6  117.76   15.30
  -2  11  -1  257.19   16.06
  -2  11  -2   84.58   15.31
  -2  11  -3   35.39   11.62
  -2  11  -4   97.19   11.86
  -2  11  -5   98.42   11.93
  -2  11  -6    0.75   12.85
  -2  11  -7   90.55   18.52
  -2  10  -2  167.42   11.26
  -2  10  -3   47.62   13.24
  -2  10  -4  296.82   16.31
  -2  10  -5  125.11   12.05
  -2  10  -6  257.79   14.00
  -2  10  -7   30.58   17.05
  -2  10  -8  107.31   18.88
  -2   9  -5  452.46   15.33
  -2   9  -6  100.94   15.23
  -2   9  -7  442.77   16.08
  -2   9  -8    3.69   16.47
  -2   9  -9   62.34   18.65
  -2   8  -6  239.69   15.62
  -2   8  -7   27.31   14.59
  -2   8  -8  183.98   16.52
  -2   8  -9    2.95   17.64
  -2   7  -7  322.64   16.15
  -2   7  -8    9.66   15.54
  -2   7  -9  168.99   12.83
  -2   7 -10   -2.69   19.83
  -2   6  -8  519.38   14.65
  -2   6  -9   31.38   16.99
  -2   6 -10   22.98   18.20
  -2   5  -9  197.96   17.78
  -2   5 -10  104.02   17.13
  -2   5 -11   11.13   19.98
  -2   4  -9   75.85   14.56
  -2   4 -10  288.06   18.63
  -2   4 -11   19.56   18.34
  -2   3  -9  277.87   13.40
  -2   3 -10   18.86   16.36
  -2   3 -11  140.82   19.81
  -2   2 -10   61.70   16.91
  -2   2 -11   17.38   18.65
  -2   2 -11    8.76   15.30
  -2   1  -1 1586.23   25.91
  -2   1  -9  381.23   15.11
  -2   1 -10    8.57   13.93
  -2   1 -10    7.28   16.18
  -2   1 -11  104.82   21.35
  -2   1 -11  105.93   16.27
  -2   1 -12   63.04   19.77
  -2   0   0  609.25   15.05
   2   0   0  619.78   22.02
  -2   0  -1    0.51    7.20
  -2   0  -2 2279.22   40.69
  -2   0  -3    2.14    9.91
  -2   0  -4   15.63    9.28
  -2   0  -5    5.75    9.57
  -2   0  -6   28.09    7.27
  -2   0  -7   -4.00   10.66
  -2   0  -8  445.18   15.01
  -2   0  -9   -2.10   12.37
  -2   0 -10  390.37   18.71
  -2   0 -10  417.63   21.53
  -2   0 -11   -0.09   18.25
  -2   0 -11   -6.56   20.10
  -2   0 -12   40.58   21.73
  -2   0 -12   42.68   25.70
  -2  -1   0 1005.82   17.53
   2   1   0  978.37   18.42
  -2  -1  -1 1593.92   21.85
   2   1   1 1582.59   20.99
  -2  -1  -2   45.53    7.69
  -2  -1  -3 5662.10   71.02
  -2  -1  -4 1292.97   20.14
  -2  -1  -5  525.55   12.13
  -2  -1  -6    3.65   10.64
  -2  -1  -7  293.37   13.69
  -2  -1  -8    6.84   11.69
  -2  -1  -9  372.97   16.80
  -2  -1 -10    9.48   14.36
  -2  -1 -10   10.44   16.23
  -2  -1 -11   99.66   21.44
  -2  -1 -11  108.53   23.46
  -2  -1 -12   52.49   32.76
   2   2   0  416.32   14.38
  -2  -2   0  404.00   13.97
   2   2   1  251.62   10.67
  -2  -2  -1  264.51   12.50
  -2  -2  -2 1669.83   23.67
   2   2   2 1588.91   23.45
  -2  -2  -3    1.58   10.36
  -2  -2  -4 1997.15   36.00
  -2  -2  -5  378.41   14.29
  -2  -2  -6  401.34   15.13
  -2  -2  -7   80.90   11.69
  -2  -2  -8  303.95   16.82
  -2  -2  -9   -1.58   15.63
  -2  -2 -10   54.79   18.17
  -2  -2 -10   58.63   18.77
  -2  -2 -11   11.64   29.35
  -2  -2 -11    9.17   33.05
   2   3   0   18.22    8.31
  -2  -3   0   14.58    7.71
   2   3   1  524.36   12.49
  -2  -3  -1  515.92   12.25
   2   3   2   29.17   11.15
  -2  -3  -2   43.38   10.80
   2   3   3  219.37    9.49
  -2  -3  -3  226.65    9.66
  -2  -3  -4  937.54   20.65
  -2  -3  -5  272.79   12.84
  -2  -3  -6   16.19   11.21
  -2  -3  -7  273.52   14.17
  -2  -3  -8  115.40   16.48
  -2  -3  -9  301.76   20.06
  -2  -3 -10   36.02   29.12
  -2  -3 -10   32.34   30.69
  -2  -4   0  869.29   16.84
   2   4   0  884.72   17.89
   2   4   1    1.76    8.06
  -2  -4  -1    5.42    7.52
   2   4   2 2865.86   33.61
  -2  -4  -2 2846.95   38.21
   2   4   3  499.35   15.59
  -2  -4  -3  499.16   13.92
   2   4   4  648.56   15.45
  -2  -4  -4  679.03   15.96
  -2  -4  -5   -0.24   11.61
  -2  -4  -6  396.69   16.58
  -2  -4  -7   29.04   15.25
  -2  -4  -8  377.98   18.70
  -2  -4  -9   99.41   24.74
   2   5   0    5.89   11.57
  -2  -5   0    6.31   10.58
  -2  -5  -1  639.69   12.68
   2   5   1  623.69   13.37
   2   5   2  132.80    8.87
  -2  -5  -2  125.10   11.65
  -2  -5  -3  716.05   14.50
   2   5   3  721.16   15.69
  -2  -5  -4   50.20   11.55
   2   5   4   56.71   10.90
  -2  -5  -5    1.11   11.81
  -2  -5  -6   92.98   12.94
  -2  -5  -7  407.04   19.28
  -2  -5  -8    8.41   18.19
  -2  -6   0 1186.06   21.19
   2   6   0 1237.27   16.66
  -2  -6  -1  118.13   11.25
   2   6   1  118.84   12.05
  -2  -6  -2  944.60   17.38
   2   6   2  944.86   17.38
   2   6   3    0.52   10.01
  -2  -6  -3   13.48   10.38
   2   6   4  559.30   15.49
  -2  -6  -4  569.00   15.58
   2   6   5    7.82   12.60
  -2  -6  -5   11.66   11.40
  -2  -6  -6  421.77   16.80
  -2  -6  -7    4.64   14.62
  -2  -6  -8  523.02   28.83
  -2  -7   0    9.91   10.37
   2   7   0   15.04   10.92
  -2  -7  -1 1053.91   18.19
   2   7   1 1072.90   19.18
  -2  -7  -2   21.34   10.79
   2   7   2   24.57   10.79
   2   7   3  200.33    9.61
  -2  -7  -3  210.24   12.59
   2   7   4   26.77   10.96
  -2  -7  -4   31.64   12.08
  -2  -7  -5  536.87   16.24
   2   7   5  536.02   16.39
  -2  -7  -6  149.77   16.50
  -2  -7  -7  323.85   19.52
   2   8   0  918.59   14.80
  -2  -8   0  907.68   16.66
   2   8   1   87.62    8.51
  -2  -8  -1   86.98    8.14
   2   8   2   75.35   11.53
  -2  -8  -2   61.78   11.85
  -2  -8  -3   16.01   11.16
   2   8   3   13.96   11.09
   2   8   4    3.92   11.11
  -2  -8  -4    4.71   11.31
   2   8   5   -2.61   12.37
  -2  -8  -5    4.01   13.14
  -2  -8  -6  242.45   18.25
   2   8   6  230.42   16.42
  -2  -9   0   46.04   11.74
   2   9   0   34.64   12.52
  -2  -9  -1  859.32   17.99
   2   9   1  848.92   14.67
  -2  -9  -2   68.66   12.23
   2   9   2   62.80   12.60
  -2  -9  -3  552.96   15.58
   2   9   3  563.07   15.38
   2   9   4   77.13   13.02
  -2  -9  -4   72.54   13.10
   2   9   5  467.19   15.66
  -2  -9  -5  442.61   17.17
   2   9   6   81.79   15.57
  -2 -10   0  268.90   13.11
   2  10   0  276.97   12.82
  -2 -10  -1   33.82   13.23
   2  10   1   17.67   12.73
  -2 -10  -2  185.81   10.80
   2  10   2  172.23   13.75
  -2 -10  -3   50.87   13.26
   2  10   3   38.58   13.07
   2  10   4  307.93   14.24
  -2 -10  -4  308.52   15.83
   2  10   5  141.62   14.60
   2  10   6  265.41   17.45
  -2 -11   0   45.74   13.91
   2  11   0   50.67   13.12
  -2 -11  -1  249.18   15.24
   2  11   1  228.17   14.64
   2  11   2   70.62   13.45
   2  11   3   43.96   13.67
   2  11   4  107.20   14.17
   2  11   5  119.85   15.88
   2  11   6    6.16   16.34
   2  12   0  339.88   16.05
   2  12   1  140.23   15.28
   2  12   2  422.00   16.66
   2  12   3   33.63   14.97
   2  12   4  329.20   17.63
   2  12   5   15.70   16.58
   2  12   6  128.17   18.53
   2  13   0    3.85   12.06
   2  13   1   73.20   12.67
   2  13   2    0.54   16.90
   2  13   3  152.28   16.88
   2  13   4   -0.22   18.14
   2  14   0  195.74   18.74
   2  14   1    4.03   18.61
   2  14   2   24.72   14.59
  -3  13  -1  112.73   18.38
  -3  13  -2    1.63   14.50
  -3  12  -1   15.18   15.70
  -3  12  -2  163.41   18.04
  -3  12  -3    1.24   17.00
  -3  12  -4  289.39   16.52
  -3  11  -5   63.44   14.08
  -3  11  -6   11.21   20.83
  -3  10  -6  147.83   17.24
  -3  10  -7   17.95   15.58
  -3   9  -7  194.06   14.61
  -3   9  -8   81.78   15.81
  -3   8  -8  400.04   19.90
  -3   7  -9   78.61   15.08
  -3   5 -10    2.64   18.73
  -3   3 -10   23.19   16.03
  -3   2  -1  189.20   10.61
  -3   2  -2 1074.10   31.97
  -3   2  -3   -0.29    7.05
  -3   2  -7   86.18   12.33
  -3   2  -8  218.58   14.66
  -3   2  -9   -1.17   12.55
  -3   2 -10   76.84   17.00
  -3   1  -1  700.70   14.51
  -3   1  -2   55.10    7.47
  -3   1  -3  327.67    9.58
  -3   1  -4   22.95   10.23
  -3   1  -5  671.63   14.27
  -3   1  -6    9.15   11.10
  -3   1  -7  230.24   12.11
  -3   1  -8   34.69   13.32
  -3   1  -9   16.56   13.53
  -3   1 -10    7.47   15.10
  -3   0   0 2388.86   29.07
  -3   0  -1    3.35    6.87
  -3   0  -2   12.47    7.02
  -3   0  -3   -9.25    7.29
  -3   0  -4  320.53    9.67
  -3   0  -5    3.53    7.07
  -3   0  -6   98.64   11.00
  -3   0  -7   -5.42   10.95
  -3   0  -8  126.89   12.67
  -3   0  -9   -7.14   14.60
  -3   0 -10   43.25   16.85
  -3   0 -11    1.07   18.34
  -3  -1   0   57.92   10.02
   3   1   0   52.74    8.24
  -3  -1  -1  704.86   17.37
  -3  -1  -2   50.22   10.22
  -3  -1  -3  359.49   12.40
  -3  -1  -4   12.44   10.49
  -3  -1  -5  689.08   17.64
  -3  -1  -6    3.35   11.27
  -3  -1  -7  217.84    9.94
  -3  -1  -8   42.95   13.16
  -3  -1  -9   17.03   13.90
  -3  -1 -10   15.43   16.50
   3   2   0  436.17   10.87
  -3  -2   0  432.09   12.91
  -3  -2  -1  203.61    8.62
   3   2   1  202.54    8.78
  -3  -2  -2 1145.99   18.17
   3   2   2 1136.39   18.26
  -3  -2  -3    2.46    7.36
  -3  -2  -4  300.19   12.67
  -3  -2  -5  463.98   12.75
  -3  -2  -6 2118.01   35.51
  -3  -2  -7   77.18   12.07
  -3  -2  -8  233.25   14.57
  -3  -2  -9    0.52   14.99
  -3  -2 -10   68.66   19.22
   3   3   0  290.96    9.82
  -3  -3   0  298.54   11.54
   3   3   1 1746.37   21.48
  -3  -3  -1 1755.07   21.97
   3   3   2  249.47   11.98
  -3  -3  -2  257.50    9.77
  -3  -3  -3  157.40    8.42
  -3  -3  -4  186.83   11.83
  -3  -3  -5  470.06   14.04
  -3  -3  -6    6.01   11.43
  -3  -3  -7  822.15   19.23
  -3  -3  -8   -4.11   13.74
  -3  -3  -9   99.21   16.07
  -3  -3 -10   11.22   21.68
   3   4   0 2419.36   28.04
  -3  -4   0 2456.33   27.07
   3   4   1   81.11   11.13
  -3  -4  -1   61.85    8.14
   3   4   2  721.94   14.80
  -3  -4  -2  719.08   15.89
   3   4   3  146.53   11.09
  -3  -4  -3  145.81   10.88
  -3  -4  -4  322.15   13.33
  -3  -4  -5   73.57   11.93
  -3  -4  -6   27.43   12.67
  -3  -4  -7   11.44   14.50
  -3  -4  -8   93.73   17.22
  -3  -4  -9   -0.36   20.21
  -3  -4 -10   21.00   23.63
   3   5   0    2.51    8.06
  -3  -5   0  -10.76   10.39
   3   5   1  520.10   14.01
  -3  -5  -1  520.94   13.95
   3   5   2   41.88   10.89
  -3  -5  -2   49.10   10.73
   3   5   3  334.85   10.56
  -3  -5  -3  349.03   13.04
  -3  -5  -4   27.41   11.26
   3   5   4   -7.76    7.45
  -3  -5  -5  215.45   12.98
  -3  -5  -6   49.12   13.74
  -3  -5  -7  237.93   15.54
  -3  -5  -8    8.39   17.60
  -3  -5  -9  219.06   21.88
  -3  -5 -10    5.49   32.08
  -3  -6   0   91.21   11.77
   3   6   0   82.81   11.90
   3   6   1   87.90   10.86
  -3  -6  -1   64.28    8.60
  -3  -6  -2  723.78   15.95
   3   6   2  716.49   15.76
  -3  -6  -3  159.22   12.21
   3   6   3  164.55   11.73
  -3  -6  -4  224.13   13.10
   3   6   4  220.75   12.46
  -3  -6  -5   42.77   13.11
  -3  -6  -6  385.79   16.46
  -3  -6  -7   26.47   14.78
  -3  -6  -8  149.84   17.18
  -3  -6  -9    5.20   22.92
   3   7   0  637.96   14.55
  -3  -7   0  664.63   15.11
   3   7   1  992.10   16.71
  -3  -7  -1  959.90   16.51
   3   7   2   25.18   10.93
  -3  -7  -2   22.18    8.56
   3   7   3  526.53   16.28
  -3  -7  -3  533.08   14.75
   3   7   4   81.30   11.54
  -3  -7  -4   96.09    9.53
   3   7   5   97.91   12.65
  -3  -7  -5   95.64   13.80
  -3  -7  -6  190.98   14.97
  -3  -7  -7  102.37   16.36
  -3  -7  -8    1.30   19.93
  -3  -7  -9   77.90   29.86
  -3  -8   0 1400.06   21.27
   3   8   0 1364.51   21.34
   3   8   1  201.19    9.68
  -3  -8  -1  217.45   12.81
   3   8   2  580.35   16.31
  -3  -8  -2  590.91   16.70
   3   8   3   30.25   12.09
  -3  -8  -3   30.53   12.63
   3   8   4   96.61   12.31
  -3  -8  -4  116.68   13.78
  -3  -8  -5   -5.42   13.34
   3   8   5    4.83   13.01
  -3  -8  -6  104.02   16.14
  -3  -8  -7    3.71   16.49
  -3  -8  -8  428.93   24.65
  -3  -9   0   77.10   11.65
   3   9   0   85.72   11.31
   3   9   1  726.95   13.70
  -3  -9  -1  741.41   17.45
   3   9   2    0.67    9.05
  -3  -9  -2    6.71   11.65
  -3  -9  -3  381.80   15.05
   3   9   3  364.64   14.88
  -3  -9  -4   -6.90   14.38
   3   9   4    5.02   12.36
   3   9   5  186.81   15.47
  -3  -9  -5  200.53   16.29
  -3  -9  -6   61.72   16.97
   3   9   6   60.31   15.19
  -3  -9  -7  206.64   21.30
  -3 -10   0   18.16    9.92
   3  10   0   26.50   13.33
   3  10   1   15.60   10.04
  -3 -10  -1   15.53   10.26
   3  10   2  231.51   11.28
  -3 -10  -2  239.17   11.96
   3  10   3   31.13   13.43
  -3 -10  -3   20.23   14.53
   3  10   4  231.47   16.00
  -3 -10  -4  238.06   16.92
  -3 -10  -5   82.17   15.52
   3  10   5   91.31   14.65
  -3 -10  -6  161.26   19.21
   3  10   6  140.58   17.75
  -3 -11   0   -5.75   13.51
   3  11   0   -8.17   13.13
  -3 -11  -1   31.87   10.61
   3  11   1   25.03   14.57
   3  11   2   59.60   15.30
  -3 -11  -2   47.11   15.35
   3  11   3  114.51   14.90
  -3 -11  -3  118.23   11.80
  -3 -11  -4   -0.21   16.14
   3  11   4    5.41   14.82
   3  11   5   70.72   16.87
  -3 -11  -5   73.49   17.94
   3  11   6   12.02   17.56
  -3 -12   0  222.84   16.35
   3  12   0  218.49   12.75
  -3 -12  -1   16.25   15.66
   3  12   1    0.42   15.97
   3  12   2  174.30   12.70
  -3 -12  -2  180.66   18.09
   3  12   3    7.24   15.79
  -3 -12  -3    2.26   18.80
  -3 -12  -4  327.61   20.37
   3  12   4  281.59   17.64
  -3 -13   0    7.06   13.60
   3  13   0    4.18   12.81
   3  13   1  139.32   18.31
   3  13   2  -23.60   16.90
  -4   4  -1    1.85    7.49
  -4   4  -2  586.06   19.10
  -4   4  -3   34.78   11.43
  -4   4  -4  208.88    9.74
  -4   4  -5   46.83    8.89
  -4   4  -6   85.53   13.21
  -4   4  -7   45.87   10.49
  -4   4  -8    3.92   11.48
  -4   4  -9   53.79   16.97
  -4   3  -1  850.42   19.38
  -4   3  -2   -4.15   10.62
  -4   3  -3  661.64   12.47
  -4   3  -4    4.44   11.11
  -4   3  -5  515.39   14.36
  -4   3  -6   52.23    9.60
  -4   3  -7  461.70   15.86
  -4   3  -8  147.25   15.84
  -4   3  -9  204.04   17.71
  -4   2  -1   22.09    7.92
  -4   2  -2   60.79   10.63
  -4   2  -3   23.10    7.75
  -4   2  -4  528.38   15.61
  -4   2  -5   12.53   11.56
  -4   2  -6  410.11   15.14
  -4   2  -7   13.70   13.42
  -4   2  -8  310.80   16.91
  -4   2  -9   -0.81   17.17
  -4   1  -1  183.75   11.16
  -4   1  -2  203.63   11.54
  -4   1  -3   20.75   11.23
  -4   1  -4   80.16    8.45
  -4   1  -5  356.65   10.91
  -4   1  -6   -1.64   12.05
  -4   1  -7   54.01   12.84
  -4   1  -8   17.77   14.66
  -4   1  -9   34.76   15.89
  -4   0   0 2170.03   38.93
  -4   0  -1   10.73   10.66
  -4   0  -2  178.36    8.95
  -4   0  -3   -3.26   10.67
  -4   0  -4  223.69   12.07
  -4   0  -5    4.03   12.12
  -4   0  -6  546.34   14.65
  -4   0  -7    1.73   13.81
  -4   0  -8   10.32   14.96
  -4   0  -9    0.20   15.71
  -4  -1   0    5.66    7.84
  -4  -1  -1  190.01   11.55
  -4  -1  -2  197.83   11.43
  -4  -1  -3   22.34   11.16
  -4  -1  -4   84.73    8.45
  -4  -1  -5  353.47   14.57
  -4  -1  -6   -6.06    9.29
  -4  -1  -7   60.22   13.58
  -4  -1  -8   31.20   15.93
  -4  -1  -9   31.36   17.98
   4   2   0  919.47   16.10
  -4  -2   0  950.92   17.19
  -4  -2  -1   30.99    8.32
  -4  -2  -2   56.71   11.44
  -4  -2  -3   17.86   11.08
  -4  -2  -4  534.31   14.35
  -4  -2  -5   -4.59   11.50
  -4  -2  -6  395.31   14.99
  -4  -2  -7    4.14   13.87
  -4  -2  -8  304.78   17.31
  -4  -2  -9   -0.51   16.62
   4   3   0   22.68    8.20
  -4  -3   0   22.38   11.25
   4   3   1  847.76   13.73
  -4  -3  -1  841.94   16.14
  -4  -3  -2    3.32    8.08
  -4  -3  -3  647.74   15.20
  -4  -3  -4    8.30    8.57
  -4  -3  -5  539.57   14.90
  -4  -3  -6   46.47   13.42
  -4  -3  -7  470.40   16.83
  -4  -3  -8  142.50   16.35
  -4  -3  -9  189.34   19.17
   4   4   0  391.80   10.56
  -4  -4   0  400.12   10.73
   4   4   1    3.67    8.14
  -4  -4  -1    2.34   11.32
   4   4   2  662.54   14.14
  -4  -4  -2  661.49   14.64
  -4  -4  -3   40.78    8.53
  -4  -4  -4  226.94   13.38
  -4  -4  -5   50.45   13.45
  -4  -4  -6   85.95   13.32
  -4  -4  -7   67.56   14.63
  -4  -4  -8    2.21   16.93
  -4  -4  -9   54.43   20.93
   4   5   0  243.26   12.77
  -4  -5   0  251.19    9.93
   4   5   1  170.69   12.39
  -4  -5  -1  173.06    9.36
   4   5   2   80.98   11.61
  -4  -5  -2   96.15    8.87
  -4  -5  -3  113.68   12.98
   4   5   3   94.43   11.44
  -4  -5  -4   25.72   12.85
  -4  -5  -5  413.11   15.55
  -4  -5  -6   68.19   14.91
  -4  -5  -7   39.41   16.43
  -4  -5  -8   28.70   17.73
  -4  -6   0   86.49    9.38
   4   6   0   86.91   11.27
  -4  -6  -1    3.53    8.76
   4   6   1    2.85    8.33
  -4  -6  -2    3.13   12.85
   4   6   2   14.80   11.62
  -4  -6  -3   36.62    9.44
   4   6   3   39.25   11.23
  -4  -6  -4  376.63   12.68
   4   6   4  365.89   14.01
  -4  -6  -5   16.68   14.45
  -4  -6  -6  110.71   15.86
  -4  -6  -7    6.19   17.07
  -4  -6  -8   28.92   21.82
  -4  -7   0   39.05    8.83
   4   7   0   49.20   12.46
  -4  -7  -1  277.52   10.63
   4   7   1  267.48   11.23
  -4  -7  -2    1.38   12.96
   4   7   2    4.03   11.95
  -4  -7  -3  780.66   19.45
   4   7   3  762.35   19.91
  -4  -7  -4  -10.56   14.06
   4   7   4    5.77   13.43
  -4  -7  -5  201.90   12.08
  -4  -7  -6   10.69   15.50
  -4  -7  -7   63.53   16.90
   4   8   0  441.79   13.03
  -4  -8   0  455.06   14.91
   4   8   1   17.91   13.11
  -4  -8  -1   11.25   12.67
   4   8   2 1187.80   21.74
  -4  -8  -2 1198.18   19.69
   4   8   3    7.95   10.06
  -4  -8  -3   11.25   14.36
   4   8   4  339.33   14.54
  -4  -8  -4  373.51   15.65
  -4  -8  -5    1.82   16.22
  -4  -8  -6  198.22   17.87
  -4  -8  -7   16.11   20.59
   4   9   0  104.39   12.85
  -4  -9   0   88.60   10.75
   4   9   1  157.81   13.41
  -4  -9  -1  168.74   15.01
   4   9   2    2.51   10.59
  -4  -9  -2    9.48   13.93
   4   9   3  178.22   15.62
  -4  -9  -3  177.91   16.11
   4   9   4   33.03   14.88
  -4  -9  -4   38.05   14.94
  -4  -9  -5   52.41   16.16
   4   9   5   52.57   15.18
  -4  -9  -6   28.43   20.00
  -4 -10   0   68.85   13.78
   4  10   0   58.36   11.00
   4  10   1  209.75   14.80
  -4 -10  -1  209.54   12.13
  -4 -10  -2   75.97   12.14
   4  10   2   86.62   11.93
  -4 -10  -3   71.25   15.39
   4  10   3   77.73   16.49
  -4 -10  -4  203.00   17.55
   4  10   4  182.20   16.91
   4  10   5   23.12   18.32
  -4 -10  -5   25.29   18.09
   4  11   0   -7.67   15.05
  -4 -11   0   13.12   16.77
   4  11   1   88.12   16.46
  -4 -11  -1   88.63   16.34
   4  11   2   58.09   17.02
  -4 -11  -2   62.09   17.65
   4  11   3  108.93   18.10
  -4 -11  -3  115.21   17.57
  -4 -12   0  162.55   19.04
   4  12   0  149.93   13.86
  -4 -12  -1   15.14   18.44
   4  12   1   16.81   16.32
  -5   8  -1   56.02   10.66
  -5   8  -2  196.52   12.15
  -5   7  -1  178.92   10.81
  -5   7  -2   15.21   13.98
  -5   7  -3  218.07   12.66
  -5   7  -4  199.21   15.59
  -5   7  -5  288.83   14.97
  -5   6  -1   24.77   13.44
  -5   6  -2   -2.52   10.18
  -5   6  -3   -8.81   13.87
  -5   6  -4  109.54   13.93
  -5   6  -5   65.00   14.48
  -5   6  -6  154.54   17.50
  -5   5  -1   67.48   13.29
  -5   5  -2   21.36   13.64
  -5   5  -3   77.08   10.40
  -5   5  -4  100.61   10.57
  -5   5  -5   60.83   10.93
  -5   5  -6  -16.37   15.12
  -5   4  -1   10.03   12.33
  -5   4  -2  494.17   15.92
  -5   4  -3   28.20    9.49
  -5   4  -4  265.62   11.58
  -5   4  -5    8.38   10.66
  -5   4  -6   38.48   14.90
  -5   4  -7   11.32   16.48
  -5   3  -1  240.32   10.53
  -5   3  -2   47.86    9.18
  -5   3  -3  577.05   15.79
  -5   3  -4   23.16    9.80
  -5   3  -5  206.29   14.42
  -5   3  -6   -0.49   15.41
  -5   3  -7  114.17   13.24
  -5   2  -1   53.23   12.22
  -5   2  -2  358.71   13.97
  -5   2  -3    3.19    9.03
  -5   2  -4  373.65   14.08
  -5   2  -5   62.72   13.13
  -5   2  -6   39.89   11.43
  -5   2  -7   29.45   17.34
  -5   1  -1  302.76   13.43
  -5   1  -2   69.83   12.28
  -5   1  -3  389.60   11.10
  -5   1  -4   48.70   13.46
  -5   1  -5   37.46   14.73
  -5   1  -6   23.91   11.21
  -5   1  -7   63.95   16.56
  -5   0   0  275.43   10.04
  -5   0  -1   -1.67   11.67
  -5   0  -2  467.79   15.26
  -5   0  -3   -4.59    8.81
  -5   0  -4   52.41   12.75
  -5   0  -5    1.87   14.00
  -5   0  -6   57.86   11.54
  -5   0  -7   18.99   16.87
  -5  -1   0   33.56    8.45
  -5  -1  -1  326.46   10.95
  -5  -1  -2   76.89    9.36
  -5  -1  -3  408.82   14.34
  -5  -1  -4   50.37    9.89
  -5  -1  -5   38.60   10.76
  -5  -1  -6   36.25   16.01
  -5  -1  -7   78.70   16.16
  -5  -2   0  197.59   12.37
  -5  -2  -1   53.28   12.59
  -5  -2  -2  376.70   14.34
  -5  -2  -3    8.07    9.49
  -5  -2  -4  391.36   15.58
  -5  -2  -5   57.91   13.88
  -5  -2  -6   46.59   14.81
  -5  -2  -7   -1.84   15.85
   5   3   0   16.38    8.87
  -5  -3   0   33.99    9.17
  -5  -3  -1  250.59   10.43
  -5  -3  -2   43.72    9.28
  -5  -3  -3  602.89   17.44
  -5  -3  -4   25.37   14.15
  -5  -3  -5  213.72   15.90
  -5  -3  -6    7.24   11.99
  -5  -3  -7   99.50   17.00
   5   4   0  124.69   12.66
  -5  -4   0  122.17   13.29
   5   4   1   14.20    8.73
  -5  -4  -1   25.38   12.72
  -5  -4  -2  506.74   12.53
  -5  -4  -3   27.48   13.78
  -5  -4  -4  285.69   15.94
  -5  -4  -5    4.92   15.68
  -5  -4  -6   41.75   12.73
  -5  -4  -7   -0.61   13.90
   5   5   0   10.58   12.46
  -5  -5   0   26.58    9.47
  -5  -5  -1   64.86   12.34
   5   5   1   77.70   12.06
  -5  -5  -2   13.87   13.69
   5   5   2   18.17   12.90
  -5  -5  -3   88.45   14.05
  -5  -5  -4  110.38   14.90
  -5  -5  -5   71.78   16.84
  -5  -5  -6   -0.37   16.64
  -5  -6   0   99.22   14.02
   5   6   0   94.77   13.19
  -5  -6  -1   22.16   10.18
   5   6   1   15.61   10.23
  -5  -6  -2   -0.27   14.29
   5   6   2    1.09   13.82
  -5  -6  -3   -1.42   11.02
  -5  -6  -4  133.45   15.53
  -5  -6  -5   55.81   17.46
  -5  -6  -6  176.45   20.27
  -5  -7   0  148.77   11.26
   5   7   0  139.86   13.03
  -5  -7  -1  191.68   15.67
   5   7   1  207.00   14.23
  -5  -7  -2    5.74   11.41
   5   7   2   -0.50   10.60
  -5  -7  -3  237.20   16.02
   5   7   3  224.86   13.19
  -5  -7  -4  237.45   14.26
  -5  -7  -5  345.83   19.97
   5   8   0  212.24   15.50
  -5  -8   0  224.31   16.63
   5   8   1   67.02   14.26
  -5  -8  -1   77.63   12.19
   5   8   2  211.28   16.29
  -5  -8  -2  220.63   17.28
   5   8   3   12.67   16.28
  -5  -8  -3   13.68   17.34
  -5  -8  -4  336.29   18.95
   5   9   0   88.35   15.08
  -5  -9   0   89.67   17.40
   5   9   1   17.66   16.30
  -5  -9  -1   29.88   15.16
   5   9   2   12.52   15.91
  -5  -9  -2    9.12   13.02
   5   9   3  178.86   16.69
  -5  -9  -3  202.55   17.49
   5  10   0  102.41   18.11
  -5 -10   0  129.88   17.19
   5  10   1   14.11   18.13
  -5 -10  -1   23.17   19.03
  -6   7  -1  162.99   18.09
  -6   6  -1    2.90   12.29
  -6   6  -2  204.29   16.24
  -6   5  -1  173.12   16.45
  -6   5  -2    6.13   11.86
  -6   5  -3   40.26   17.55
  -6   4  -1   -2.38   15.07
  -6   4  -2  248.64   16.67
  -6   4  -3    8.84   15.12
  -6   4  -4  114.14   13.52
  -6   3  -1   98.54   14.90
  -6   3  -2   25.11   14.21
  -6   3  -3   78.27   15.39
  -6   3  -4   16.07   13.09
  -6   2  -1   76.35   13.74
  -6   2  -2  376.97   12.85
  -6   2  -3   -1.03   15.44
  -6   2  -4  118.03   17.49
  -6   1  -1  470.99   14.10
  -6   1  -2   -2.98   14.48
  -6   1  -3  289.27   12.95
  -6   1  -4   12.59   15.42
  -6   1  -5   59.45   13.42
  -6   0   0   60.30   13.23
  -6   0  -1    0.90   13.57
  -6   0  -2  156.67   11.30
  -6   0  -3    2.14   15.53
  -6   0  -4   24.78   16.88
  -6   0  -5    3.17   18.27
  -6  -1   0   70.39   14.77
  -6  -1  -1  473.83   16.99
  -6  -1  -2   -1.27   10.98
  -6  -1  -3  318.95   17.32
  -6  -1  -4    0.97   17.07
  -6  -1  -5   32.09   18.71
  -6  -2   0  103.56   14.63
  -6  -2  -1   87.27   14.85
  -6  -2  -2  386.61   13.79
  -6  -2  -3   -0.19   16.04
  -6  -2  -4  117.03   17.25
  -6  -3   0  106.64   15.35
  -6  -3  -1  109.53   15.54
  -6  -3  -2   32.42   11.74
  -6  -3  -3   89.26   17.56
  -6  -3  -4   -1.30   18.28
  -6  -4   0  444.38   16.90
  -6  -4  -1   -9.02   15.52
  -6  -4  -2  257.70   13.68
  -6  -4  -3   -2.48   15.75
  -6  -4  -4  108.90   17.29
  -6  -5   0    2.73   16.01
   6   5   0   -0.62   15.43
  -6  -5  -1  202.89   16.13
  -6  -5  -2   -9.60   16.06
  -6  -5  -3   54.56   13.61
  -6  -6   0   96.56   17.52
   6   6   0   90.90   14.83
  -6  -6  -1   -5.17   13.25
   6   6   1    8.32   12.38
  -6  -6  -2  184.17   18.68
  -6  -7   0   13.57   18.37
   6   7   0    5.52   17.09
  -6  -7  -1  219.30   14.50
   6   7   1  175.69   17.55
_computing_structure_solution     'SHELXT 2014/4 (Sheldrick, 2014)'
;
_shelx_hkl_checksum              21527
_shelx_res_file
;
TITL shelxt_a.res in P2(1)/c
    shelx.res
    created by SHELXL-2018/3 at 13:44:10 on 01-Aug-2019
CELL  0.71073   5.1664  10.9879   9.7550   90.000   99.378   90.000
ZERR     2.00   0.0007   0.0015   0.0011    0.000    0.010    0.000
LATT   1
SYMM  - X, 1/2 + Y, 1/2 - Z
SFAC  C    H    CO   N    O
UNIT  16 16 2 4 16
MERG   2
MORE -1
EQIV $1 x-1, -y+3/2, z+1/2
HTAB C1 O2_$1
EQIV $2 -x+1, y+1/2, -z+1/2
HTAB C2 O3_$2
EQIV $3 -x+1, y-1/2, -z+1/2
HTAB O3 O2_$3
EQIV $4 x-1, y, z
HTAB O3 O1_$4
HTAB C1 O2_$1
HTAB C2 O3_$2
HTAB O3 O2_$3
HTAB O3 O1_$4
FMAP   2
PLAN   20
SIZE     0.110   0.110   0.200
ACTA
BOND   $H
CONF
LIST   6
L.S.   4
TEMP  -123.00
WGHT    0.028100
FVAR       0.89183
CO1   3    0.500000    0.500000    0.500000    10.50000    0.01175    0.01075 =
         0.01405    0.00083    0.00491   -0.00006
O4    5    0.266259    0.881574    0.482134    11.00000    0.02679    0.01588 =
         0.02387   -0.00003    0.01237    0.00422
O1    5    0.737342    0.568022    0.363089    11.00000    0.01442    0.01269 =
         0.01989    0.00086    0.00700    0.00095
O3    5    0.208296    0.469008    0.329521    11.00000    0.01386    0.01635 =
         0.02129   -0.00443    0.00276    0.00194
O2    5    0.839516    0.734586    0.251894    11.00000    0.02006    0.01781 =
         0.02068    0.00509    0.01113    0.00112
N1    4    0.386789    0.688231    0.494040    11.00000    0.01375    0.01464 =
         0.01292    0.00020    0.00430   -0.00089
C3    1    0.520713    0.749310    0.400198    11.00000    0.01467    0.01523 =
         0.01312    0.00079    0.00441   -0.00107
C4    1    0.713633    0.680664    0.331751    11.00000    0.01147    0.01538 =
         0.01331   -0.00091    0.00192    0.00012
C1    1    0.242008    0.770437    0.537877    11.00000    0.01741    0.01703 =
         0.01662   -0.00035    0.00461    0.00010
AFIX  44
H1    2    0.131676    0.754753    0.601635    11.00000   -1.20000
AFIX   0
C2    1    0.445140    0.866035    0.393483    11.00000    0.02412    0.01615 =
         0.02092    0.00206    0.01133    0.00048
AFIX  44
H2    2    0.498594    0.921109    0.343048    11.00000   -1.20000
AFIX   0
H3A   2    0.194480    0.398437    0.302624    11.00000    0.03120
H3B   2    0.075902    0.497335    0.334340    11.00000    0.04518
HKLF 4
REM  shelxt_a.res in P2(1)/c
REM wR2 = 0.0522, GooF = S = 0.908, Restrained GooF = 0.908 for all data
REM R1 = 0.0247 for 1104 Fo > 4sig(Fo) and 0.0401 for all 1458 data
REM 98 parameters refined using 0 restraints
END
WGHT      0.0281      0.0000
REM Highest difference peak  0.371,  deepest hole -0.278,  1-sigma level  0.066
Q1    1   0.6112  0.7169  0.3599  11.00000  0.05    0.37
Q2    1   0.3857  0.7915  0.3723  11.00000  0.05    0.28
Q3    1   0.4207  0.4320  0.4729  11.00000  0.05    0.27
Q4    1   0.5592  0.8136  0.4145  11.00000  0.05    0.26
Q5    1   0.1203  0.7999  0.6080  11.00000  0.05    0.25
Q6    1   0.4424  0.6415  0.5385  11.00000  0.05    0.25
Q7    1   0.4267  0.7046  0.4260  11.00000  0.05    0.25
Q8    1   0.3340  0.6439  0.4673  11.00000  0.05    0.23
Q9    1   0.3843  0.4881  0.5818  11.00000  0.05    0.23
Q10   1   0.3595  0.5735  0.5012  11.00000  0.05    0.23
Q11   1   0.7207  0.6115  0.3386  11.00000  0.05    0.22
Q12   1   0.5389  0.9525  0.3933  11.00000  0.05    0.22
Q13   1   0.6806  0.5460  0.4138  11.00000  0.05    0.21
Q14   1   0.1583  0.9260  0.4672  11.00000  0.05    0.21
Q15   1   0.7226  0.8023  0.1955  11.00000  0.05    0.21
Q16   1   0.3424  0.7173  0.5370  11.00000  0.05    0.20
Q17   1   0.4011  0.9547  0.3221  11.00000  0.05    0.20
Q18   1   0.3510  0.8742  0.4351  11.00000  0.05    0.19
Q19   1   0.8319  0.7887  0.2426  11.00000  0.05    0.19
Q20   1   0.8067  0.5555  0.4062  11.00000  0.05    0.19
;
_shelx_res_checksum              48017
loop_
_space_group_symop_operation_xyz
'x, y, z'
'-x, y+1/2, -z+1/2'
'-x, -y, -z'
'x, -y-1/2, z-1/2'
loop_
_atom_site_type_symbol
_atom_site_label
_atom_site_fract_x
_atom_site_fract_y
_atom_site_fract_z
_atom_site_U_iso_or_equiv
_atom_site_adp_type
_atom_site_calc_flag
_atom_site_occupancy
Co Co1 0.500000 0.500000 0.500000 0.01187(9) Uani d 1
O O4 0.2663(2) 0.88157(11) 0.48213(14) 0.0213(3) Uani d 1
O O1 0.7373(2) 0.56802(10) 0.36309(13) 0.0152(2) Uani d 1
O O3 0.2083(2) 0.46901(12) 0.32952(14) 0.0172(3) Uani d 1
O O2 0.8395(2) 0.73459(11) 0.25189(14) 0.0186(3) Uani d 1
N N1 0.3868(3) 0.68823(13) 0.49404(15) 0.0135(3) Uani d 1
C C3 0.5207(3) 0.74931(15) 0.40020(18) 0.0141(3) Uani d 1
C C4 0.7136(3) 0.68066(14) 0.33175(17) 0.0134(3) Uani d 1
C C1 0.2420(3) 0.77044(15) 0.53788(19) 0.0168(3) Uani d 1
H H1 0.132(2) 0.7548(4) 0.6016(14) 0.020 Uiso calc 1
C C2 0.4451(3) 0.86603(16) 0.3935(2) 0.0195(4) Uani d 1
H H2 0.4986(14) 0.9211(15) 0.3430(13) 0.023 Uiso calc 1
H H3A 0.194(4) 0.398(3) 0.303(3) 0.031(6) Uiso d 1
H H3B 0.076(5) 0.497(3) 0.334(3) 0.045(7) Uiso d 1
loop_
_atom_site_aniso_label
_atom_site_aniso_U_11
_atom_site_aniso_U_22
_atom_site_aniso_U_33
_atom_site_aniso_U_12
_atom_site_aniso_U_13
_atom_site_aniso_U_23
Co1 0.01175(13) 0.01075(13) 0.01405(16) -0.00006(13) 0.00491(10) 0.00083(16)
O4 0.0268(6) 0.0159(6) 0.0239(8) 0.0042(5) 0.0124(5) 0.0000(5)
O1 0.0144(5) 0.0127(5) 0.0199(7) 0.0010(4) 0.0070(5) 0.0009(5)
O3 0.0139(5) 0.0164(7) 0.0213(7) 0.0019(4) 0.0028(5) -0.0044(5)
O2 0.0201(5) 0.0178(6) 0.0207(7) 0.0011(4) 0.0111(5) 0.0051(5)
N1 0.0138(6) 0.0146(7) 0.0129(8) -0.0009(5) 0.0043(5) 0.0002(5)
C3 0.0147(7) 0.0152(7) 0.0131(9) -0.0011(5) 0.0044(6) 0.0008(6)
C4 0.0115(7) 0.0154(7) 0.0133(9) 0.0001(5) 0.0019(6) -0.0009(6)
C1 0.0174(7) 0.0170(8) 0.0166(9) 0.0001(6) 0.0046(7) -0.0004(7)
C2 0.0241(8) 0.0162(8) 0.0209(10) 0.0005(6) 0.0113(7) 0.0021(7)
loop_
_atom_type_symbol
_atom_type_description
_atom_type_scat_dispersion_real
_atom_type_scat_dispersion_imag
_atom_type_scat_source
C C 0.0033 0.0016 'International Tables Vol C Tables 4.2.6.8 and 6.1.1.4'
H H 0.0000 0.0000 'International Tables Vol C Tables 4.2.6.8 and 6.1.1.4'
Co Co 0.3494 0.9721 'International Tables Vol C Tables 4.2.6.8 and 6.1.1.4'
N N 0.0061 0.0033 'International Tables Vol C Tables 4.2.6.8 and 6.1.1.4'
O O 0.0106 0.0060 'International Tables Vol C Tables 4.2.6.8 and 6.1.1.4'
loop_
_geom_angle_atom_site_label_1
_geom_angle_atom_site_label_2
_geom_angle_atom_site_label_3
_geom_angle_site_symmetry_1
_geom_angle_site_symmetry_3
_geom_angle
O3 Co1 O3 3_666 . 180.0
O3 Co1 O1 3_666 3_666 88.38(5)
O3 Co1 O1 . 3_666 91.62(5)
O3 Co1 O1 3_666 . 91.62(5)
O3 Co1 O1 . . 88.38(5)
O1 Co1 O1 3_666 . 180.00(4)
O3 Co1 N1 3_666 . 91.30(5)
O3 Co1 N1 . . 88.71(5)
O1 Co1 N1 3_666 . 100.13(4)
O1 Co1 N1 . . 79.87(4)
O3 Co1 N1 3_666 3_666 88.70(5)
O3 Co1 N1 . 3_666 91.29(5)
O1 Co1 N1 3_666 3_666 79.87(5)
O1 Co1 N1 . 3_666 100.13(4)
N1 Co1 N1 . 3_666 180.0
C1 O4 C2 . . 104.88(13)
C4 O1 Co1 . . 117.13(9)
Co1 O3 H3A . . 115.2(18)
Co1 O3 H3B . . 115(2)
H3A O3 H3B . . 112(3)
C1 N1 C3 . . 104.80(14)
C1 N1 Co1 . . 146.70(11)
C3 N1 Co1 . . 108.47(10)
C2 C3 N1 . . 108.59(14)
C2 C3 C4 . . 132.31(15)
N1 C3 C4 . . 119.08(14)
O2 C4 O1 . . 124.94(13)
O2 C4 C3 . . 119.69(14)
O1 C4 C3 . . 115.36(13)
N1 C1 O4 . . 113.76(14)
N1 C1 H1 . . 123.1
O4 C1 H1 . . 123.1
C3 C2 O4 . . 107.97(15)
C3 C2 H2 . . 126.0
O4 C2 H2 . . 126.0
loop_
_geom_bond_atom_site_label_1
_geom_bond_atom_site_label_2
_geom_bond_site_symmetry_2
_geom_bond_distance
Co1 O3 3_666 2.0823(14)
Co1 O3 . 2.0823(14)
Co1 O1 3_666 2.0928(11)
Co1 O1 . 2.0928(11)
Co1 N1 . 2.1476(14)
Co1 N1 3_666 2.1476(14)
O4 C1 . 1.351(2)
O4 C2 . 1.3753(19)
O1 C4 . 1.2760(19)
O3 H3A . 0.82(3)
O3 H3B . 0.76(3)
O2 C4 . 1.2434(19)
N1 C1 . 1.289(2)
N1 C3 . 1.405(2)
C3 C2 . 1.339(2)
C3 C4 . 1.492(2)
C1 H1 . 0.93(2)
C2 H2 . 0.85(2)
loop_
_geom_hbond_atom_site_label_D
_geom_hbond_atom_site_label_H
_geom_hbond_atom_site_label_A
_geom_hbond_site_symmetry_A
_geom_hbond_distance_DH
_geom_hbond_distance_HA
_geom_hbond_distance_DA
_geom_hbond_angle_DHA
_geom_hbond_publ_flag
C1 H1 O2 4_476 0.93 2.27 3.1781(19) 166.0 yes
C2 H2 O3 2_655 0.85 2.50 3.238(2) 145.8 yes
O3 H3A O2 2_645 0.82(3) 1.88(3) 2.6949(18) 178(2) yes
O3 H3B O1 1_455 0.76(3) 1.98(3) 2.7333(16) 175(3) yes
loop_
_geom_torsion_atom_site_label_1
_geom_torsion_atom_site_label_2
_geom_torsion_atom_site_label_3
_geom_torsion_atom_site_label_4
_geom_torsion
C1 N1 C3 C2 -0.3(2)
Co1 N1 C3 C2 178.36(13)
C1 N1 C3 C4 178.41(16)
Co1 N1 C3 C4 -2.98(17)
Co1 O1 C4 O2 -179.81(13)
Co1 O1 C4 C3 1.07(18)
C2 C3 C4 O2 0.6(3)
N1 C3 C4 O2 -177.72(16)
C2 C3 C4 O1 179.7(2)
N1 C3 C4 O1 1.4(2)
C3 N1 C1 O4 0.0(2)
Co1 N1 C1 O4 -177.65(16)
C2 O4 C1 N1 0.3(2)
N1 C3 C2 O4 0.4(2)
C4 C3 C2 O4 -177.97(17)
C1 O4 C2 C3 -0.5(2)

_cod_database_fobs_code 2021758
