#------------------------------------------------------------------------------
#$Date: 2020-01-01 09:41:38 +0200 (Wed, 01 Jan 2020) $
#$Revision: 246407 $
#$URL: file:///home/coder/svn-repositories/cod/cif/2/02/19/2021934.cif $
#------------------------------------------------------------------------------
#
# This file is available in the Crystallography Open Database (COD),
# http://www.crystallography.net/. The original data for this entry
# were provided by IUCr Journals, http://journals.iucr.org/.
#
# The file may be used within the scientific community so long as
# proper attribution is given to the journal article from which the
# data were obtained.
#
data_2021934
loop_
_publ_author_name
'Tan, Xue-Jie'
'Liu, Shuai'
'Hei, Xiao-Ming'
'Yang, Feng-Cun'
'He, Peng-Bing'
'Guo, Feng'
'Xing, Dian-Xiang'
_publ_section_title
;
 Structural and theoretical study of four novel norcantharidine
 derivatives: two new cases of conditional isomorphism
;
_journal_coeditor_code           YO3069
_journal_issue                   1
_journal_name_full               'Acta Crystallographica Section C'
_journal_page_first              75
_journal_page_last               86
_journal_paper_doi               10.1107/S2053229619016164
_journal_volume                  76
_journal_year                    2020
_chemical_absolute_configuration unk
_chemical_formula_iupac          'C14 H10 N2 O5'
_chemical_formula_moiety         'C14 H10 N2 O5'
_chemical_formula_sum            'C14 H10 N2 O5'
_chemical_formula_weight         286.24
_chemical_name_systematic
(3a<i>R</i>,4<i>S</i>,7<i>R</i>,7a<i>S</i>)-2-(4-Nitrophenyl)-3a,4,7,7a-tetrahydro-4,7-epoxy-1<i>H</i>-isoindole-1,3(2<i>H</i>)-dione
_space_group_crystal_system      monoclinic
_space_group_IT_number           4
_space_group_name_Hall           'P 2yb'
_space_group_name_H-M_alt        'P 1 21 1'
_atom_sites_solution_hydrogens   mixed
_audit_creation_method           SHELXL-2016/6
_cell_angle_alpha                90
_cell_angle_beta                 100.105(7)
_cell_angle_gamma                90
_cell_formula_units_Z            2
_cell_length_a                   5.285(3)
_cell_length_b                   18.418(9)
_cell_length_c                   6.699(3)
_cell_measurement_reflns_used    380
_cell_measurement_temperature    298(2)
_cell_measurement_theta_max      26.00
_cell_measurement_theta_min      2.45
_cell_volume                     642.0(6)
_computing_cell_refinement
;
SMART (Bruker, 2000)
;
_computing_data_collection
;
SMART (Bruker, 2000)
;
_computing_data_reduction
;
SAINT (Bruker, 2000)
;
_computing_molecular_graphics
;
SHELXTL (Bruker, 2000), PLATON (Spek, 2009), WinGX2014
(Farrugia, 2012),
DIAMOND (Brandenburg & Putz, 1999) and Mercury (Macrae <i>et al.</i>,
2008)
;
_computing_publication_material
;
SHELXL2016 (Sheldrick, 2015b)
;
_computing_structure_refinement
;
SHELXL2016 (Sheldrick, 2015b)
;
_computing_structure_solution
;
SHELXT (Sheldrick, 2015a)
;
_diffrn_ambient_temperature      298(2)
_diffrn_detector_area_resol_mean 10.13
_diffrn_measured_fraction_theta_full 0.995
_diffrn_measured_fraction_theta_max 0.976
_diffrn_measurement_device_type  'Bruker SMART CCD area detector'
_diffrn_measurement_method       'phi and omega scans'
_diffrn_radiation_type           MoK\a
_diffrn_radiation_wavelength     0.71073
_diffrn_reflns_av_R_equivalents  0.0512
_diffrn_reflns_av_unetI/netI     0.0583
_diffrn_reflns_limit_h_max       5
_diffrn_reflns_limit_h_min       -6
_diffrn_reflns_limit_k_max       23
_diffrn_reflns_limit_k_min       -19
_diffrn_reflns_limit_l_max       8
_diffrn_reflns_limit_l_min       -8
_diffrn_reflns_number            3815
_diffrn_reflns_theta_full        25.242
_diffrn_reflns_theta_max         27.505
_diffrn_reflns_theta_min         2.212
_diffrn_source                   'fine-focus sealed tube'
_exptl_absorpt_coefficient_mu    0.115
_exptl_absorpt_correction_T_max  0.991
_exptl_absorpt_correction_T_min  0.976
_exptl_absorpt_correction_type   multi-scan
_exptl_absorpt_process_details
;
(SADABS; Bruker, 2000)
;
_exptl_crystal_colour            colorless
_exptl_crystal_density_diffrn    1.481
_exptl_crystal_density_method    'not measured'
_exptl_crystal_description       block
_exptl_crystal_F_000             296
_exptl_crystal_size_max          0.33
_exptl_crystal_size_mid          0.28
_exptl_crystal_size_min          0.18
_refine_diff_density_max         0.318
_refine_diff_density_min         -0.358
_refine_ls_abs_structure_details
;
Flack <i>x</i> determined using 381 quotients [(I+)-(I-)]/[(I+)+(I-)]
(Parsons <i>et al.</i>,  2013)
;
_refine_ls_abs_structure_Flack   0.4(10)
_refine_ls_extinction_method     none
_refine_ls_goodness_of_fit_ref   0.965
_refine_ls_hydrogen_treatment    refU
_refine_ls_matrix_type           full
_refine_ls_number_parameters     224
_refine_ls_number_reflns         2191
_refine_ls_number_restraints     1
_refine_ls_restrained_S_all      0.965
_refine_ls_R_factor_all          0.0868
_refine_ls_R_factor_gt           0.0666
_refine_ls_shift/su_max          0.000
_refine_ls_shift/su_mean         0.000
_refine_ls_structure_factor_coef Fsqd
_refine_ls_weighting_details
'w=1/[\s^2^(Fo^2^)+(0.1020P)^2^] where P=(Fo^2^+2Fc^2^)/3'
_refine_ls_weighting_scheme      calc
_refine_ls_wR_factor_gt          0.1572
_refine_ls_wR_factor_ref         0.1682
_reflns_number_gt                1541
_reflns_number_total             2191
_reflns_threshold_expression     'I > 2\s(I)'
_cod_data_source_file            yo3069sup1.cif
_cod_data_source_block           DNCA-NA
_cod_original_sg_symbol_H-M      'P 21'
_cod_database_code               2021934
_shelx_space_group_comment
;
The symmetry employed for this shelxl refinement is uniquely defined
by the following loop, which should always be used as a source of
symmetry information in preference to the above space-group names.
They are only intended as comments.
;
_shelx_estimated_absorpt_t_min   0.965
_shelx_estimated_absorpt_t_max   0.985
_shelx_hkl_file
;
   0   0  -1  127.55    1.57
   0   0  -2   -0.14    0.16
   0   0  -3  128.25    2.47
   0   0  -4    3.41    0.49
   0   0  -5   18.37    1.23
   0   1   0    0.01    0.02
   0  -1   0    0.02    0.01
   0  -1  -1   23.98    0.52
   0   1  -1   22.65    0.67
   0  -1  -2   70.22    1.33
   0   1  -2   70.06    1.55
   0  -1  -3   59.72    1.57
   0   1  -3   55.76    1.68
   0  -1  -4    3.29    0.45
   0   1  -4    4.08    0.54
   0  -1  -5    0.98    0.40
   0   1  -5    1.13    0.42
   0   1  -6    6.92    0.85
   0   2   0  172.75    1.85
   0  -2  -1  558.03    7.01
   0  -2  -2   38.68    0.87
   0   2  -2   38.80    1.25
   0  -2  -3  156.00    2.45
   0   2  -3  151.28    2.91
   0  -2  -4   26.20    1.11
   0   2  -4   26.98    1.36
   0  -2  -5    9.78    0.83
   0   2  -5   11.15    1.04
   0   2  -6    3.26    0.63
   0   3   0    0.69    0.14
   0   3  -1  148.68    2.23
   0  -3  -2   21.33    0.56
   0   3  -2   21.61    1.00
   0  -3  -3   38.01    1.06
   0   3  -3   34.09    1.42
   0  -3  -4   36.93    1.25
   0   3  -4   38.17    1.68
   0   3  -5    3.03    0.64
   0   3  -6    5.27    0.78
   0   4   0  278.30    2.87
   0   4  -1   45.20    1.26
   0  -4  -2    3.15    0.19
   0   4  -2    3.94    0.48
   0  -4  -3   44.68    1.03
   0   4  -3   42.40    1.65
   0  -4  -4   18.85    0.85
   0   4  -4   18.05    1.21
   0   4  -5   15.18    1.30
   0   4  -6    9.62    1.06
   0   4  -7    0.64    0.47
   0   5   0    0.03    0.13
   0   5  -1  252.01    3.37
   0   5   1  242.65    2.40
   0   5  -2   59.67    1.81
   0  -5  -3   64.21    1.09
   0   5  -3   62.08    2.09
   0   5  -4    9.63    0.93
   0   5  -5    4.17    0.76
   0   5  -6    8.68    1.05
   0   5  -7    1.36    0.58
   0   6   0  468.76    4.45
   0   6  -1   14.28    0.82
   0   6   1   13.47    0.48
   0   6  -2   15.30    0.97
   0   6  -3    9.76    0.86
   0   6  -4    1.95    0.50
   0   6  -5   89.24    3.27
   0   6  -6   15.98    1.44
   0   6  -7    1.31    0.62
   0   7   0   -0.22    0.17
   0   7  -1  103.49    2.40
   0   7   1   92.66    1.46
   0   7  -2  157.60    3.32
   0   7  -3    6.61    0.76
   0   7  -4    4.00    0.72
   0   7  -5   11.09    1.21
   0   7  -6    2.11    0.64
   0   7  -7    1.10    0.57
   0   7  -8    0.56    0.73
   0   8   0   40.77    1.23
   0   8  -1    5.86    0.64
   0   8   1    5.32    0.40
   0  -8  -2  117.99    1.52
   0   8  -2   99.68    2.75
   0   8  -3    9.30    0.94
   0   8  -4    1.19    0.50
   0   8  -5   53.53    2.54
   0   8  -6    7.64    1.13
   0   8  -7    1.95    0.77
   0   8  -8    0.67    0.71
   0   9   0    0.00    0.23
   0   9  -1    8.58    0.72
   0   9   1    9.39    0.56
   0  -9  -2  146.76    1.92
   0   9  -2  121.61    3.25
   0   9  -3   19.19    1.43
   0   9  -4    3.84    0.72
   0   9  -5   23.71    1.71
   0   9  -6    1.47    0.64
   0   9  -7    1.51    0.79
   0  10   0  124.02    2.56
   0  10  -1   49.99    1.86
   0  10   1   47.42    1.35
   0  10  -2   20.44    1.28
   0  10  -3    5.58    0.82
   0  10  -4   46.14    2.25
   0  10  -5    3.37    0.76
   0  10  -6    0.73    0.59
   0  10  -7    0.02    0.69
   0  11   0    0.12    0.22
   0  11  -1   34.61    1.60
   0  11   1   36.12    1.27
   0  11  -2   25.43    1.47
   0  11  -3    4.50    0.72
   0  11  -4   14.93    1.33
   0  11  -5   10.36    1.28
   0  11  -6    1.07    0.56
   0  11  -7    0.77    0.75
   0  12   0  142.64    3.12
   0  12  -1   20.84    1.27
   0  12   1   24.69    1.15
   0  12  -2    2.37    0.59
   0  12  -3    1.66    0.55
   0  12  -4    5.81    0.96
   0  12  -5    0.18    0.46
   0  12  -6    1.39    0.61
   0  12  -7    0.84    0.67
   0  13   0    0.41    0.34
   0  13  -1   10.49    0.97
   0  13   1   13.15    0.91
   0  13  -2    6.45    0.85
   0  13  -3    9.56    1.16
   0  13  -4    7.30    1.07
   0  13  -5    0.27    0.43
   0  13  -6    0.53    0.66
   0  13  -7    1.78    0.83
   0  14   0  119.22    3.23
   0  14  -1    9.62    0.99
   0  14  -2   10.33    1.09
   0  14  -3    2.74    0.72
   0  14  -4    0.75    0.52
   0  14  -5    4.96    0.99
   0  14  -6    2.16    0.78
   0  15  -1    1.79    0.50
   0  15  -2    4.02    0.77
   0  15  -3    6.22    0.98
   0  15  -4    2.27    0.72
   0  15  -5    4.80    1.03
   0  15  -6    2.05    0.77
   0  16   0   26.73    1.58
   0  16  -1   18.23    1.47
   0  16  -2    4.11    0.79
   0  16  -3    7.18    1.12
   0  16  -4    0.59    0.55
   0  16  -5    1.30    0.70
   0  16  -6    0.27    0.62
   0  17  -2    0.95    0.58
   0  17  -3    1.05    0.57
   0  17  -4    0.23    0.52
   0  17  -5    0.94    0.65
   0  18  -1    2.80    0.73
   0  18  -2    1.82    0.73
   0  18  -3    2.32    0.78
   0  18  -4    0.70    0.59
   0  18  -5    1.69    0.82
   0  19  -3    0.94    0.74
   0  19  -4    0.98    0.80
   0  20  -2    2.30    0.81
   0  20  -3   -0.48    0.53
   0  20  -4    1.07    0.86
   0  21  -2    1.31    0.69
   0  21  -3    0.15    0.71
   0  21  -4   -0.39    0.80
   0  22  -3    0.82    0.77
   1   0  -5    0.74    0.31
   1   0  -4   60.18    1.88
   1   0  -3   12.24    0.76
   1   0  -2    0.39    0.17
  -1   0   1 1255.14    9.18
  -1   0   0    3.04    0.27
  -1   0  -1  136.57    2.06
  -1   0  -2   22.44    0.90
  -1   0  -3   24.35    1.15
  -1   0  -4    0.59    0.32
  -1   0  -5    0.68    0.40
   1   1  -6    1.62    0.51
   1  -1  -5    8.23    0.80
   1   1  -5    6.98    0.81
   1  -1  -4  131.59    2.82
   1   1  -4  136.15    3.12
   1  -1  -3   24.97    1.03
   1   1  -3   23.26    1.08
   1  -1  -2   71.95    1.43
   1   1  -2   70.16    1.62
  -1   1   1  615.01    5.21
   1   1  -1  617.65    5.43
  -1  -1   0   74.88    1.40
  -1   1   0   66.12    1.22
  -1  -1  -1  255.82    3.01
  -1   1  -1  253.76    3.08
  -1  -1  -2   45.76    1.35
  -1   1  -2   39.48    1.24
  -1  -1  -3   19.84    1.04
  -1   1  -3   18.06    1.03
  -1  -1  -4    7.00    0.72
  -1   1  -4    6.13    0.70
  -1  -1  -5   21.41    1.38
  -1   1  -5   22.09    1.45
  -1   1  -6    3.63    0.79
   1   2  -6    1.24    0.49
   1   2  -5   11.82    1.00
   1  -2  -4   25.93    1.18
   1   2  -4   24.38    1.31
   1  -2  -3   77.48    1.77
   1   2  -3   69.99    2.00
   1  -2  -2   73.22    1.44
   1   2  -2   63.55    1.60
  -1   2   1  268.70    2.65
   1   2  -1  286.15    3.21
  -1  -2   0  155.78    2.17
  -1   2   0  142.19    1.96
  -1  -2  -1  193.00    2.48
  -1   2  -1  203.37    2.85
  -1  -2  -2   24.65    0.93
  -1   2  -2   25.23    1.08
  -1  -2  -3   14.53    0.88
  -1   2  -3   12.98    0.88
  -1  -2  -4    3.98    0.54
  -1   2  -4    3.28    0.55
  -1  -2  -5    0.33    0.39
  -1   2  -5    0.75    0.44
  -1   2  -6    0.38    0.51
   1   3  -6    5.83    0.86
   1   3  -5   13.21    1.12
   1  -3  -4   31.25    1.25
   1   3  -4   27.26    1.44
   1  -3  -3   55.15    1.38
   1   3  -3   45.78    1.69
  -1   3   2  104.05    1.65
   1   3  -2   84.68    1.96
  -1   3   1  116.48    1.57
   1   3  -1  119.39    2.01
  -1  -3   0 1081.30    7.95
  -1   3   0 1088.52    7.90
  -1  -3  -1   44.28    1.17
  -1   3  -1   39.72    1.20
  -1  -3  -2  147.50    2.42
  -1   3  -2  136.92    2.62
  -1  -3  -3   33.62    1.21
  -1   3  -3   33.53    1.44
  -1  -3  -4   39.44    1.53
  -1   3  -4   38.68    1.74
  -1   3  -5   14.09    1.24
  -1   3  -6   23.93    1.81
   1   4  -7    4.30    0.88
   1   4  -6   13.03    1.24
   1   4  -5   11.52    1.13
   1  -4  -4   25.87    1.03
   1   4  -4   22.20    1.38
  -1   4   3   40.31    1.22
   1   4  -3   26.65    1.30
  -1   4   2   67.38    1.19
   1   4  -2   56.64    1.62
  -1   4   1   41.52    0.91
   1   4  -1   42.56    1.19
  -1   4   0  268.85    3.12
   1   4   0  290.54    3.38
  -1  -4  -1  289.79    3.22
  -1   4  -1  294.08    3.66
  -1  -4  -2   24.38    0.98
  -1   4  -2   21.06    1.07
  -1  -4  -3   34.23    1.18
  -1   4  -3   42.90    1.78
  -1  -4  -4    2.65    0.46
  -1   4  -4    2.11    0.49
  -1   4  -5   10.37    1.07
  -1   4  -6   20.69    1.68
  -1   4  -7    0.41    0.60
   1   5  -7    2.64    0.77
   1   5  -6    4.95    0.83
   1   5  -5    4.36    0.76
   1   5  -4   11.31    1.03
  -1   5   3    8.32    0.48
   1   5  -3    5.69    0.63
  -1   5   2    2.61    0.22
   1   5  -2    2.81    0.40
  -1   5   1   91.94    1.46
   1   5  -1   88.39    1.89
  -1   5   0   96.58    1.82
   1   5   0  103.47    1.97
  -1  -5  -1  331.29    3.76
  -1   5  -1  305.94    3.96
  -1  -5  -2   37.75    1.15
  -1   5  -2   36.19    1.43
  -1  -5  -3   14.31    0.91
  -1   5  -3   12.20    0.95
  -1   5  -4   32.33    1.71
  -1   5  -5   35.90    1.97
  -1   5  -6    0.86    0.54
  -1   5  -7    0.24    0.61
   1   6  -7    1.33    0.61
   1   6  -6   19.41    1.61
   1   6  -5    9.64    1.10
   1   6  -4    1.50    0.45
   1   6  -3   36.75    1.66
  -1   6   2   61.32    0.92
   1   6  -2   66.36    1.95
  -1   6   1   31.76    0.90
   1   6  -1   29.11    1.12
  -1   6   0  151.48    2.41
   1   6   0  138.40    2.32
  -1  -6  -1  339.99    3.83
  -1   6  -1  326.41    4.22
  -1  -6  -2  192.65    2.88
  -1   6  -2  167.15    3.41
  -1  -6  -3   29.66    1.18
  -1   6  -3   25.47    1.38
  -1   6  -4   21.14    1.43
  -1   6  -5    8.01    1.00
  -1   6  -6    2.50    0.69
  -1   6  -7    0.26    0.72
   1   7  -8    0.82    0.69
   1   7  -7    1.06    0.69
   1   7  -6    1.78    0.56
   1   7  -5    0.39    0.46
   1   7  -4   11.91    1.13
   1   7  -3    2.85    0.51
  -1   7   2   56.39    0.96
   1   7  -2   50.43    1.76
  -1   7   1   22.89    0.80
   1   7  -1   20.36    0.99
  -1   7   0   47.78    1.40
   1   7   0   43.15    1.29
  -1  -7  -1  391.18    4.45
  -1   7  -1  395.81    5.15
  -1  -7  -2   64.49    1.64
  -1   7  -2   58.40    1.99
  -1  -7  -3    9.51    0.73
  -1   7  -3    7.05    0.79
  -1   7  -4   13.52    1.18
  -1   7  -5    5.63    0.93
  -1   7  -6    1.08    0.56
  -1   7  -7    2.23    0.89
   1   8  -8    1.92    0.80
   1   8  -7    1.67    0.79
   1   8  -6   26.75    1.99
   1   8  -5   11.65    1.29
   1   8  -4    7.17    0.93
   1   8  -3   17.26    1.23
  -1   8   2   73.96    1.21
   1   8  -2   68.16    2.23
  -1   8   1   16.81    0.76
   1   8  -1   14.65    0.90
  -1   8   0   15.34    0.86
   1   8   0   14.25    0.81
  -1  -8  -1   99.84    1.99
  -1   8  -1  108.27    2.56
  -1  -8  -2  101.03    2.11
  -1   8  -2   90.56    2.61
  -1   8  -3   37.26    1.83
  -1   8  -4    4.93    0.74
  -1   8  -5    8.81    1.09
  -1   8  -6    2.54    0.70
  -1   8  -7    3.04    0.92
   1   9  -8    1.14    0.73
   1   9  -7    3.23    0.90
   1   9  -5   18.74    1.65
   1   9  -4    5.09    0.84
  -1   9   2   18.59    0.63
   1   9  -2   15.97    1.09
  -1   9   1    5.43    0.48
   1   9  -1    4.43    0.54
  -1   9   0    4.30    0.52
   1   9   0    4.10    0.47
  -1  -9  -1   41.28    1.36
  -1   9  -1   44.33    1.73
  -1  -9  -2   52.78    1.56
  -1   9  -2   43.42    1.86
  -1   9  -3    1.26    0.45
  -1   9  -4   26.45    1.76
  -1   9  -5    9.15    1.13
  -1   9  -6    0.53    0.48
  -1   9  -7    4.66    1.08
   1  10  -7    1.41    0.71
   1  10  -6    5.19    0.92
   1  10  -5    7.25    1.11
   1  10  -4   14.94    1.41
   1  10  -2    3.51    0.57
  -1  10   1   39.73    1.29
   1  10  -1   34.75    1.50
  -1  10   0    3.58    0.49
   1  10   0    3.26    0.46
  -1 -10  -1   90.91    2.08
  -1  10  -1   94.02    2.61
  -1 -10  -2   16.63    1.03
  -1  10  -2   10.18    0.96
  -1  10  -3    4.51    0.73
  -1  10  -4    1.12    0.52
  -1  10  -5    0.79    0.48
  -1  10  -6    4.55    0.97
  -1  10  -7    0.20    0.69
   1  11  -7    0.43    0.63
   1  11  -6    7.39    1.23
   1  11  -5   22.32    1.83
   1  11  -4    3.80    0.74
   1  11  -3   19.98    1.53
   1  11  -2    2.09    0.48
  -1  11   1   21.56    1.02
   1  11  -1   18.57    1.17
  -1  11   0   33.42    1.48
   1  11   0   28.98    1.32
  -1  11  -1    5.52    0.67
  -1  11  -2    4.51    0.69
  -1  11  -3    8.35    1.02
  -1  11  -4   24.46    1.77
  -1  11  -5    2.66    0.71
  -1  11  -6    1.60    0.70
  -1  11  -7    0.43    0.63
   1  12  -7    0.35    0.63
   1  12  -6    0.89    0.65
   1  12  -5   13.85    1.48
   1  12  -4    4.41    0.82
   1  12  -3   17.48    1.50
   1  12  -2    0.38    0.37
  -1  12   1    4.37    0.52
   1  12  -1    3.24    0.55
  -1  12   0    1.96    0.45
   1  12   0    2.55    0.46
  -1  12  -1   14.64    1.15
   1  12   1   16.77    1.06
  -1  12  -2    0.21    0.38
  -1  12  -3   13.97    1.29
  -1  12  -4    1.30    0.56
  -1  12  -5    0.47    0.46
  -1  12  -6    1.03    0.65
   1  13  -7    0.74    0.76
   1  13  -6    3.67    0.96
   1  13  -5    0.61    0.57
   1  13  -4   33.26    2.25
   1  13  -3    7.06    1.02
   1  13  -2    1.50    0.54
   1  13  -1    5.47    0.72
  -1  13   0    3.52    0.56
   1  13   0    3.00    0.53
  -1  13  -1    8.99    0.94
   1  13   1   11.95    1.02
  -1  13  -2    0.88    0.45
  -1  13  -3   17.16    1.47
  -1  13  -4   19.90    1.67
  -1  13  -5    1.74    0.66
  -1  13  -6    2.68    0.85
   1  14  -6    1.80    0.79
   1  14  -5    1.52    0.71
   1  14  -4   41.00    2.62
   1  14  -3   12.02    1.30
   1  14  -1   29.37    1.67
  -1  14   0    2.04    0.51
   1  14   0    1.54    0.45
  -1  14  -1    1.69    0.49
  -1  14  -2    0.14    0.37
  -1  14  -3    4.49    0.82
  -1  14  -4    1.52    0.61
  -1  14  -5   -0.67    0.46
  -1  14  -6    0.42    0.58
   1  15  -6    1.51    0.74
   1  15  -5    0.15    0.59
   1  15  -4    0.65    0.59
   1  15  -3   15.81    1.53
   1  15  -2    2.07    0.63
   1  15  -1    6.66    0.89
  -1  15   0   16.60    1.28
   1  15   0   17.42    1.29
  -1  15  -1   12.73    1.20
  -1  15  -2   15.96    1.42
  -1  15  -3    0.58    0.52
  -1  15  -4    0.75    0.61
  -1  15  -5    0.95    0.65
  -1  15  -6    2.59    0.82
   1  16  -6    0.14    0.72
   1  16  -5    0.75    0.70
   1  16  -4    1.12    0.64
   1  16  -3   10.22    1.29
   1  16  -2    4.25    0.83
   1  16  -1    8.46    1.02
  -1  16   0   11.88    1.04
   1  16   0   13.57    1.22
  -1  16  -1    6.78    0.98
  -1  16  -2    5.65    0.98
  -1  16  -3    2.06    0.76
  -1  16  -4    1.19    0.68
  -1  16  -5    0.12    0.48
   1  17  -5   -0.16    0.63
   1  17  -4    1.72    0.77
   1  17  -3    2.65    0.81
   1  17  -2    5.01    0.95
   1  17  -1   13.75    1.31
  -1  17  -1    8.47    1.01
  -1  17  -2    4.26    0.87
  -1  17  -3   -0.20    0.49
  -1  17  -4    3.19    0.83
  -1  17  -5    0.49    0.61
   1  18  -5    1.73    0.89
   1  18  -4   -0.23    0.64
   1  18  -3    1.15    0.72
   1  18  -2    2.86    0.82
   1  18  -1    4.55    0.86
  -1  18  -1    0.79    0.56
  -1  18  -2    1.56    0.61
  -1  18  -3    2.88    0.77
  -1  18  -4    2.72    0.85
  -1  18  -5    1.09    0.77
   1  19  -4    0.37    0.68
   1  19  -3    0.63    0.66
   1  19  -2    2.20    0.80
  -1  19  -2    1.36    0.69
  -1  19  -3    0.22    0.69
  -1  19  -4    1.07    0.76
   1  20  -4    1.76    0.91
   1  20  -3    1.16    0.83
   1  20  -2    4.03    0.98
  -1  20  -2    0.07    0.50
  -1  20  -3    0.99    0.64
  -1  20  -4    0.96    0.70
   1  21  -4    0.66    0.92
   1  21  -3    0.49    0.70
   1  21  -2    0.76    0.67
  -1  21  -3    1.00    0.80
   1  22  -3    1.66    0.96
   2   0  -5    1.75    0.44
   2   0  -4    1.66    0.42
   2   0  -3   10.62    0.81
  -2   0   2    0.72    0.33
  -2   0   1  167.91    2.83
  -2   0   0  333.09    4.26
  -2   0  -1   19.04    1.05
  -2   0  -2   63.57    1.98
  -2   0  -3   34.88    1.57
  -2   0  -4    1.60    0.57
  -2   0  -5    6.36    0.93
   2   1  -6    1.25    0.46
   2  -1  -5    2.17    0.49
   2   1  -5    2.25    0.51
   2  -1  -4    5.51    0.69
   2   1  -4    4.35    0.59
  -2   1   3   12.27    0.96
   2   1  -3   11.46    0.90
  -2  -1   2   23.83    1.24
  -2   1   2   22.21    1.13
  -2  -1   1  420.16    4.70
  -2   1   1  418.85    4.50
  -2  -1   0  175.86    2.84
  -2   1   0  180.08    2.92
  -2  -1  -1   10.23    0.73
  -2   1  -1   10.26    0.77
  -2  -1  -2    4.15    0.57
  -2   1  -2    3.35    0.48
  -2  -1  -3   42.47    1.95
  -2   1  -3   36.25    1.69
  -2  -1  -4   18.37    1.40
  -2   1  -4   18.79    1.39
  -2  -1  -5    9.80    1.12
  -2   1  -5    9.95    1.14
  -2   1  -6    6.71    1.07
   2   2  -6    2.06    0.58
   2   2  -5    3.57    0.62
   2   2  -4    4.21    0.64
  -2   2   3    1.68    0.46
   2   2  -3    1.63    0.38
  -2   2   2   20.31    1.03
   2   2  -2   18.65    1.00
  -2  -2   1  110.19    2.17
  -2   2   1  122.80    2.31
  -2  -2   0   81.28    1.86
  -2   2   0   85.67    2.00
  -2  -2  -1   76.54    1.97
  -2   2  -1   73.04    1.99
  -2  -2  -2   45.27    1.71
  -2   2  -2   42.90    1.72
  -2  -2  -3   14.26    1.09
  -2   2  -3   14.73    1.11
  -2  -2  -4    5.32    0.85
  -2   2  -4    3.63    0.67
  -2  -2  -5    1.39    0.60
  -2   2  -5    0.80    0.52
  -2   2  -6    7.21    1.14
   2   3  -6    1.25    0.49
   2   3  -5    8.90    1.00
  -2   3   4   99.09    2.92
   2   3  -4   59.61    2.23
  -2   3   3   53.15    1.82
   2   3  -3   39.26    1.60
  -2   3   2  108.24    2.23
   2   3  -2  108.63    2.58
  -2  -3   1  102.44    2.18
  -2   3   1  104.26    2.05
  -2  -3   0    2.42    0.37
  -2   3   0    2.12    0.35
  -2  -3  -1   34.13    1.34
  -2   3  -1   31.70    1.35
  -2  -3  -2   13.94    0.89
  -2   3  -2   15.80    1.02
  -2  -3  -3   10.40    0.88
  -2   3  -3    8.32    0.88
  -2  -3  -4   17.98    1.32
  -2   3  -4   16.19    1.30
  -2   3  -5   21.35    1.68
  -2   3  -6    0.84    0.63
   2   4  -7    4.08    0.86
   2   4  -6    1.67    0.55
   2   4  -5    0.80    0.40
  -2   4   4   28.63    1.43
   2   4  -4   18.78    1.32
  -2   4   3    5.11    0.60
   2   4  -3    3.84    0.55
  -2   4   2   42.36    1.41
   2   4  -2   39.61    1.56
  -2  -4   1   56.30    1.69
  -2   4   1   59.58    1.61
  -2  -4   0   48.43    1.55
  -2   4   0   48.70    1.52
  -2  -4  -1   54.16    1.64
  -2   4  -1   55.03    1.76
  -2  -4  -2   13.78    0.93
  -2   4  -2   14.39    1.01
  -2  -4  -3   13.88    1.11
  -2   4  -3    9.40    0.95
  -2  -4  -4    6.62    0.94
  -2   4  -4    3.74    0.66
  -2   4  -5   42.73    2.34
  -2   4  -6    4.17    0.93
  -2   4  -7    2.34    0.86
   2   5  -7    2.98    0.75
   2   5  -6   15.04    1.46
   2   5  -5   10.86    1.12
   2   5  -4    6.26    0.81
  -2   5   3    9.23    0.70
   2   5  -3    8.59    0.81
  -2   5   2   29.90    1.11
   2   5  -2   26.70    1.26
  -2  -5   1   73.27    1.84
  -2   5   1   93.50    2.07
  -2  -5   0   18.65    0.94
  -2   5   0   23.64    1.11
  -2  -5  -1   24.80    1.17
  -2   5  -1   25.44    1.30
  -2  -5  -2   30.25    1.34
  -2   5  -2   29.79    1.49
  -2  -5  -3    1.69    0.47
  -2   5  -3    1.33    0.45
  -2  -5  -4   16.84    1.27
  -2   5  -4   10.94    1.08
  -2   5  -5    5.08    0.86
  -2   5  -6    1.25    0.67
  -2   5  -7    3.10    0.96
   2   6  -7    2.37    0.74
   2   6  -6    0.50    0.49
   2   6  -5   10.50    1.15
   2   6  -4    6.45    0.81
  -2   6   3   25.06    0.97
   2   6  -3   24.83    1.39
  -2   6   2   23.99    1.00
   2   6  -2   19.36    1.02
  -2   6   1    2.21    0.35
   2   6  -1    1.58    0.32
  -2  -6   0    5.47    0.48
  -2   6   0    8.26    0.70
  -2  -6  -1   96.43    2.28
  -2   6  -1  104.39    2.54
  -2  -6  -2   13.29    0.98
  -2   6  -2   10.53    0.94
  -2  -6  -3   27.90    1.58
  -2   6  -3   21.42    1.43
  -2   6  -4   19.86    1.49
  -2   6  -5   19.26    1.57
  -2   6  -6    0.54    0.53
  -2   6  -7    4.08    1.10
   2   7  -7    1.69    0.72
   2   7  -6   18.27    1.68
   2   7  -5    0.59    0.47
   2   7  -4    8.97    0.98
   2   7  -3   10.99    0.97
  -2   7   2   52.85    1.41
   2   7  -2   51.32    1.86
  -2   7   1   18.06    0.86
   2   7  -1   19.69    1.12
  -2  -7   0   10.48    0.77
  -2   7   0   12.35    0.82
  -2  -7  -1   64.93    1.96
  -2   7  -1   62.50    2.06
  -2  -7  -2   37.36    1.57
  -2   7  -2   34.41    1.63
  -2  -7  -3    1.58    0.54
  -2   7  -3    0.74    0.38
  -2   7  -4    7.18    0.94
  -2   7  -5    6.13    0.97
  -2   7  -6    1.58    0.66
  -2   7  -7    0.76    0.69
   2   8  -8    0.31    0.66
   2   8  -7    0.75    0.60
   2   8  -6    4.31    0.94
   2   8  -5    8.78    1.14
   2   8  -4    1.90    0.54
   2   8  -3    0.39    0.34
  -2   8   2   16.79    0.81
   2   8  -2   16.88    1.12
  -2   8   1    2.86    0.41
   2   8  -1    2.49    0.44
  -2  -8   0   19.89    0.97
  -2   8   0   29.56    1.33
  -2  -8  -1   61.83    1.89
  -2   8  -1   68.29    2.21
  -2  -8  -2   14.28    1.10
  -2   8  -2   10.82    1.01
  -2  -8  -3    2.89    0.69
  -2   8  -3    2.34    0.58
  -2   8  -4   14.41    1.31
  -2   8  -5   11.02    1.27
  -2   8  -6    1.49    0.68
  -2   8  -7    2.28    0.95
   2   9  -7    3.60    0.99
   2   9  -6   10.83    1.38
   2   9  -5    0.30    0.43
   2   9  -4    2.59    0.64
   2   9  -3    8.69    0.95
  -2   9   2    1.46    0.39
   2   9  -2    0.82    0.34
  -2   9   1   42.04    1.49
   2   9  -1   36.31    1.58
  -2  -9   0    7.81    0.67
  -2   9   0    9.51    0.81
  -2  -9  -1   81.23    2.37
  -2   9  -1   75.12    2.39
  -2  -9  -2    9.22    0.94
  -2   9  -2    6.00    0.77
  -2   9  -3    0.65    0.44
  -2   9  -4   11.32    1.16
  -2   9  -5    2.55    0.71
  -2   9  -6    1.30    0.66
  -2   9  -7    1.18    0.84
   2  10  -7    0.00    0.58
   2  10  -6    1.20    0.63
   2  10  -5    3.37    0.79
   2  10  -4   10.10    1.16
   2  10  -3    1.97    0.55
   2  10  -2    4.56    0.66
  -2  10   1   19.77    1.06
   2  10  -1   20.17    1.22
  -2 -10   0   23.15    1.12
  -2  10   0   32.38    1.48
  -2 -10  -1   11.82    0.86
  -2  10  -1   11.62    0.97
  -2 -10  -2   31.78    1.62
  -2  10  -2   23.68    1.50
  -2  10  -3   11.36    1.13
  -2  10  -4    7.79    1.01
  -2  10  -5    4.78    0.91
  -2  10  -6    0.50    0.65
   2  11  -7    1.11    0.75
   2  11  -6    1.27    0.67
   2  11  -5    3.04    0.79
   2  11  -4    3.99    0.81
   2  11  -3    3.86    0.74
   2  11  -2    1.56    0.46
  -2  11   1   10.96    0.80
   2  11  -1   10.69    0.92
  -2 -11   0    9.85    0.78
  -2  11   0   12.46    0.94
  -2 -11  -1   13.14    0.97
  -2  11  -1   12.81    1.08
  -2  11  -2   26.38    1.61
  -2  11  -3    7.32    0.98
  -2  11  -4    0.90    0.48
  -2  11  -5    1.10    0.53
  -2  11  -6    1.10    0.61
   2  12  -7    0.99    0.81
   2  12  -6    0.34    0.56
   2  12  -5    8.27    1.21
   2  12  -4   11.41    1.31
   2  12  -3    7.24    0.99
   2  12  -2    1.42    0.47
  -2  12   1    4.11    0.57
   2  12  -1    3.25    0.55
  -2 -12   0    7.28    0.70
  -2  12   0    8.74    0.88
  -2 -12  -1    2.51    0.48
  -2  12  -1    2.79    0.59
  -2  12  -2    4.52    0.73
  -2  12  -3    2.24    0.62
  -2  12  -4    1.45    0.55
  -2  12  -6    1.82    0.80
   2  13  -7    0.89    0.79
   2  13  -6    0.31    0.61
   2  13  -5    3.39    0.90
   2  13  -4    2.04    0.69
   2  13  -3    6.30    0.95
   2  13  -2    2.06    0.55
  -2  13   1   17.22    1.06
   2  13  -1   14.09    1.12
  -2 -13   0    9.25    0.83
  -2  13   0   11.38    0.95
  -2 -13  -1    5.06    0.68
  -2  13  -1    6.03    0.83
  -2  13  -2    4.08    0.76
  -2  13  -3   19.89    1.60
  -2  13  -4    0.68    0.48
  -2  13  -5   -0.19    0.49
  -2  13  -6    1.38    0.69
   2  14  -6    2.77    0.94
   2  14  -5    3.28    0.96
   2  14  -4    1.69    0.70
   2  14  -3    1.90    0.66
   2  14  -2    2.28    0.63
   2  14  -1   12.89    1.13
  -2  14   0   32.20    1.67
  -2  14  -1    7.16    0.92
  -2  14  -2    1.13    0.51
  -2  14  -3    6.41    0.96
  -2  14  -4    0.42    0.46
  -2  14  -5    0.31    0.55
   2  15  -6    1.07    0.80
   2  15  -5    0.17    0.60
   2  15  -4    6.02    1.07
   2  15  -3    2.90    0.77
   2  15  -2    4.82    0.83
   2  15  -1   31.29    1.80
  -2  15   0    3.13    0.62
   2  15   0    3.02    0.66
  -2  15  -1    1.17    0.51
  -2  15  -2    6.14    0.93
  -2  15  -3    3.65    0.81
  -2  15  -4    0.75    0.60
  -2  15  -5    0.94    0.64
   2  16  -5   -0.33    0.57
   2  16  -4    5.68    1.07
   2  16  -3    0.62    0.53
   2  16  -2    3.18    0.74
   2  16  -1   18.09    1.44
   2  16   0    3.87    0.76
  -2  16  -1    0.82    0.50
  -2  16  -2    2.01    0.67
  -2  16  -3    0.61    0.55
  -2  16  -4    0.12    0.50
  -2  16  -5    0.20    0.57
   2  17  -5    0.91    0.72
   2  17  -4   10.26    1.41
   2  17  -3    3.68    0.90
   2  17  -2   12.57    1.41
   2  17  -1    5.33    0.90
  -2  17  -1    0.28    0.47
  -2  17  -2    1.50    0.63
  -2  17  -3    0.24    0.52
  -2  17  -4   -0.01    0.52
   2  18  -5    1.26    0.88
   2  18  -4    0.01    0.72
   2  18  -3    7.00    1.21
   2  18  -2    1.42    0.69
   2  18  -1    8.02    1.16
  -2  18  -1    2.16    0.65
  -2  18  -2    1.29    0.63
  -2  18  -3    0.79    0.61
  -2  18  -4    2.43    0.80
   2  19  -4   -0.13    0.67
   2  19  -3    3.08    0.90
   2  19  -2    2.64    0.80
   2  19  -1    3.59    0.89
  -2  19  -2    2.18    0.68
  -2  19  -3    1.43    0.74
   2  20  -4    0.31    0.70
   2  20  -3    0.38    0.75
   2  20  -2    4.32    0.98
  -2  20  -2   -0.09    0.63
  -2  20  -3   -0.01    0.76
   2  21  -3    0.84    0.79
   2  21  -2    2.45    0.81
  -3   0   5   28.17    2.16
  -3   0   4   85.39    3.19
  -3   0   3    4.61    0.73
  -3   0   2   47.41    1.81
  -3   0   1  188.58    3.62
  -3   0   0   81.05    2.23
  -3   0  -1   55.93    2.15
  -3   0  -2    8.32    0.92
  -3   0  -3   22.64    1.65
  -3   0  -4    5.34    0.94
  -3   0  -5    0.17    0.64
   3   1  -6    0.76    0.52
  -3  -1   5    7.89    1.16
  -3   1   5    7.84    1.14
  -3  -1   4    7.54    1.07
  -3   1   4    7.48    0.98
  -3  -1   3    0.37    0.34
  -3   1   3    0.31    0.36
  -3  -1   2   68.08    2.27
  -3   1   2   78.42    2.50
  -3  -1   1   85.56    2.36
  -3   1   1   84.93    2.40
  -3  -1   0   17.98    1.13
  -3   1   0   17.47    1.10
  -3  -1  -1    4.88    0.65
  -3   1  -1    7.86    0.83
  -3  -1  -2   40.19    1.94
  -3  -1  -3    0.00    0.33
  -3   1  -3    0.69    0.49
  -3  -1  -4    4.51    0.91
  -3   1  -4    5.93    1.03
  -3  -1  -5   15.51    1.74
  -3   1  -5   15.14    1.63
  -3   1  -6    0.62    0.82
   3   2  -6    3.92    0.85
   3   2  -5   19.46    1.45
  -3  -2   4    5.32    0.89
  -3   2   4    6.69    0.92
  -3  -2   3   20.44    1.36
  -3   2   3   22.07    1.35
  -3  -2   2   24.24    1.36
  -3   2   2   24.45    1.32
  -3  -2   1   11.57    0.89
  -3   2   1   13.27    0.98
  -3  -2   0    5.62    0.60
  -3   2   0    5.91    0.70
  -3  -2  -1   16.44    1.07
  -3   2  -1   18.31    1.25
  -3  -2  -2   12.28    1.15
  -3   2  -2   10.60    1.02
  -3  -2  -3   15.26    1.38
  -3   2  -3   13.03    1.20
  -3  -2  -4    2.23    0.78
  -3   2  -4    2.27    0.71
  -3  -2  -5    3.45    1.04
  -3   2  -5    1.62    0.77
  -3   2  -6    6.92    1.30
   3   3  -6    2.01    0.62
   3   3  -5    5.12    0.85
  -3   3   4   11.66    1.21
   3   3  -4    7.90    0.90
  -3  -3   3    0.50    0.38
  -3   3   3    1.04    0.46
  -3  -3   2   15.47    1.02
  -3   3   2   16.88    1.10
  -3  -3   1   27.54    1.30
  -3   3   1   31.92    1.49
  -3  -3   0   12.78    0.92
  -3   3   0   13.72    1.05
  -3  -3  -1    0.23    0.29
  -3   3  -1    0.17    0.31
  -3  -3  -2    3.72    0.62
  -3   3  -2    3.87    0.66
  -3  -3  -3    9.00    1.04
  -3   3  -3    9.17    1.03
  -3  -3  -4   11.67    1.52
  -3   3  -4    8.23    1.13
  -3   3  -5    4.59    0.98
  -3   3  -6    1.52    0.79
   3   4  -6    1.80    0.68
   3   4  -5    0.74    0.46
  -3   4   4   20.46    1.54
   3   4  -4   14.41    1.24
  -3  -4   3   22.87    1.49
  -3   4   3   27.32    1.50
  -3  -4   2   34.52    1.74
  -3   4   2   35.38    1.57
  -3  -4   1    3.37    0.49
  -3   4   1    4.37    0.60
  -3  -4   0   11.98    0.79
  -3   4   0   19.63    1.25
  -3  -4  -1   16.86    1.12
  -3   4  -1   18.02    1.26
  -3  -4  -2   27.74    1.56
  -3   4  -2   26.18    1.63
  -3  -4  -3    0.85    0.51
  -3   4  -3    0.29    0.42
  -3  -4  -4   20.18    1.83
  -3   4  -4   16.93    1.55
  -3   4  -5    1.19    0.60
  -3   4  -6   10.93    1.56
   3   5  -7    1.99    0.71
   3   5  -6    2.60    0.70
   3   5  -5    9.16    1.15
   3   5  -4    6.89    0.89
  -3  -5   3    1.02    0.42
  -3   5   3    1.56    0.50
  -3  -5   2   13.35    0.97
  -3   5   2   21.82    1.22
  -3  -5   1    9.05    0.74
  -3   5   1   11.59    0.87
  -3  -5   0    4.45    0.59
  -3   5   0    5.83    0.71
  -3  -5  -1    3.09    0.57
  -3   5  -1    2.88    0.53
  -3  -5  -2    3.73    0.67
  -3   5  -2    4.64    0.74
  -3  -5  -3    2.22    0.71
  -3   5  -3    1.45    0.60
  -3  -5  -4   14.47    1.57
  -3   5  -4    8.92    1.13
  -3   5  -5    0.99    0.55
  -3   5  -6    2.02    0.79
   3   6  -7    1.37    0.63
   3   6  -6    1.32    0.52
   3   6  -5    8.34    1.04
   3   6  -4    8.07    0.98
  -3   6   3   16.52    1.11
   3   6  -3   13.49    1.05
  -3  -6   2   14.97    1.10
  -3   6   2   16.63    1.06
  -3  -6   1    1.91    0.34
  -3   6   1    3.74    0.58
  -3  -6   0   28.84    1.33
  -3   6   0   42.44    1.86
  -3  -6  -1   36.69    1.59
  -3   6  -1   41.58    1.95
  -3  -6  -2   14.52    1.18
  -3   6  -2   18.06    1.37
  -3  -6  -3   12.09    1.29
  -3   6  -3    9.93    1.11
  -3   6  -4   21.26    1.76
  -3   6  -5    1.01    0.64
  -3   6  -6    5.59    1.11
   3   7  -7    2.45    0.75
   3   7  -6    0.14    0.48
   3   7  -5    1.31    0.53
   3   7  -4    3.60    0.73
  -3   7   3   15.39    1.01
   3   7  -3   14.11    1.16
  -3  -7   2    0.15    0.23
  -3   7   2    0.34    0.38
  -3  -7   1    1.01    0.28
  -3   7   1    1.76    0.46
  -3  -7   0    7.49    0.69
  -3   7   0   10.16    0.91
  -3  -7  -1   27.27    1.47
  -3   7  -1   29.34    1.68
  -3  -7  -2   20.54    1.46
  -3   7  -2   22.61    1.56
  -3  -7  -3    3.99    0.89
  -3   7  -3    2.99    0.69
  -3   7  -4    1.72    0.57
  -3   7  -5    2.98    0.82
  -3   7  -6    1.67    0.84
   3   8  -7    1.67    0.67
   3   8  -6    4.58    0.90
   3   8  -5    0.62    0.41
   3   8  -4    1.35    0.50
   3   8  -3    0.32    0.33
  -3  -8   2    0.96    0.33
  -3   8   2    1.98    0.48
  -3  -8   1    3.62    0.55
  -3   8   1    4.32    0.58
  -3  -8   0   50.13    1.85
  -3   8   0   69.04    2.52
  -3  -8  -1   28.62    1.50
  -3   8  -1   38.05    1.88
  -3  -8  -2    6.82    0.88
  -3   8  -2    6.73    0.91
  -3  -8  -3    1.64    0.58
  -3   8  -3    1.00    0.52
  -3   8  -4    5.86    0.93
  -3   8  -5   -0.22    0.51
  -3   8  -6    3.36    0.98
   3   9  -7    1.73    0.72
   3   9  -6    2.19    0.71
   3   9  -5    1.10    0.52
   3   9  -4    4.95    0.80
   3   9  -3    3.86    0.68
  -3  -9   2    5.54    0.68
  -3   9   2    6.97    0.70
  -3  -9   1    3.44    0.53
  -3   9   1    4.49    0.65
  -3  -9   0    3.19    0.50
  -3   9   0    4.34    0.69
  -3  -9  -1    3.38    0.58
  -3   9  -1    3.19    0.71
  -3  -9  -2   11.92    1.15
  -3   9  -2   12.10    1.20
  -3   9  -3    2.82    0.68
  -3   9  -4    6.03    0.97
  -3   9  -5    0.54    0.47
  -3   9  -6    0.66    0.67
   3  10  -7    0.12    0.60
   3  10  -6    1.32    0.68
   3  10  -5    0.62    0.48
   3  10  -4    3.38    0.68
   3  10  -3    2.90    0.63
  -3  10   2    0.60    0.37
   3  10  -2    0.29    0.33
  -3 -10   1    1.58    0.35
  -3  10   1    2.32    0.50
  -3 -10   0    7.95    0.71
  -3  10   0   13.46    1.07
  -3 -10  -1   40.74    1.89
  -3  10  -1   42.69    2.10
  -3 -10  -2   19.88    1.55
  -3  10  -3   10.56    1.18
  -3  10  -4    0.55    0.47
  -3  10  -5    1.39    0.61
   3  11  -7    0.51    0.69
   3  11  -6    1.59    0.68
   3  11  -5    1.29    0.55
   3  11  -4    2.29    0.58
   3  11  -3    3.35    0.70
   3  11  -2    7.34    0.81
  -3 -11   1    1.85    0.41
  -3  11   1    4.08    0.68
  -3 -11   0    9.77    0.86
  -3  11   0   15.27    1.23
  -3 -11  -1   34.13    1.93
  -3  11  -1   32.07    1.81
  -3 -11  -2    4.56    0.92
  -3  11  -2    4.22    0.76
  -3  11  -3    4.67    0.86
  -3  11  -4    2.41    0.70
  -3  11  -5    1.15    0.58
   3  12  -6    0.76    0.62
   3  12  -5    2.14    0.69
   3  12  -4    0.24    0.38
   3  12  -3    1.90    0.60
   3  12  -2    0.41    0.33
  -3 -12   1   14.02    1.11
  -3  12   1   17.19    1.25
  -3 -12   0   18.94    1.20
  -3  12   0   27.67    1.61
  -3 -12  -1    0.33    0.47
  -3  12  -1    0.07    0.44
  -3  12  -2   12.09    1.23
  -3  12  -3    3.08    0.75
  -3  12  -4    1.74    0.59
  -3  12  -5    1.29    0.63
   3  13  -6    0.56    0.67
   3  13  -5    1.35    0.62
   3  13  -4    0.44    0.48
   3  13  -3    6.13    0.96
   3  13  -2    2.83    0.61
  -3 -13   1   10.29    0.99
  -3 -13   0    8.81    0.85
  -3  13   0   13.61    1.19
  -3 -13  -1    2.35    0.64
  -3  13  -1    2.05    0.56
  -3  13  -2   12.96    1.35
  -3  13  -3    4.28    0.87
  -3  13  -4    1.61    0.65
  -3  13  -5    1.49    0.72
   3  14  -6    0.99    0.73
   3  14  -5    3.81    0.93
   3  14  -4    2.22    0.69
   3  14  -3    2.16    0.70
   3  14  -2    6.15    0.89
  -3 -14   1    5.01    0.74
  -3 -14   0    1.17    0.39
  -3  14   0    2.01    0.56
  -3 -14  -1    8.78    1.01
  -3  14  -1    9.86    1.14
  -3  14  -2    2.98    0.74
  -3  14  -3    2.99    0.76
  -3  14  -4    0.38    0.54
   3  15  -5    2.46    0.82
   3  15  -4    0.42    0.48
   3  15  -3    1.71    0.69
   3  15  -2    3.11    0.73
  -3 -15   1    1.53    0.49
  -3 -15   0    3.26    0.59
  -3  15   0    3.97    0.75
  -3  15  -1    2.58    0.66
  -3  15  -2    1.54    0.59
  -3  15  -3    1.49    0.68
  -3  15  -4    0.54    0.57
   3  16  -5    1.72    0.75
   3  16  -4    0.05    0.48
   3  16  -3    1.87    0.74
   3  16  -2    1.22    0.58
  -3 -16   1    1.50    0.49
  -3 -16   0    1.88    0.53
  -3  16  -1    3.46    0.74
  -3  16  -2    3.93    0.86
  -3  16  -3    0.30    0.57
  -3  16  -4    0.84    0.63
   3  17  -4    0.58    0.61
   3  17  -3    1.19    0.73
   3  17  -2    1.34    0.62
  -3 -17   1    2.04    0.60
  -3  17  -1    0.31    0.45
  -3  17  -2    4.35    0.95
  -3  17  -3    0.21    0.56
   3  18  -4    1.55    0.74
   3  18  -3    1.37    0.71
   3  18  -2    0.78    0.65
  -3 -18   1    1.22    0.58
  -3  18  -1    1.80    0.64
  -3  18  -2    1.00    0.67
  -3  18  -3    1.15    0.77
   3  19  -4    0.84    0.74
   3  19  -3    2.54    0.86
   3  19  -2    0.85    0.61
  -3  19  -2    0.54    0.64
   3  20  -3    1.94    0.88
   3  20  -2    3.94    0.93
  -3  20  -2    0.52    0.70
   3  21  -2    0.69    0.73
  -4   0   5    4.82    1.08
  -4   0   4    6.99    1.13
  -4   0   3    2.43    0.68
  -4   0   2    8.39    0.97
  -4   0   1    0.35    0.44
  -4   0   0    1.22    0.47
  -4   0  -1    0.62    0.41
  -4   0  -2    0.28    0.44
  -4   0  -3   16.55    1.47
  -4   0  -4   12.32    1.46
  -4   0  -5    1.42    0.96
  -4  -1   5    7.16    1.20
  -4   1   5    6.35    1.17
  -4  -1   4   14.70    1.38
  -4   1   4   15.80    1.45
  -4  -1   3    6.09    0.86
  -4   1   3    8.23    1.01
  -4  -1   2   10.70    1.02
  -4   1   2   10.80    1.02
  -4  -1   1    4.15    0.65
  -4   1   1    3.11    0.61
  -4  -1   0    1.26    0.45
  -4   1   0    1.93    0.52
  -4  -1  -1    0.43    0.38
  -4   1  -1    1.02    0.51
  -4  -1  -2    0.35    0.44
  -4   1  -2    0.75    0.46
  -4  -1  -3    1.10    0.61
  -4   1  -3    1.58    0.62
  -4  -1  -4    5.45    1.18
  -4   1  -4    3.42    1.05
  -4  -1  -5    0.06    0.91
  -4   1  -5    1.34    0.88
  -4   1  -6    1.96    0.99
  -4  -2   6    4.47    1.38
  -4  -2   5    4.13    1.19
  -4  -2   4    9.91    1.25
  -4   2   4   10.72    1.35
  -4  -2   3   15.49    1.38
  -4   2   3   15.41    1.37
  -4  -2   2   22.86    1.55
  -4   2   2   25.04    1.65
  -4  -2   1    3.55    0.62
  -4   2   1    3.79    0.70
  -4  -2   0    1.75    0.48
  -4   2   0    3.09    0.71
  -4  -2  -1    3.45    0.66
  -4   2  -1    5.47    0.86
  -4  -2  -2    8.67    1.08
  -4   2  -2    7.11    1.00
  -4  -2  -3    8.60    1.22
  -4   2  -3    7.44    1.13
  -4  -2  -4   11.25    1.86
  -4   2  -4    8.36    1.23
  -4  -2  -5    0.45    1.21
  -4   2  -5    0.62    0.83
  -4   2  -6    1.36    0.99
  -4  -3   6    1.80    0.90
  -4  -3   5   13.74    1.75
  -4  -3   4    4.43    0.83
  -4   3   4    3.35    0.76
  -4  -3   3   16.89    1.29
  -4   3   3   22.56    1.54
  -4  -3   2   12.61    1.06
  -4   3   2   12.23    1.11
  -4  -3   1    6.13    0.71
  -4   3   1    9.90    0.99
  -4  -3   0    4.88    0.71
  -4   3   0    5.97    0.77
  -4  -3  -1    4.13    0.66
  -4   3  -1    5.10    0.83
  -4  -3  -2    0.63    0.42
  -4   3  -2    1.15    0.46
  -4  -3  -3    6.70    1.03
  -4   3  -3    9.00    1.25
  -4  -3  -4    5.53    1.20
  -4   3  -4    3.53    0.99
  -4   3  -5    2.05    0.94
  -4  -4   6    1.36    0.89
  -4  -4   5    0.84    0.64
  -4  -4   4    0.68    0.65
  -4   4   4    0.64    0.55
  -4  -4   3   14.85    1.29
  -4   4   3   17.23    1.45
  -4  -4   2   14.15    1.14
  -4   4   2   21.33    1.51
  -4  -4   1    7.69    0.77
  -4   4   1   11.13    1.11
  -4  -4   0    6.24    0.75
  -4   4   0   10.36    1.12
  -4  -4  -1    8.97    0.97
  -4   4  -1    8.63    0.99
  -4  -4  -2   12.76    1.29
  -4   4  -2   13.53    1.34
  -4  -4  -3   10.48    1.34
  -4   4  -3    9.49    1.15
  -4  -4  -4    1.55    0.91
  -4   4  -4    2.00    0.76
  -4   4  -5    8.68    1.47
  -4  -5   7    2.22    1.14
  -4  -5   6    1.29    0.88
  -4  -5   5    5.49    1.19
  -4  -5   4    7.98    1.25
  -4  -5   3    0.27    0.36
  -4   5   3    0.98    0.56
  -4  -5   2    2.25    0.52
  -4   5   2    2.80    0.64
  -4  -5   1    5.35    0.72
  -4   5   1    8.10    0.90
  -4  -5   0   18.29    1.17
  -4   5   0   23.99    1.63
  -4  -5  -1    2.36    0.56
  -4   5  -1    2.53    0.71
  -4  -5  -2    6.18    0.99
  -4   5  -2    5.86    0.98
  -4  -5  -3    0.54    0.61
  -4   5  -3    0.84    0.56
  -4  -5  -4   10.62    1.47
  -4   5  -4    8.69    1.29
  -4   5  -5    1.68    0.77
  -4  -6   7    4.87    1.34
  -4  -6   6    3.07    1.07
  -4  -6   5    0.99    0.72
  -4  -6   4    2.01    0.66
  -4  -6   3    0.46    0.41
  -4   6   3    0.79    0.48
  -4  -6   2    1.81    0.43
  -4   6   2    3.98    0.79
  -4  -6   1    2.47    0.48
  -4   6   1    3.89    0.74
  -4  -6   0    9.26    0.88
  -4   6   0   12.69    1.19
  -4  -6  -1    9.48    0.96
  -4   6  -1   12.09    1.18
  -4  -6  -2    1.46    0.60
  -4   6  -2    1.09    0.62
  -4  -6  -3   13.53    1.58
  -4   6  -3   12.43    1.41
  -4   6  -4    1.88    0.76
  -4   6  -5    3.51    0.91
   4   7  -7    0.85    0.68
  -4  -7   5    0.28    0.62
  -4  -7   4    1.60    0.64
  -4  -7   3    3.39    0.78
  -4   7   3    3.25    0.74
  -4  -7   2   -0.02    0.25
  -4   7   2    0.25    0.53
  -4  -7   1    1.18    0.34
  -4   7   1    2.32    0.68
  -4  -7   0    6.35    0.70
  -4   7   0    9.98    1.16
  -4  -7  -1   38.08    1.96
  -4   7  -1   46.11    2.44
  -4  -7  -2   18.76    1.55
  -4   7  -2   17.06    1.51
  -4  -7  -3    3.07    0.88
  -4   7  -3    3.15    0.79
  -4   7  -4    1.89    0.72
  -4   7  -5    1.57    0.71
   4   8  -7    3.29    0.96
   4   8  -6    1.01    0.65
  -4  -8   5    1.39    0.72
  -4  -8   4   -0.04    0.46
  -4  -8   3    0.19    0.39
  -4  -8   2    4.56    0.63
  -4   8   2    8.68    1.05
  -4  -8   1    1.76    0.43
  -4   8   1    2.77    0.66
  -4  -8   0    1.56    0.40
  -4   8   0    1.81    0.61
  -4  -8  -1    8.29    0.97
  -4   8  -1    9.77    1.21
  -4  -8  -2    0.61    0.47
  -4   8  -2    0.32    0.49
  -4  -8  -3    1.23    0.82
  -4   8  -3    0.77    0.59
  -4   8  -4    2.12    0.79
  -4   8  -5    0.93    0.70
   4   9  -7    0.44    0.69
   4   9  -6    1.01    0.57
  -4  -9   4    4.63    0.94
  -4  -9   3    0.49    0.39
  -4  -9   2    1.14    0.34
  -4   9   2    2.15    0.60
  -4  -9   1    0.40    0.28
  -4   9   1    0.38    0.38
  -4  -9   0   22.42    1.41
  -4   9   0   30.96    2.05
  -4  -9  -1    5.70    0.82
  -4   9  -1    8.04    1.08
  -4  -9  -2    7.45    1.08
  -4   9  -2    7.32    1.11
  -4   9  -3    4.42    0.93
  -4   9  -4    1.77    0.71
  -4   9  -5    0.68    0.64
   4  10  -6    0.06    0.56
   4  10  -5    0.56    0.51
  -4 -10   4    1.41    0.65
  -4 -10   3    8.37    1.05
  -4 -10   2    2.45    0.49
  -4 -10   1    0.21    0.26
  -4  10   1    0.71    0.56
  -4 -10   0    8.42    0.93
  -4  10   0   13.49    1.26
  -4 -10  -1    0.29    0.40
  -4  10  -1    0.86    0.55
  -4 -10  -2    0.81    0.64
  -4  10  -2    1.48    0.65
  -4  10  -3    0.89    0.63
  -4  10  -4    1.40    0.63
   4  11  -6    0.76    0.67
   4  11  -5    6.25    1.00
  -4 -11   4    4.68    0.98
  -4 -11   3    1.92    0.58
  -4 -11   2    2.00    0.55
  -4 -11   1    5.61    0.64
  -4  11   1   12.62    1.18
  -4 -11   0    1.18    0.42
  -4  11   0    1.76    0.66
  -4 -11  -1    1.27    0.54
  -4  11  -1    2.31    0.75
  -4 -11  -2    0.76    0.66
  -4  11  -2   -0.30    0.48
  -4  11  -3    2.48    0.78
  -4  11  -4    0.53    0.64
   4  12  -6    1.25    0.78
   4  12  -5    0.61    0.55
  -4 -12   4    3.31    0.84
  -4 -12   3    5.31    0.92
  -4 -12   2    6.23    0.90
  -4 -12   1    1.47    0.37
  -4  12   1    3.51    0.84
  -4 -12   0    0.70    0.41
  -4  12   0    0.39    0.58
  -4 -12  -1    0.32    0.52
  -4  12  -1    0.29    0.55
  -4  12  -2    2.07    0.80
  -4  12  -3    1.45    0.65
  -4  12  -4    0.89    0.64
   4  13  -5    1.07    0.62
  -4 -13   4   11.06    1.48
  -4 -13   3    4.13    0.84
  -4 -13   2    0.19    0.37
  -4 -13   1    1.75    0.44
  -4 -13   0    0.46    0.37
  -4  13   0    1.65    0.68
  -4 -13  -1    4.10    0.82
  -4  13  -1    4.00    0.87
  -4  13  -2    3.07    0.80
  -4  13  -3    0.74    0.62
   4  14  -5    1.12    0.68
  -4 -14   4    0.98    0.57
  -4 -14   3    1.39    0.56
  -4 -14   2    2.39    0.63
  -4 -14   1    0.64    0.35
  -4 -14   0    1.61    0.51
  -4  14   0    2.69    0.71
  -4  14  -1    3.24    0.81
  -4  14  -2    4.47    0.91
  -4  14  -3    1.80    0.74
  -4 -15   4    2.00    0.73
  -4 -15   3    0.47    0.47
  -4 -15   2    1.07    0.51
  -4 -15   1    0.12    0.31
  -4 -15   0    0.98    0.50
  -4  15   0    1.25    0.61
  -4  15  -1    0.33    0.57
  -4  15  -2    4.28    0.96
  -4  15  -3    1.95    0.85
  -4 -16   3    1.31    0.61
  -4 -16   2    0.96    0.55
  -4 -16   1    2.34    0.61
  -4 -16   0    0.88    0.53
  -4  16  -1    0.55    0.64
  -4  16  -2    2.59    0.90
  -4 -17   3    0.81    0.57
  -4 -17   2    1.79    0.68
  -4 -17   1    0.55    0.48
  -4  17  -1    2.78    0.85
  -4  17  -2    1.23    0.69
  -4 -18   3    1.93    0.87
  -4 -18   2    0.43    0.59
  -4 -18   1    0.76    0.54
  -4 -19   2    1.73    0.79
  -5   0   5    0.31    0.84
  -5   0   4   -0.28    0.46
  -5   0   3    0.67    0.59
  -5   0   2    0.13    0.46
  -5   0   1    3.32    0.69
  -5   0   0    3.77    0.76
  -5   0  -1    0.37    0.48
  -5   0  -2    0.81    0.51
  -5   0  -3   11.35    1.43
  -5   0  -4    1.98    0.96
  -5  -1   5    0.33    0.73
  -5   1   5   -0.19    0.59
  -5  -1   4    0.24    0.68
  -5   1   4   -0.23    0.63
  -5  -1   3   -0.64    0.39
  -5   1   3    0.12    0.48
  -5  -1   2    0.92    0.50
  -5   1   2    0.82    0.52
  -5  -1   1    0.30    0.39
  -5   1   1    0.47    0.51
  -5  -1   0    4.05    0.68
  -5   1   0    4.48    0.83
  -5  -1  -1    7.31    0.96
  -5   1  -1    7.13    1.01
  -5  -1  -2   13.25    1.44
  -5   1  -2   11.21    1.30
  -5  -1  -3    1.20    0.60
  -5   1  -3    0.73    0.65
  -5  -1  -4    1.76    1.06
  -5   1  -4    0.34    0.74
  -5  -2   6    0.01    0.89
  -5  -2   5    0.70    0.81
  -5  -2   4    2.74    0.80
  -5   2   4    2.76    0.81
  -5  -2   3    1.39    0.59
  -5   2   3    0.99    0.66
  -5  -2   2    1.17    0.51
  -5   2   2    1.74    0.69
  -5  -2   1    0.67    0.52
  -5   2   1    0.02    0.44
  -5  -2   0    1.02    0.47
  -5   2   0    1.44    0.55
  -5  -2  -1    2.35    0.67
  -5   2  -1    3.32    0.80
  -5  -2  -2    9.38    1.24
  -5   2  -2    9.99    1.31
  -5  -2  -3    2.06    0.83
  -5   2  -3    2.52    0.86
  -5  -2  -4    0.91    0.79
  -5   2  -4    1.23    0.87
  -5  -3   6    0.03    0.81
  -5  -3   5    0.10    0.69
  -5  -3   4    4.18    0.91
  -5   3   4    4.13    1.03
  -5  -3   3    1.98    0.73
  -5   3   3    1.61    0.68
  -5  -3   2    0.62    0.46
  -5   3   2    1.17    0.59
  -5  -3   1    3.95    0.72
  -5   3   1    6.66    0.99
  -5  -3   0    2.37    0.55
  -5   3   0    3.76    0.86
  -5  -3  -1    7.83    0.96
  -5  -3  -2    0.21    0.50
  -5   3  -2    0.09    0.39
  -5  -3  -3    0.59    0.67
  -5   3  -3    1.88    0.87
  -5  -3  -4    2.29    1.04
  -5   3  -4    1.66    0.86
  -5  -4   6    1.24    1.01
  -5  -4   5    0.34    0.63
  -5  -4   4    6.64    1.19
  -5   4   4    8.56    1.24
  -5  -4   3   10.63    1.23
  -5   4   3   13.78    1.50
  -5  -4   2    0.51    0.42
  -5   4   2   -0.01    0.57
  -5  -4   1    1.16    0.43
  -5   4   1    1.74    0.63
  -5  -4   0    1.59    0.47
  -5   4   0    2.39    0.76
  -5  -4  -1    6.39    0.93
  -5   4  -1    8.49    1.14
  -5  -4  -2    0.98    0.63
  -5   4  -2    1.20    0.62
  -5  -4  -3    0.66    0.57
  -5   4  -3    0.21    0.61
  -5  -4  -4    0.85    0.90
  -5   4  -4    0.71    0.86
  -5  -5   6    0.91    0.85
  -5  -5   5    1.94    0.85
  -5  -5   4    5.37    1.04
  -5  -5   3    9.12    1.06
  -5   5   3   10.20    1.21
  -5  -5   2    5.75    0.83
  -5   5   2   10.00    1.31
  -5  -5   1    1.17    0.39
  -5   5   1    3.38    0.89
  -5  -5   0    1.72    0.49
  -5   5   0    3.19    0.82
  -5  -5  -1    2.05    0.52
  -5   5  -1    2.80    0.83
  -5  -5  -2   -0.31    0.35
  -5   5  -2    0.30    0.56
  -5  -5  -3    2.01    0.85
  -5   5  -3    2.99    0.83
  -5  -5  -4    1.47    0.97
  -5   5  -4    1.51    0.89
  -5  -6   6    1.48    0.96
  -5  -6   5    1.08    0.75
  -5  -6   4   -0.09    0.43
  -5  -6   3    5.68    0.94
  -5   6   3    6.93    1.09
  -5  -6   2    7.07    0.91
  -5   6   2    8.47    1.20
  -5  -6   1    1.19    0.43
  -5   6   1    2.37    0.83
  -5  -6   0    0.23    0.38
  -5   6   0    0.44    0.48
  -5  -6  -1    0.66    0.44
  -5   6  -1    0.82    0.55
  -5  -6  -2    0.05    0.47
  -5   6  -2   -0.09    0.60
  -5  -6  -3    1.73    0.87
  -5   6  -3    1.35    0.65
  -5   6  -4    0.90    0.73
  -5  -7   6    1.62    1.37
  -5  -7   5    1.09    0.70
  -5  -7   4    0.51    0.57
  -5  -7   3    8.23    1.08
  -5  -7   2    0.94    0.42
  -5   7   2    2.23    0.76
  -5  -7   1    0.48    0.32
  -5   7   1    0.96    0.63
  -5  -7   0    2.38    0.55
  -5   7   0    3.65    0.91
  -5  -7  -1   -0.25    0.39
  -5   7  -1   -0.14    0.53
  -5  -7  -2    1.24    0.62
  -5   7  -2    0.97    0.64
  -5  -7  -3    3.90    1.14
  -5   7  -3    4.49    1.10
  -5  -8   6    0.81    1.20
  -5  -8   5    0.21    0.65
  -5  -8   4    1.07    0.65
  -5  -8   3    0.81    0.48
  -5  -8   2    1.77    0.46
  -5   8   2    3.34    0.88
  -5  -8   1    0.02    0.23
  -5   8   1    0.60    0.59
  -5  -8   0    2.13    0.52
  -5   8   0    2.28    0.73
  -5  -8  -1    2.50    0.62
  -5   8  -1    4.60    1.06
  -5  -8  -2    0.50    0.49
  -5   8  -2    1.72    0.79
  -5  -8  -3   -0.17    0.66
  -5   8  -3    0.43    0.69
  -5  -9   5    0.10    0.77
  -5  -9   4    1.13    0.59
  -5  -9   3    0.19    0.37
  -5  -9   2    0.19    0.28
  -5   9   2    0.05    0.52
  -5  -9   1    0.19    0.27
  -5   9   1    0.08    0.50
  -5  -9   0    0.71    0.35
  -5   9   0    1.87    0.80
  -5  -9  -1    0.18    0.38
  -5   9  -1   -0.08    0.60
  -5  -9  -2    0.70    0.62
  -5   9  -2    1.16    0.66
  -5   9  -3    1.14    0.73
  -5 -10   5    0.66    0.98
  -5 -10   4    0.82    0.57
  -5 -10   3    1.47    0.49
  -5 -10   2    0.50    0.37
  -5 -10   1    0.14    0.30
  -5  10   1    0.89    0.63
  -5 -10   0    0.44    0.38
  -5  10   0    1.81    0.74
  -5 -10  -1    3.32    0.71
  -5  10  -1    5.05    1.10
  -5 -10  -2    2.54    0.83
  -5  10  -2    3.98    1.04
  -5  10  -3    0.50    0.69
  -5 -11   5    1.04    1.01
  -5 -11   4    0.15    0.51
  -5 -11   3    0.33    0.40
  -5 -11   2    0.24    0.34
  -5 -11   1   -0.07    0.32
  -5  11   1    1.16    0.77
  -5 -11   0    0.86    0.43
  -5  11   0    1.39    0.67
  -5 -11  -1    1.42    0.60
  -5  11  -1    2.37    0.88
  -5  11  -2    1.25    0.73
  -5 -12   4    0.94    0.75
  -5 -12   3    0.49    0.45
  -5 -12   2    0.04    0.34
  -5 -12   1    1.22    0.45
  -5  12   1    3.21    0.92
  -5 -12   0    1.21    0.50
  -5  12   0    1.90    0.82
  -5 -12  -1    1.27    0.65
  -5  12  -1    0.78    0.77
  -5  12  -2    0.89    0.74
  -5 -13   4    0.23    0.59
  -5 -13   3    0.45    0.44
  -5 -13   2    0.80    0.41
  -5 -13   1    0.59    0.39
  -5 -13   0    2.17    0.59
  -5  13   0    3.06    0.99
  -5 -13  -1    0.82    0.70
  -5  13  -1    1.76    0.86
  -5  13  -2    2.93    1.00
  -5 -14   3   -0.26    0.40
  -5 -14   2    0.43    0.41
  -5 -14   1    0.43    0.41
  -5 -14   0   -0.13    0.43
  -5  14   0    0.53    0.76
  -5  14  -1    2.58    0.89
  -5 -15   3    0.86    0.49
  -5 -15   2    1.21    0.52
  -5 -15   1    0.14    0.37
  -5 -15   0    0.09    0.43
  -5  15  -1    5.16    1.20
  -5 -16   2    0.26    0.48
  -5 -16   1    0.14    0.45
  -5 -16   0    0.36    0.54
  -6   0   5    1.12    0.87
  -6   0   4    0.42    0.75
  -6   0   3   -0.14    0.56
  -6   0   2    0.27    0.54
  -6   0   1   -0.57    0.40
  -6   0   0    0.20    0.48
  -6   0  -1    0.95    0.58
  -6   0  -2    0.03    0.50
  -6  -1   5   -0.24    0.91
  -6  -1   4    0.05    0.64
  -6   1   4   -0.26    0.77
  -6  -1   3    2.09    0.81
  -6   1   3    2.26    0.79
  -6  -1   2    1.98    0.67
  -6   1   2    2.62    0.80
  -6  -1   1    1.26    0.53
  -6   1   1    0.77    0.53
  -6  -1   0    1.35    0.60
  -6   1   0    2.05    0.71
  -6  -1  -1    2.23    0.71
  -6   1  -1    3.32    0.85
  -6  -1  -2    3.80    0.86
  -6   1  -2    3.71    0.99
  -6  -2   5    0.76    0.75
  -6  -2   4    1.41    0.81
  -6   2   4    0.81    0.75
  -6  -2   3    0.73    0.65
  -6   2   3    1.67    0.80
  -6  -2   2    2.55    0.71
  -6   2   2    2.85    0.79
  -6  -2   1    0.87    0.54
  -6   2   1    1.05    0.67
  -6  -2   0    0.24    0.40
  -6   2   0    0.68    0.61
  -6  -2  -1    1.77    0.63
  -6   2  -1    2.82    0.82
  -6  -2  -2    1.43    0.70
  -6   2  -2    2.14    0.73
  -6  -3   5    1.02    0.90
  -6  -3   4    0.00    0.63
  -6   3   4    0.56    0.86
  -6  -3   3   -0.29    0.45
  -6   3   3    0.69    0.77
  -6  -3   2   -0.58    0.45
  -6   3   2    0.27    0.59
  -6  -3   1    0.37    0.46
  -6   3   1    0.54    0.52
  -6  -3   0    0.33    0.39
  -6   3   0    0.25    0.61
  -6  -3  -1    0.41    0.44
  -6   3  -1    0.24    0.52
  -6  -3  -2    0.71    0.64
  -6   3  -2    0.06    0.49
  -6  -4   5    1.37    1.02
  -6  -4   4    1.29    0.69
  -6  -4   3    1.59    0.76
  -6   4   3    1.84    0.90
  -6  -4   2    0.27    0.48
  -6   4   2    1.10    0.84
  -6  -4   1   -0.27    0.32
  -6   4   1    0.44    0.70
  -6  -4   0    0.42    0.37
  -6   4   0    0.33    0.69
  -6  -4  -1    1.00    0.56
  -6   4  -1    1.00    0.71
  -6  -4  -2    1.85    0.77
  -6   4  -2    1.19    0.69
  -6  -5   5   -0.10    0.81
  -6  -5   4    1.09    0.74
  -6  -5   3    0.21    0.49
  -6   5   3   -0.17    0.70
  -6  -5   2    0.38    0.39
  -6   5   2    1.28    0.74
  -6  -5   1    0.48    0.39
  -6   5   1    1.18    0.76
  -6  -5   0    0.93    0.45
  -6   5   0    1.94    0.75
  -6  -5  -1    0.22    0.43
  -6   5  -1    0.37    0.52
  -6  -5  -2    2.98    0.85
  -6  -6   4   -0.06    0.72
  -6  -6   3    0.41    0.43
  -6   6   3    1.28    0.90
  -6  -6   2    0.38    0.38
  -6   6   2    0.77    0.84
  -6  -6   1    0.33    0.39
  -6   6   1    0.09    0.72
  -6  -6   0   -0.11    0.37
  -6   6   0    0.25    0.70
  -6  -6  -1    0.68    0.47
  -6   6  -1    1.44    0.80
  -6  -6  -2    2.11    0.89
  -6  -7   4   -0.10    0.62
  -6  -7   3    0.32    0.48
  -6  -7   2    0.11    0.35
  -6   7   2    0.37    0.84
  -6  -7   1    1.14    0.49
  -6   7   1    2.85    0.92
  -6  -7   0    1.47    0.52
  -6   7   0    3.09    0.91
  -6  -7  -1    1.56    0.61
  -6   7  -1    3.07    1.03
  -6  -7  -2    0.51    0.64
  -6  -8   3    0.17    0.52
  -6  -8   2   -0.12    0.32
  -6   8   2    1.24    0.81
  -6  -8   1    0.19    0.39
  -6   8   1    0.57    0.89
  -6  -8   0    0.77    0.44
  -6   8   0    1.29    0.90
  -6  -8  -1    2.06    0.67
  -6   8  -1    3.57    1.13
  -6  -9   3    0.50    0.60
  -6  -9   2   -0.09    0.34
  -6  -9   1   -0.05    0.30
  -6   9   1    0.05    0.61
  -6  -9   0    1.27    0.52
  -6   9   0    2.54    1.03
  -6  -9  -1    0.75    0.53
  -6 -10   2    0.48    0.35
  -6 -10   1    0.39    0.34
  -6  10   1    3.26    1.12
  -6 -10   0    1.62    0.56
  -6  10   0    3.92    1.18
  -6  11   1    3.47    1.24
  -6 -11   0    0.48    0.51
  -6  11   0    2.36    1.03
   0   0   1  129.73    1.51
   0   0   2   -0.01    0.13
   0   0   3  137.94    2.06
   0   0   4    3.58    0.38
   0   0   5   17.97    1.13
   0   1   0    0.02    0.04
   0   1   1   25.32    0.62
   0  -1   2   70.46    1.08
   0   1   2   75.02    1.41
   0  -1   3   64.05    1.29
   0   1   3   58.03    1.42
   0  -1   4    3.23    0.34
   0   1   4    3.98    0.46
   0   2   0  169.28    1.86
   0   2  -1  579.97    5.13
   0   2   2   40.12    1.10
   0  -2   3  172.09    2.11
   0   2   3  169.29    2.77
   0  -2   4   29.10    0.87
   0   2   4   29.85    1.25
   0   3   0    0.38    0.14
   0   3  -1  142.58    1.73
   0   3   1  152.71    2.21
   0   3   2   21.93    0.90
   0   3   3   36.73    1.31
   0   3   4   40.03    1.51
   0   4   0  276.93    3.16
   0   4  -1   47.08    1.07
   0   4   1   45.40    1.29
   0   4  -2    3.33    0.26
   0   4   2    4.76    0.49
   0   4   3   43.74    1.54
   0   4   4   19.25    1.12
   0   4   5   13.90    1.00
   0   5   0    0.09    0.22
   0   5  -1  254.82    3.06
   0   5   1  252.98    3.47
   0   5  -2   66.84    1.36
   0   5   2   63.83    1.83
   0   5   3   66.03    2.04
   0   5   4   10.40    0.87
   0   5   5    3.41    0.58
   0   6   0  453.93    4.80
   0   6  -1   13.91    0.73
   0   6   1   14.74    0.86
   0   6  -2   18.27    0.81
   0   6   2   15.85    0.96
   0   6   3   11.24    0.89
   0   6   4    2.34    0.49
   0   6   5   95.65    2.91
   0   7   0    0.11    0.19
   0   7  -1  100.90    2.17
   0   7   1   99.85    2.40
   0   7  -2  168.17    2.79
   0   7   2  157.54    3.27
   0   7  -3    8.00    0.61
   0   7   3    6.10    0.70
   0   7   4    4.94    0.69
   0   7   5   13.23    1.18
   0   8   0   37.88    1.36
   0   8  -1    5.89    0.58
   0   8   1    5.20    0.58
   0   8  -2  111.13    2.47
   0   8   2  104.98    2.80
   0   8  -3   11.22    0.79
   0   8   3    8.53    0.86
   0   8   4    1.37    0.48
   0   8   5   52.38    2.32
   0   9   0    0.09    0.19
   0   9  -1    9.70    0.77
   0   9   1    8.37    0.78
   0   9  -2  132.36    2.87
   0   9   2  117.45    3.04
   0   9  -3   22.37    1.15
   0   9   3   20.17    1.37
   0   9   4    5.11    0.79
   0   9   5   24.11    1.62
   0  10   0  122.01    2.88
   0  10  -1   46.62    1.76
   0  10   1   45.65    1.91
   0  10  -2   22.99    1.23
   0  10   2   21.21    1.34
   0  10  -3    6.49    0.75
   0  10   3    5.02    0.75
   0  10   4   45.40    2.19
   0  10   5    3.49    0.77
   0  11   0    0.26    0.27
   0  11  -1   34.83    1.61
   0  11   1   32.13    1.59
   0  11  -2   28.18    1.43
   0  11   2   24.34    1.53
   0  11  -3    5.14    0.71
   0  11   3    3.63    0.73
   0  11   4   16.44    1.41
   0  11   5   11.31    1.30
   0  12   0  139.89    3.56
   0  12  -1   23.05    1.37
   0  12   1   17.63    1.20
   0  12  -2    2.40    0.47
   0  12   2    2.95    0.65
   0  12   3    1.57    0.58
   0  12   4    6.84    1.05
   0  12   5    0.52    0.54
   0  12   6    1.11    0.66
   0  13   0    0.69    0.39
   0  13  -1   10.42    0.96
   0  13   1    8.93    0.92
   0  13  -2    8.41    0.87
   0  13   2    6.52    0.84
   0  13   3   11.10    1.19
   0  13   4    7.48    1.06
   0  13   5    0.55    0.53
   0  13   6    0.37    0.65
   0  14   0  118.10    3.25
   0  14  -1   11.24    1.04
   0  14   1    8.70    0.96
   0  14  -2   11.37    1.05
   0  14   2    8.38    0.99
   0  14   3    2.18    0.64
   0  14   4    1.33    0.59
   0  14   5    5.10    0.94
   0  14   6    2.36    0.87
   0  15   0    0.60    0.38
   0  15  -1    0.99    0.47
   0  15   1    1.23    0.48
   0  15  -2    3.33    0.63
   0  15   2    2.08    0.61
   0  15   3    6.09    0.96
   0  15   4    1.95    0.65
   0  15   5    3.32    0.87
   0  15   6    1.12    0.81
   0  16   0   18.82    1.46
   0  16  -1   13.80    1.26
   0  16   1   15.35    1.42
   0  16  -2    3.24    0.66
   0  16   2    2.34    0.65
   0  16   3    6.82    1.08
   0  16   4    0.53    0.58
   0  16   5    1.70    0.81
   0  16   6    0.54    0.81
   0  17   0    0.25    0.36
   0  17  -1    0.96    0.47
   0  17   1    0.82    0.45
   0  17  -2    0.83    0.51
   0  17   2    1.12    0.59
   0  17   3    0.63    0.62
   0  17   4    0.29    0.57
   0  17   5    0.80    0.78
   0  17   6    1.24    0.95
   0  18   0    2.30    0.61
   0  18  -1    2.30    0.64
   0  18   1    2.11    0.61
   0  18  -2    0.96    0.56
   0  18   2    0.93    0.54
   0  18   3    2.32    0.81
   0  18   4    1.05    0.70
   0  18   5    1.40    0.85
   0  19   0    0.09    0.41
   0  19  -1    1.94    0.58
   0  19   1    1.70    0.63
   0  19   2    2.34    0.68
   0  19   3    0.36    0.59
   0  19   4    0.99    0.74
   0  19   5    0.30    0.71
   0  20   0    3.12    0.77
   0  20  -1    1.26    0.61
   0  20   1    0.90    0.54
   0  20   2    0.90    0.60
   0  20   3    0.08    0.53
   0  20   4    1.77    0.80
   0  21   0    0.48    0.44
   0  21  -1    1.94    0.63
   0  21   1    1.17    0.58
   0  21   2    0.76    0.60
   0  21   3    0.02    0.63
   0  22   0    2.54    0.76
   0  22  -1    3.38    0.76
   0  22   1    2.14    0.75
   0  22   2    1.68    0.78
   0  23   0    0.95    0.64
   0  23  -1    0.67    0.58
   0  23   1    0.22    0.60
  -1   0   5    0.17    0.29
  -1   0   4   59.93    1.83
   1   0   1  134.41    1.62
   1   0   2   27.94    0.70
   1   0   3   25.12    0.72
  -1  -1   5    9.23    0.84
  -1   1   5    7.59    0.76
  -1  -1   4  135.24    2.79
  -1   1   4  131.80    2.86
  -1   1   3   22.33    1.01
   1   1   0   58.22    1.05
   1   1   1  266.82    2.74
   1   1   2   46.75    1.06
   1  -1   3   20.45    0.52
   1   1   3   20.16    0.77
  -1   2   5   11.00    0.93
  -1   2   4   23.13    1.22
  -1   2   3   69.94    1.91
  -1   2   2   61.69    1.54
   1   2   0  140.48    1.98
   1   2   1  217.76    2.65
   1   2   2   29.05    0.93
   1   2   3   15.21    0.75
   1   2   4    3.22    0.42
  -1   3   5   12.90    1.01
  -1   3   4   26.77    1.39
  -1   3   3   45.15    1.56
  -1   3   2   90.92    2.06
  -1   3   1  121.84    2.08
   1   3  -1  102.17    1.69
  -1   3   0 1071.18    7.73
   1   3   0 1077.45    7.93
  -1   3  -1   39.50    0.80
   1   3   1   41.79    1.16
   1   3   2  151.96    2.45
   1   3   3   34.84    1.20
   1   3   4   39.15    1.37
  -1   4   5   12.59    1.06
  -1   4   4   20.72    1.22
  -1   4   3   26.44    1.29
  -1   4   2   58.27    1.70
   1   4  -2   53.13    1.40
  -1   4   1   44.99    1.33
   1   4  -1   45.55    1.28
  -1   4   0  281.65    3.26
   1   4   0  279.71    3.45
  -1   4  -1  307.13    3.05
   1   4   1  301.68    3.67
  -1   4  -2   29.31    0.63
   1   4   2   22.92    0.99
   1   4   3   38.02    1.38
   1   4   4    2.27    0.42
  -1   5   5    4.28    0.63
  -1   5   4    9.76    0.87
  -1   5   3    4.26    0.55
  -1   5   2    2.87    0.43
   1   5  -2    2.96    0.37
  -1   5   1   99.48    2.16
   1   5  -1   94.91    2.00
  -1   5   0   98.25    1.89
   1   5   0   93.99    2.01
  -1   5  -1  316.48    3.32
   1   5   1  320.48    4.13
  -1   5  -2   52.44    1.08
   1   5   2   39.32    1.39
   1   5   3   11.53    0.80
   1   5   4   35.14    1.47
  -1   6   6   18.35    1.46
  -1   6   5   10.22    1.01
  -1   6   4    1.69    0.43
  -1   6   3   33.15    1.54
  -1   6   2   63.48    1.93
   1   6  -2   67.61    1.84
  -1   6   1   32.65    1.26
   1   6  -1   32.07    1.25
  -1   6   0  149.04    2.48
   1   6   0  141.46    2.61
  -1   6  -1  347.82    3.75
   1   6   1  349.39    4.52
  -1   6  -2  199.25    2.50
   1   6   2  170.93    3.22
   1   6   3   25.80    1.22
   1   6   4   21.36    1.19
  -1   7   6    1.26    0.57
  -1   7   5    0.93    0.48
  -1   7   4   10.63    1.00
  -1   7   3    2.83    0.49
   1   7  -3    2.86    0.45
  -1   7   2   51.86    1.83
   1   7  -2   63.27    1.99
  -1   7   1   22.32    1.09
   1   7  -1   21.09    1.04
  -1   7   0   45.25    1.42
   1   7   0   42.96    1.47
  -1   7  -1  380.78    4.30
   1   7   1  379.11    5.05
  -1   7  -2   69.51    1.52
   1   7   2   61.55    2.00
   1   7   3    7.13    0.72
   1   7   4   14.70    1.04
  -1   8   6   22.32    1.74
  -1   8   5   13.47    1.25
  -1   8   4    6.37    0.83
  -1   8   3   15.82    1.15
   1   8  -3   17.99    1.13
  -1   8   2   66.84    2.22
   1   8  -2   69.57    2.04
  -1   8   1   17.46    1.04
   1   8  -1   16.69    1.01
  -1   8   0   16.16    0.92
   1   8   0   13.86    0.91
  -1   8  -1  108.25    2.27
   1   8   1  109.15    2.72
  -1   8  -2  101.92    2.10
   1   8   2   92.65    2.60
   1   8   3   37.39    1.66
   1   8   4    5.02    0.69
   1   8   5    7.65    0.87
  -1   9   6    1.27    0.65
  -1   9   5   16.79    1.52
  -1   9   4    4.30    0.75
  -1   9   3    8.66    0.93
   1   9  -3   11.51    0.98
  -1   9   2   16.26    1.17
   1   9  -2   19.62    1.22
  -1   9   1    5.64    0.63
   1   9  -1    5.21    0.60
  -1   9   0    5.62    0.60
   1   9   0    4.39    0.58
  -1   9  -1   42.47    1.51
   1   9   1   41.98    1.74
  -1   9  -2   50.79    1.59
   1   9   2   44.27    1.88
   1   9   3    1.29    0.40
   1   9   4   25.96    1.53
   1   9   5    9.94    1.06
  -1  10   6    4.38    0.93
  -1  10   5    6.82    1.00
  -1  10   4   17.27    1.48
  -1  10   3   57.36    2.47
   1  10  -3   68.85    2.54
  -1  10   2    3.75    0.61
   1  10  -2    4.33    0.63
  -1  10   1   35.66    1.69
   1  10  -1   40.55    1.75
  -1  10   0    3.70    0.53
   1  10   0    3.70    0.58
  -1  10  -1   90.29    2.31
   1  10   1   92.58    2.71
  -1  10  -2   11.96    0.86
   1  10   2    9.30    0.92
   1  10   3    5.02    0.77
   1  10   4    1.75    0.53
   1  10   5    0.22    0.49
  -1  11   6    6.55    1.14
  -1  11   5   16.99    1.59
  -1  11   4    3.42    0.77
  -1  11   3   16.67    1.38
   1  11  -3   22.71    1.55
  -1  11   2    2.80    0.58
   1  11  -2    2.93    0.58
  -1  11   1   19.73    1.30
   1  11  -1   21.60    1.34
  -1  11   0   31.32    1.51
   1  11   0   31.41    1.61
  -1  11  -1    4.75    0.59
   1  11   1    3.89    0.62
  -1  11  -2    6.09    0.70
   1  11   2    5.05    0.75
   1  11   3    7.88    0.93
   1  11   4   22.97    1.58
   1  11   5    4.35    0.80
  -1  12   6    0.78    0.63
  -1  12   5   14.36    1.49
  -1  12   4    3.86    0.82
  -1  12   3   14.82    1.37
   1  12  -3   19.60    1.49
  -1  12   2    1.25    0.46
   1  12  -2    0.77    0.44
  -1  12   1    3.58    0.61
   1  12  -1    2.81    0.53
  -1  12   0    1.99    0.46
   1  12   0    2.19    0.53
  -1  12  -1   13.79    1.04
   1  12   1   14.52    1.20
  -1  12  -2    0.92    0.32
   1  12   2    1.24    0.49
   1  12   3   13.22    1.24
   1  12   4    2.36    0.67
   1  12   5    1.03    0.59
  -1  13   6    3.94    0.99
  -1  13   5    0.71    0.63
  -1  13   4   33.32    2.16
  -1  13   3    5.85    0.93
   1  13  -3    8.51    1.00
  -1  13   2    1.90    0.55
   1  13  -2    1.47    0.50
  -1  13   1    5.52    0.78
   1  13  -1    6.15    0.79
  -1  13   0    1.92    0.47
   1  13   0    2.32    0.56
  -1  13  -1    7.83    0.77
   1  13   1    7.37    0.90
  -1  13  -2    1.19    0.41
   1  13   2    0.62    0.47
   1  13   3   17.99    1.50
   1  13   4   22.08    1.73
   1  13   5    2.92    0.80
  -1  14   6    2.11    0.89
  -1  14   5    0.70    0.61
  -1  14   4   35.94    2.33
  -1  14   3   12.06    1.34
   1  14  -3   12.43    1.25
  -1  14   2   12.01    1.21
   1  14  -2   13.29    1.21
  -1  14   1   30.31    1.80
   1  14  -1   29.27    1.74
  -1  14   0    1.81    0.48
   1  14   0    2.11    0.56
  -1  14  -1    1.65    0.41
   1  14   1    1.38    0.49
  -1  14  -2    0.68    0.39
   1  14   2    0.41    0.44
   1  14   3    4.62    0.83
   1  14   4    2.72    0.73
   1  14   5    0.23    0.59
  -1  15   6    0.89    0.70
  -1  15   5    0.52    0.65
  -1  15   4    0.64    0.59
  -1  15   3   15.27    1.52
   1  15  -3   17.62    1.57
  -1  15   2    2.83    0.68
   1  15  -2    2.07    0.61
  -1  15   1    5.54    0.82
   1  15  -1    6.16    0.85
  -1  15   0   13.95    1.21
   1  15   0   13.40    1.24
  -1  15  -1    9.93    0.98
   1  15   1   10.48    1.12
   1  15   2   14.00    1.36
   1  15   3    0.73    0.55
   1  15   4    1.03    0.63
   1  15   5    1.23    0.66
  -1  16   6    1.17    0.82
  -1  16   5    0.57    0.65
  -1  16   4    0.36    0.59
  -1  16   3    9.42    1.27
   1  16  -3   15.05    1.60
  -1  16   2    2.84    0.69
   1  16  -2    4.24    0.78
  -1  16   1    6.32    0.91
   1  16  -1    6.23    0.90
  -1  16   0   11.27    1.06
   1  16   0   10.35    1.12
  -1  16  -1    5.55    0.78
   1  16   1    6.29    0.92
   1  16   2    5.45    0.95
   1  16   3    2.19    0.69
   1  16   4    0.21    0.53
   1  16   5    0.50    0.63
  -1  17   6    0.39    0.78
  -1  17   5    0.44    0.67
  -1  17   4    1.20    0.70
  -1  17   3    2.67    0.78
  -1  17   2    4.66    0.85
   1  17  -2    4.77    0.85
  -1  17   1   11.80    1.27
   1  17  -1   11.16    1.21
  -1  17   0   27.00    1.69
   1  17   0   27.19    1.81
  -1  17  -1    7.57    0.97
   1  17   1    6.66    0.98
   1  17   2    4.00    0.85
   1  17   3    1.38    0.67
   1  17   4    2.71    0.83
   1  17   5    0.31    0.76
  -1  18   5    1.12    0.81
  -1  18   4    0.24    0.63
  -1  18   3    0.85    0.57
  -1  18   2    2.28    0.68
   1  18  -2    3.38    0.81
  -1  18   1    3.02    0.68
   1  18  -1    3.42    0.75
  -1  18   0    1.13    0.50
   1  18   0    1.93    0.54
  -1  18  -1    0.45    0.36
   1  18   1    1.06    0.50
   1  18   2    1.04    0.57
   1  18   3    2.15    0.79
   1  18   4    2.64    0.91
   1  18   5    0.25    0.73
  -1  19   5    0.40    0.68
  -1  19   4    0.16    0.58
  -1  19   3    0.44    0.52
  -1  19   2    1.10    0.54
   1  19  -2    2.50    0.74
  -1  19   1   13.79    1.35
   1  19  -1   14.67    1.47
  -1  19   0    0.50    0.42
   1  19   0    0.75    0.40
  -1  19  -1    6.08    0.95
   1  19   1    6.36    1.02
   1  19   2    0.71    0.58
   1  19   3    0.12    0.57
   1  19   4    0.04    0.71
  -1  20   4    1.04    0.73
  -1  20   3    0.86    0.62
  -1  20   2    2.46    0.69
   1  20  -2    3.41    0.94
  -1  20   1    3.32    0.80
   1  20  -1    3.27    0.77
  -1  20   0    0.13    0.41
   1  20   0    0.31    0.46
  -1  20  -1    0.29    0.48
   1  20   1    0.69    0.50
   1  20   2    1.06    0.59
   1  20   3    0.76    0.65
   1  20   4    0.72    0.73
  -1  21   3    0.24    0.60
  -1  21   2    0.64    0.57
   1  21  -2    0.68    0.67
  -1  21   1    2.11    0.74
   1  21  -1    1.53    0.62
  -1  21   0    0.13    0.37
   1  21   0   -0.12    0.50
   1  21   1    1.28    0.57
   1  21   2    0.33    0.57
   1  21   3   -0.23    0.57
  -1  22   2    0.96    0.66
   1  22  -2    1.40    0.86
  -1  22   1    1.19    0.62
   1  22  -1    1.16    0.72
  -1  22   0    0.31    0.53
   1  22   0    0.42    0.56
   1  22   1    0.36    0.53
   1  22   2    0.54    0.62
  -1  23   1    0.89    0.64
   1  23  -1    1.08    0.72
  -1  23   0    0.48    0.51
   1  23   0    0.92    0.61
   1  23   1    0.83    0.59
  -2   0   5    2.53    0.58
  -2   1   6    1.76    0.58
  -2   1   5    1.33    0.42
   2   1   1    9.87    0.63
   2   1   2    4.51    0.46
   2   1   3   38.56    1.28
  -2   2   6    2.39    0.69
  -2   2   5    2.69    0.57
  -2   2   4    4.42    0.62
   2   2   0   83.67    1.86
   2   2   1   82.13    1.89
   2   2   2   46.38    1.44
   2   2   3   15.37    0.90
  -2   3   6    1.04    0.52
  -2   3   5    7.82    0.88
  -2   3   4   54.65    2.07
  -2   3   3   38.28    1.61
   2   3   0    1.70    0.31
   2   3   1   33.58    1.23
   2   3   2   13.66    0.78
   2   3   3    9.39    0.72
  -2   4   6    1.83    0.61
  -2   4   5    1.02    0.44
  -2   4   4   18.27    1.27
  -2   4   3    3.76    0.51
  -2   4   2   38.47    1.53
  -2   4   1   56.16    1.65
   2   4  -1   53.91    1.61
   2   4   0   50.04    1.59
   2   4   1   50.91    1.54
  -2   4  -2   16.53    0.71
   2   4   2   14.72    0.88
   2   4   3   12.64    0.89
  -2   5   6   15.12    1.44
  -2   5   5   14.15    1.29
  -2   5   4    4.19    0.65
  -2   5   3    9.16    0.85
  -2   5   2   27.29    1.26
  -2   5   1   90.90    2.17
   2   5  -1   87.60    2.21
  -2   5   0   22.58    0.99
   2   5   0   22.62    1.14
  -2   5  -1   24.92    0.99
   2   5   1   22.75    1.13
  -2   5  -2   30.48    0.96
   2   5   2   28.51    1.34
   2   5   3    1.69    0.37
  -2   6   6    0.19    0.43
  -2   6   5    8.61    1.01
  -2   6   4    5.22    0.72
  -2   6   3   25.06    1.39
  -2   6   2   20.04    1.08
   2   6  -2   23.31    1.20
  -2   6   1    1.81    0.36
   2   6  -1    1.92    0.38
  -2   6   0    9.26    0.72
   2   6   0    7.88    0.66
  -2   6  -1  114.30    2.24
   2   6   1  109.97    2.62
  -2   6  -2   11.66    0.61
   2   6   2   11.67    0.88
   2   6   3   19.02    1.14
   2   6   4   20.75    1.21
  -2   7   6   16.34    1.54
  -2   7   5    0.71    0.41
  -2   7   4    8.69    0.94
  -2   7   3   10.57    0.97
  -2   7   2   54.71    1.98
   2   7  -2   59.49    2.08
  -2   7   1   22.58    1.20
  -2   7   0   14.40    0.89
   2   7   0   11.89    0.89
  -2   7  -1   64.51    1.73
   2   7   1   64.42    2.13
  -2   7  -2   34.23    1.07
   2   7   2   33.90    1.56
   2   7   3    0.54    0.32
   2   7   4    6.98    0.79
  -2   8   6    3.93    0.83
  -2   8   5    8.67    1.06
  -2   8   4    2.06    0.53
  -2   8   3   -0.23    0.27
   2   8  -3    0.43    0.31
  -2   8   2   17.98    1.19
   2   8  -2   18.94    1.21
  -2   8   1    3.40    0.51
   2   8  -1    2.67    0.44
  -2   8   0   29.88    1.34
   2   8   0   26.73    1.38
  -2   8  -1   69.30    1.86
   2   8   1   68.00    2.24
  -2   8  -2   12.49    0.73
   2   8   2   10.76    0.90
   2   8   3    1.91    0.46
   2   8   4   16.75    1.22
  -2   9   6   11.03    1.33
  -2   9   5    1.02    0.49
  -2   9   4    1.74    0.52
  -2   9   3    7.84    0.88
   2   9  -3    9.92    0.99
  -2   9   2    1.33    0.38
   2   9  -2    1.48    0.42
  -2   9   1   37.45    1.65
   2   9  -1   36.81    1.63
  -2   9   0    8.70    0.75
   2   9   0    8.88    0.88
  -2   9  -1   78.32    2.09
   2   9   1   76.93    2.53
   2   9   2    5.92    0.75
   2   9   3    0.82    0.38
   2   9   4   12.83    1.12
  -2  10   7    0.80    0.76
  -2  10   6    1.43    0.67
  -2  10   5    3.26    0.76
  -2  10   4    9.04    1.04
  -2  10   3    2.46    0.57
   2  10  -3    2.91    0.60
  -2  10   2    5.22    0.72
   2  10  -2    6.83    0.83
  -2  10   1   19.42    1.26
   2  10  -1   21.20    1.38
  -2  10   0   30.08    1.41
   2  10   0   24.98    1.48
  -2  10  -1   12.66    0.90
   2  10   1   11.27    1.00
   2  10   2   25.25    1.52
   2  10   3   12.49    1.11
   2  10   4    7.99    0.93
  -2  11   7    2.15    0.93
  -2  11   6    0.73    0.62
  -2  11   5    2.40    0.68
  -2  11   4    3.88    0.76
  -2  11   3    2.41    0.59
   2  11  -3    3.67    0.77
  -2  11   2    1.56    0.44
   2  11  -2    1.74    0.53
  -2  11   1   10.35    0.96
   2  11  -1   11.85    1.07
  -2  11   0   12.15    0.96
   2  11   0   11.20    0.99
  -2  11  -1   13.84    1.00
   2  11   1   12.93    1.09
   2  11   2   26.02    1.60
   2  11   3    5.88    0.83
   2  11   4    0.68    0.48
  -2  12   7    0.95    0.83
  -2  12   6    1.07    0.72
  -2  12   5    8.32    1.16
  -2  12   4   12.19    1.33
   2  12  -4   19.01    1.83
  -2  12   3    6.66    0.92
   2  12  -3    7.93    1.03
  -2  12   2    1.46    0.47
   2  12  -2    1.27    0.46
  -2  12   1    3.79    0.64
   2  12  -1    3.30    0.62
  -2  12   0    8.79    0.85
   2  12   0    7.65    0.85
  -2  12  -1    2.68    0.49
   2  12   1    3.09    0.60
   2  12   2    5.20    0.79
   2  12   3    1.15    0.55
   2  12   4    1.11    0.52
  -2  13   7    0.09    0.84
  -2  13   6    1.10    0.73
  -2  13   5    2.99    0.83
  -2  13   4    1.87    0.66
   2  13  -4    3.40    0.89
  -2  13   3    4.94    0.84
   2  13  -3    6.61    1.02
  -2  13   2    2.36    0.58
   2  13  -2    2.33    0.58
  -2  13   1   15.38    1.24
   2  13  -1   15.61    1.31
  -2  13   0   11.67    1.05
   2  13   0   11.50    1.09
  -2  13  -1    5.35    0.68
   2  13   1    4.59    0.76
   2  13   2    4.76    0.82
   2  13   3   17.56    1.43
   2  13   4    0.73    0.53
  -2  14   6    2.67    0.90
  -2  14   5    3.53    0.92
  -2  14   4    1.31    0.61
  -2  14   3    2.43    0.63
   2  14  -3    3.92    0.86
  -2  14   2    3.09    0.66
   2  14  -2    2.32    0.58
  -2  14   1   17.13    1.42
   2  14  -1   15.89    1.39
  -2  14   0   31.93    1.79
   2  14   0   31.57    1.91
  -2  14  -1    6.56    0.79
   2  14   1    7.13    0.94
   2  14   2    1.90    0.61
   2  14   3    5.84    0.92
   2  14   4    0.30    0.49
   2  14   5    0.21    0.54
  -2  15   6    0.67    0.73
  -2  15   5    0.63    0.64
  -2  15   4    4.04    0.92
  -2  15   3    2.32    0.70
   2  15  -3    2.96    0.81
  -2  15   2    4.41    0.82
   2  15  -2    5.19    0.87
  -2  15   1   31.31    1.95
   2  15  -1   33.56    2.08
  -2  15   0    2.70    0.62
   2  15   0    2.18    0.59
  -2  15  -1    1.65    0.56
   2  15   1    1.82    0.59
   2  15   2    5.87    0.92
   2  15   3    4.10    0.83
   2  15   4    1.15    0.59
   2  15   5    1.14    0.72
  -2  16   6    0.77    0.82
  -2  16   5    0.34    0.63
  -2  16   4    6.13    1.13
  -2  16   3    0.48    0.48
   2  16  -3    0.37    0.51
  -2  16   2    1.97    0.63
   2  16  -2    3.09    0.76
  -2  16   1   18.35    1.52
   2  16  -1   18.67    1.65
  -2  16   0    3.37    0.66
   2  16   0    3.03    0.67
  -2  16  -1    0.84    0.44
   2  16   1    0.89    0.51
   2  16   2    2.15    0.64
   2  16   3    0.30    0.53
   2  16   4    0.38    0.65
   2  16   5    0.83    0.73
  -2  17   5    0.85    0.78
  -2  17   4    8.18    1.27
  -2  17   3    3.59    0.84
   2  17  -3    4.31    1.00
  -2  17   2   10.81    1.28
   2  17  -2   11.40    1.37
  -2  17   1    5.47    0.92
   2  17  -1    5.34    0.95
  -2  17   0    4.93    0.83
   2  17   0    5.31    0.89
   2  17   1    0.47    0.48
   2  17   2    0.74    0.56
   2  17   3    0.14    0.58
   2  17   4    0.48    0.64
   2  17   5    1.08    0.72
  -2  18   5    1.34    0.82
  -2  18   4    0.31    0.65
  -2  18   3    6.88    1.15
   2  18  -3    9.51    1.45
  -2  18   2    0.60    0.47
   2  18  -2    0.82    0.62
  -2  18   1    7.44    1.10
   2  18  -1    6.49    1.07
  -2  18   0    1.06    0.49
   2  18   0    1.50    0.55
   2  18   1    1.65    0.57
   2  18   2    1.24    0.62
   2  18   3    1.05    0.63
   2  18   4    1.38    0.73
  -2  19   4    0.67    0.81
  -2  19   3    2.42    0.86
   2  19  -3    3.45    1.01
  -2  19   2    2.37    0.78
   2  19  -2    3.15    0.88
  -2  19   1    1.75    0.65
   2  19  -1    2.21    0.74
  -2  19   0    3.57    0.78
   2  19   0    3.89    0.81
   2  19   1    0.51    0.41
   2  19   2    1.30    0.66
   2  19   3    2.24    0.78
   2  19   4    1.69    0.77
  -2  20   3    0.14    0.65
  -2  20   2    3.49    0.83
   2  20  -2    4.27    1.06
  -2  20   1    3.08    0.75
   2  20  -1    3.03    0.77
  -2  20   0    1.73    0.64
   2  20   0    1.71    0.59
   2  20   1    1.02    0.58
   2  20   2    0.30    0.59
   2  20   3    0.10    0.58
  -2  21   3    0.49    0.69
  -2  21   2    3.01    0.82
   2  21  -2    2.81    0.91
  -2  21   1    1.54    0.61
   2  21  -1    1.17    0.69
  -2  21   0    0.38    0.52
   2  21   0    0.15    0.48
   2  21   1    0.72    0.60
   2  21   2    0.32    0.60
  -2  22   2    0.94    0.64
   2  22  -2    0.64    0.69
  -2  22   1    0.24    0.59
   2  22  -1    0.34    0.60
  -2  22   0    0.11    0.59
   2  22   0    0.23    0.57
  -3   0   6    3.39    0.89
  -3   1   6    1.12    0.60
  -3   2   6    5.62    0.94
  -3   2   5   22.19    1.70
  -3   3   6    1.71    0.68
  -3   3   5    4.80    0.79
  -3   3   4    7.07    0.83
   3   3   1    0.82    0.30
   3   3   2    4.47    0.61
  -3   4   6    2.27    0.70
  -3   4   5    1.70    0.52
  -3   4   4   12.16    1.08
  -3   4   3   20.58    1.28
   3   4   0   17.29    1.11
   3   4   1   17.87    1.14
   3   4   2   27.69    1.49
   3   4   3    0.45    0.34
  -3   5   7    3.52    1.02
  -3   5   6    1.90    0.70
  -3   5   5    9.11    1.09
  -3   5   4    5.55    0.74
  -3   5   3    1.25    0.41
  -3   5   2   18.71    1.20
   3   5   0    4.42    0.60
   3   5   1    3.07    0.52
   3   5   2    4.01    0.60
   3   5   3    1.53    0.43
  -3   6   7    1.70    0.86
  -3   6   6    1.81    0.68
  -3   6   5   10.37    1.12
  -3   6   4    7.32    0.92
  -3   6   3   14.55    1.10
  -3   6   2   15.09    1.06
  -3   6   1    3.62    0.54
   3   6  -1    2.85    0.51
  -3   6   0   45.80    1.85
   3   6   0   40.39    1.78
  -3   6  -1   44.98    1.67
   3   6   1   41.38    1.86
   3   6   2   15.60    1.16
   3   6   3   10.46    1.01
  -3   7   7    2.57    0.93
  -3   7   6    0.38    0.56
  -3   7   5    1.85    0.63
  -3   7   4    2.72    0.55
  -3   7   3   14.26    1.20
  -3   7   2    0.09    0.29
  -3   7   1    1.59    0.37
   3   7  -1    1.51    0.44
  -3   7   0   11.96    0.91
   3   7   0   10.57    0.94
  -3   7  -1   33.44    1.54
   3   7   1   24.82    1.45
   3   7   2   20.02    1.39
   3   7   3    2.37    0.51
  -3   8   7    1.46    0.81
  -3   8   6    5.90    1.04
  -3   8   5    1.10    0.52
  -3   8   4    1.22    0.46
  -3   8   3    0.50    0.36
  -3   8   2    1.29    0.37
   3   8  -2    1.46    0.46
  -3   8   1    3.21    0.51
   3   8  -1    3.51    0.61
  -3   8   0   63.65    2.09
   3   8   0   57.98    2.31
  -3   8  -1   42.26    1.73
   3   8   1   34.92    1.85
   3   8   2    6.59    0.77
   3   8   3    1.52    0.50
  -3   9   7    2.04    0.81
  -3   9   6    2.35    0.74
  -3   9   5    1.20    0.57
  -3   9   4    5.52    0.87
  -3   9   3    4.26    0.73
  -3   9   2    7.66    0.87
   3   9  -2    7.55    0.91
  -3   9   1    3.61    0.61
   3   9  -1    3.86    0.63
  -3   9   0    4.93    0.67
   3   9   0    3.80    0.66
  -3   9  -1    3.84    0.58
   3   9   1    3.03    0.57
   3   9   2    9.96    1.02
   3   9   3    2.03    0.56
  -3  10   7    1.05    0.80
  -3  10   6    1.73    0.72
  -3  10   5    0.48    0.45
  -3  10   4    2.74    0.66
  -3  10   3    2.90    0.62
  -3  10   2    0.54    0.37
   3  10  -2    0.25    0.38
  -3  10   1    2.44    0.54
   3  10  -1    3.17    0.65
  -3  10   0   12.87    1.07
   3  10   0   16.05    1.34
  -3  10  -1   45.49    1.82
   3  10   1   37.65    1.87
   3  10   2   14.39    1.28
   3  10   3   12.17    1.18
  -3  11   7    0.46    0.79
  -3  11   6    1.02    0.61
  -3  11   5    0.72    0.52
  -3  11   4    3.01    0.68
  -3  11   3    2.71    0.60
   3  11  -3    3.67    0.80
  -3  11   2    9.07    1.02
   3  11  -2   11.11    1.21
  -3  11   1    3.88    0.67
   3  11  -1    3.33    0.64
  -3  11   0   14.99    1.16
   3  11   0   13.47    1.25
  -3  11  -1   30.10    1.52
   3  11   1   25.65    1.65
   3  11   2    3.75    0.72
   3  11   3    3.83    0.75
   3  11   4    2.03    0.63
  -3  12   7    0.52    0.87
  -3  12   6    0.60    0.62
  -3  12   5    2.50    0.75
  -3  12   4    0.43    0.45
  -3  12   3    1.81    0.54
   3  12  -3    2.76    0.70
  -3  12   2    0.53    0.36
   3  12  -2    0.44    0.45
  -3  12   1   19.65    1.46
   3  12  -1   16.82    1.42
  -3  12   0   26.87    1.57
   3  12   0   22.50    1.54
   3  12   1    0.16    0.41
   3  12   2    9.72    1.10
   3  12   3    2.50    0.65
   3  12   4    1.32    0.59
  -3  13   6    0.72    0.66
  -3  13   5    1.07    0.62
  -3  13   4    0.18    0.42
  -3  13   3    5.86    0.88
   3  13  -3    8.57    1.26
  -3  13   2    3.02    0.64
   3  13  -2    3.20    0.78
  -3  13   1   13.18    1.21
   3  13  -1   13.49    1.37
  -3  13   0   12.12    1.12
   3  13   0    9.92    1.08
   3  13   1    1.89    0.59
   3  13   2   12.94    1.29
   3  13   3    4.16    0.80
   3  13   4    0.88    0.56
  -3  14   6    0.89    0.76
  -3  14   5    3.05    0.85
  -3  14   4    3.18    0.76
  -3  14   3    1.89    0.58
   3  14  -3    3.52    0.85
  -3  14   2    8.49    1.07
   3  14  -2    5.94    1.00
  -3  14   1    6.07    0.88
   3  14  -1    6.19    0.99
  -3  14   0    2.01    0.60
   3  14   0    1.76    0.55
   3  14   1    7.49    1.01
   3  14   2    3.50    0.77
   3  14   3    3.48    0.80
   3  14   4    0.46    0.52
  -3  15   6    0.44    0.67
  -3  15   5    1.76    0.77
  -3  15   4    0.00    0.46
  -3  15   3    1.88    0.61
   3  15  -3    2.66    0.90
  -3  15   2    3.66    0.79
   3  15  -2    4.99    0.96
  -3  15   1    1.21    0.53
   3  15  -1    1.98    0.63
  -3  15   0    4.14    0.74
   3  15   0    3.98    0.78
   3  15   1    2.32    0.65
   3  15   2    1.91    0.65
   3  15   3    2.78    0.79
   3  15   4   -0.13    0.51
  -3  16   5    2.64    0.88
  -3  16   4    0.25    0.54
   3  16  -4    0.69    0.82
  -3  16   3    1.43    0.60
   3  16  -3    1.89    0.84
  -3  16   2    1.38    0.61
   3  16  -2    2.06    0.69
  -3  16   1    1.49    0.56
   3  16  -1    1.11    0.53
  -3  16   0    2.42    0.64
   3  16   0    1.33    0.57
   3  16   1    2.50    0.70
   3  16   2    4.26    0.89
   3  16   3    0.88    0.61
   3  16   4    0.59    0.63
  -3  17   4    0.30    0.61
   3  17  -4    0.64    0.88
  -3  17   3    1.29    0.62
   3  17  -3    0.82    0.75
  -3  17   2    1.28    0.61
   3  17  -2    2.21    0.71
  -3  17   1    1.25    0.58
   3  17  -1    1.25    0.52
  -3  17   0    1.19    0.52
   3  17   0    1.35    0.62
   3  17   1   -0.10    0.42
   3  17   2    4.22    0.96
   3  17   3    0.25    0.57
   3  17   4    0.75    0.67
  -3  18   4    1.02    0.72
  -3  18   3    0.67    0.61
   3  18  -3    1.79    0.86
  -3  18   2    0.91    0.59
   3  18  -2    1.14    0.61
  -3  18   1    0.59    0.55
   3  18  -1    0.99    0.59
  -3  18   0    0.37    0.59
   3  18   0    1.10    0.60
   3  18   1    1.54    0.66
   3  18   2    1.22    0.68
   3  18   3    0.06    0.61
  -3  19   3    1.70    0.75
   3  19  -3    2.48    0.96
  -3  19   2    1.48    0.69
   3  19  -2    1.28    0.67
  -3  19   1    0.67    0.66
   3  19  -1    0.65    0.52
   3  19   0    0.41    0.59
   3  19   1    0.61    0.55
   3  19   2    0.68    0.59
  -3  20   3    0.45    0.67
   3  20  -3    2.20    1.07
  -3  20   2    4.44    1.09
   3  20  -2    4.57    1.09
  -3  20   1    0.82    0.56
   3  20  -1    0.99    0.57
   3  20   0    0.58    0.68
   3  20   1    2.19    0.78
  -3  21   2    0.76    0.74
   3  21  -2    0.34    0.73
  -3  21   1    0.34    0.70
   3  21  -1    0.48    0.64
  -4   0   7    1.89    1.01
  -4   1   7    0.99    0.87
  -4   1   6    0.33    0.71
  -4   2   7    0.83    0.89
  -4   2   6    3.96    1.02
  -4   3   7    0.69    0.78
  -4   3   6    1.34    0.66
  -4   3   5   10.83    1.35
  -4   4   7    0.96    0.77
  -4   4   6    0.49    0.61
  -4   4   5    0.77    0.54
  -4   4   4    0.59    0.42
  -4   5   7    0.72    0.79
  -4   5   6    0.46    0.57
  -4   5   5    3.66    0.81
  -4   5   4    5.77    0.87
  -4   5   3    0.73    0.36
   4   5   2    8.13    1.02
  -4   6   7    1.14    0.85
  -4   6   6    1.33    0.61
  -4   6   5    0.48    0.48
  -4   6   4    2.15    0.58
  -4   6   3    0.84    0.40
  -4   6   2    4.74    0.75
  -4   6   1    4.46    0.70
  -4   6   0   15.90    1.30
  -4   6  -1   15.67    1.25
   4   6   1   13.28    1.25
   4   6   2    0.93    0.46
  -4   7   7    0.86    0.81
  -4   7   6    0.14    0.56
  -4   7   5    0.25    0.40
  -4   7   4    1.09    0.50
  -4   7   3    2.65    0.58
  -4   7   2   -0.23    0.26
  -4   7   1    2.12    0.54
  -4   7   0   10.46    1.06
   4   7   0   10.27    1.12
  -4   7  -1   45.39    2.05
   4   7   1   45.19    2.21
   4   7   2   22.41    1.66
  -4   8   7    3.08    1.10
  -4   8   6    0.79    0.62
  -4   8   5    0.32    0.51
  -4   8   4    0.33    0.37
  -4   8   3   -0.05    0.32
  -4   8   2    7.59    0.89
  -4   8   1    2.64    0.56
  -4   8   0    1.64    0.46
   4   8   0    1.97    0.56
   4   8   1    8.91    1.04
   4   8   2    1.04    0.55
  -4   9   7    0.82    0.73
  -4   9   6    1.54    0.75
  -4   9   5    1.13    0.61
  -4   9   4    3.72    0.79
  -4   9   3    0.91    0.40
  -4   9   2    2.19    0.56
  -4   9   1    1.01    0.48
   4   9  -1    0.39    0.45
  -4   9   0   29.59    1.73
   4   9   0   29.28    1.87
   4   9   1    6.75    0.97
   4   9   2    7.01    0.99
   4   9   3    5.59    0.90
  -4  10   6    0.32    0.55
  -4  10   5    1.08    0.61
  -4  10   4    1.36    0.57
  -4  10   3    8.54    1.06
  -4  10   2    3.67    0.75
  -4  10   1    0.74    0.47
   4  10  -1    0.46    0.41
  -4  10   0   13.95    1.29
   4  10   0   11.68    1.25
   4  10   1    0.17    0.41
   4  10   2    0.56    0.48
   4  10   3    1.22    0.59
  -4  11   6    0.68    0.68
  -4  11   5    7.60    1.17
  -4  11   4    4.06    0.82
  -4  11   3    2.40    0.66
  -4  11   2    2.74    0.67
   4  11  -2    2.55    0.69
  -4  11   1   11.60    1.25
   4  11  -1   13.19    1.37
  -4  11   0    1.88    0.58
   4  11   0    1.75    0.62
   4  11   1    2.47    0.66
   4  11   2    0.42    0.47
   4  11   3    2.05    0.67
  -4  12   6    1.41    0.82
  -4  12   5    0.59    0.56
  -4  12   4    1.84    0.64
  -4  12   3    4.94    0.88
  -4  12   2    8.91    1.17
   4  12  -2    8.48    1.16
  -4  12   1    3.07    0.74
   4  12  -1    2.90    0.73
  -4  12   0    1.37    0.56
   4  12   0    0.56    0.44
   4  12   1    0.06    0.43
   4  12   2    1.76    0.62
   4  12   3    0.43    0.54
  -4  13   5    1.51    0.70
  -4  13   4    6.95    1.06
  -4  13   3    3.63    0.76
  -4  13   2    0.58    0.43
   4  13  -2    0.38    0.48
  -4  13   1    4.00    0.79
   4  13  -1    3.01    0.77
  -4  13   0    1.06    0.56
   4  13   0    0.40    0.47
   4  13   1    3.06    0.75
   4  13   2    3.01    0.77
   4  13   3    0.66    0.57
  -4  14   5    2.01    0.72
  -4  14   4    0.29    0.51
  -4  14   3    0.84    0.55
  -4  14   2    3.46    0.80
   4  14  -2    3.39    0.83
  -4  14   1    1.63    0.66
   4  14  -1    1.72    0.64
   4  14   0    2.40    0.73
   4  14   1    2.04    0.66
   4  14   2    4.52    0.95
   4  14   3    1.43    0.71
  -4  15   4    0.17    0.45
  -4  15   3    0.72    0.49
   4  15  -3    1.07    0.74
  -4  15   2    1.36    0.56
   4  15  -2    1.42    0.63
  -4  15   1    0.48    0.48
   4  15  -1    0.62    0.55
   4  15   0    0.98    0.59
   4  15   1    0.53    0.54
   4  15   2    3.99    0.97
   4  15   3    1.61    0.72
  -4  16   4    0.53    0.55
  -4  16   3    1.43    0.65
   4  16  -3    0.74    0.71
  -4  16   2    2.83    0.77
   4  16  -2    2.10    0.72
  -4  16   1    2.65    0.76
   4  16  -1    2.66    0.74
   4  16   0    0.93    0.58
   4  16   1    0.69    0.59
   4  16   2    1.46    0.77
   4  16   3    1.17    0.70
  -4  17   3    0.33    0.58
   4  17  -3   -0.09    0.73
  -4  17   2    1.44    0.78
   4  17  -2    1.71    0.83
  -4  17   1    0.42    0.59
   4  17  -1    0.17    0.47
   4  17   0    0.85    0.57
   4  17   1    1.99    0.85
   4  17   2    0.75    0.65
  -4  18   3    0.95    0.67
   4  18  -3    1.08    0.93
  -4  18   2    1.01    0.61
   4  18  -2   -0.08    0.74
  -4  18   1    1.36    0.69
   4  18  -1    0.66    0.60
   4  18   0    1.95    0.78
   4  18   1    1.24    0.70
  -4  19   2    0.66    0.79
  -4  19   1    0.29    0.71
  -5   1   6    0.66    0.79
  -5   2   6    0.90    0.84
  -5   3   6    0.94    0.80
  -5   3   5    0.34    0.52
  -5   4   6    0.47    0.66
  -5   4   5    0.46    0.57
  -5   5   6    0.57    0.72
  -5   5   5    0.51    0.52
  -5   5   4    6.14    1.05
  -5   6   6    1.09    0.78
  -5   6   5    0.84    0.58
  -5   6   4    0.25    0.43
  -5   6   3    6.40    1.03
  -5   6   2    8.96    1.20
  -5   7   6    0.66    0.70
  -5   7   5    0.85    0.62
  -5   7   4    0.68    0.48
  -5   7   3    9.50    1.15
  -5   7   2    2.01    0.62
  -5   7   1    2.09    0.64
  -5   7   0    5.82    1.02
  -5   8   5    0.08    0.44
  -5   8   4    0.66    0.49
  -5   8   3    1.00    0.49
  -5   8   2    4.29    0.82
  -5   8   1    0.19    0.40
  -5   8   0    4.53    0.85
  -5   9   5   -0.54    0.56
  -5   9   4    1.31    0.49
  -5   9   3    0.50    0.47
  -5   9   2    0.44    0.47
  -5   9   1    0.89    0.57
  -5   9   0    1.79    0.67
  -5  10   5    0.38    0.61
  -5  10   4    1.43    0.64
  -5  10   3    2.65    0.69
  -5  10   2    1.20    0.54
  -5  10   1    0.17    0.46
   5  10   1    5.36    1.08
   5  10   2    3.85    0.98
  -5  11   5    0.30    0.60
  -5  11   4    0.11    0.51
  -5  11   3    0.66    0.48
  -5  11   2    0.62    0.51
  -5  11   1    0.88    0.60
   5  11   0    2.57    0.81
   5  11   1    1.73    0.72
   5  11   2    0.27    0.51
  -5  12   4    0.46    0.53
  -5  12   3    0.79    0.60
  -5  12   2    0.27    0.55
  -5  12   1    2.54    0.85
   5  12   0    1.77    0.71
   5  12   1    1.11    0.64
   5  12   2    1.49    0.78
  -5  13   4    0.63    0.58
  -5  13   3    0.46    0.60
  -5  13   2    1.53    0.71
  -5  13   1    1.25    0.70
   5  13   0    2.29    0.78
   5  13   1    1.64    0.73
   5  13   2    3.31    0.92
  -5  14   3    0.58    0.55
  -5  14   2    1.16    0.62
  -5  14   1    1.60    0.79
   5  14  -1    1.26    0.70
   5  14   0    0.07    0.53
   5  14   1    2.20    0.81
  -5  15   3    1.11    0.76
  -5  15   2    2.68    0.92
  -5  15   1    0.10    0.71
   5  15  -1    0.28    0.66
   5  15   0    0.47    0.62
  -5  16   2    0.59    0.72
  -6   4   4    0.89    0.68
  -6   5   4    0.68    0.62
  -6   5   3    0.32    0.54
  -6   6   4    0.36    0.58
  -6   6   3    0.98    0.66
  -6   6   2    1.10    0.72
  -6   6   1    1.51    0.78
  -6   7   4    0.98    0.60
  -6   7   3    0.39    0.56
  -6   7   2    0.69    0.64
  -6   7   1    3.04    0.91
  -6   8   3    0.47    0.63
  -6   8   2    0.45    0.57
  -6   8   1    0.68    0.69
  -6   9   3    0.39    0.64
  -6   9   2    0.77    0.73
  -6   9   1    0.34    0.74
  -6  10   3    3.02    0.86
  -6  10   2    1.63    0.70
  -6  10   1    3.05    0.88
  -6  11   2    0.54    0.82
   0   0   1  152.94    2.12
   0   0   2    0.31    0.22
   0   0   3  139.25    3.17
   0   0   4    3.42    0.60
   0   0   5   18.17    1.44
   0   0   6    0.78    0.51
   0   0   7    0.43    0.57
   0   0   8    0.04    0.65
   0  -1   1   23.54    0.67
   0  -1   2   78.90    1.89
   0  -1   3   60.58    2.01
   0  -1   4    4.50    0.67
   0   1   4    3.48    0.60
   0  -1   5    1.47    0.59
   0   1   5    1.37    0.51
   0  -1   6    7.04    1.08
   0   1   6    6.94    1.04
   0  -1   7    2.38    0.82
   0   1   7    2.80    0.84
   0  -1   8    0.51    0.74
   0   1   8    0.38    0.60
   0  -2   1  496.23    4.18
   0  -2   2   40.48    1.26
   0  -2   3  159.43    3.30
   0   2   3  155.83    3.33
   0  -2   4   28.70    1.62
   0   2   4   26.32    1.52
   0  -2   5   11.95    1.23
   0   2   5   10.88    1.13
   0  -2   6    3.59    0.84
   0   2   6    2.13    0.62
   0  -2   7    2.17    0.84
   0   2   7    1.55    0.65
   0  -2   8    0.06    0.82
   0   2   8    0.09    0.60
   0  -3   1  133.95    1.74
   0  -3   2   21.86    0.91
   0  -3   3   35.71    1.48
   0   3   3   34.47    1.54
   0  -3   4   38.95    1.86
   0   3   4   35.37    1.82
   0  -3   5    2.77    0.67
   0   3   5    3.11    0.68
   0  -3   6    8.59    1.26
   0   3   6    5.99    0.94
   0  -3   7    5.60    1.18
   0   3   7    3.97    0.88
   0  -3   8    1.60    1.01
   0   3   8    0.82    0.65
   0  -4   1   45.53    1.02
   0  -4   2    3.64    0.37
   0  -4   3   42.37    1.61
   0   4   3   44.40    1.83
   0  -4   4   18.50    1.30
   0   4   4   16.48    1.17
   0  -4   5   16.00    1.45
   0   4   5    9.37    1.02
   0  -4   6   11.62    1.44
   0   4   6    9.95    1.14
   0  -4   7    0.40    0.78
   0   4   7    0.43    0.48
   0  -4   8    0.66    0.89
   0   4   8    0.47    0.55
   0  -5   2   50.36    1.29
   0  -5   3   58.89    1.82
   0  -5   4   11.74    1.04
   0   5   4    8.28    0.84
   0  -5   5    5.15    0.88
   0   5   5    3.14    0.62
   0  -5   6   12.99    1.50
   0   5   6    7.20    0.97
   0  -5   7    0.44    0.75
   0   5   7    1.05    0.54
   0  -5   8    0.55    1.03
   0   5   8    0.05    0.48
   0  -6   2   11.91    0.64
   0  -6   3    9.19    0.70
   0  -6   4    2.54    0.50
   0   6   4    1.76    0.44
   0  -6   5   92.74    3.33
   0  -6   6   19.08    1.77
   0   6   6   11.02    1.18
   0  -6   7    1.90    0.96
   0   6   7    0.67    0.43
   0  -6   8    1.14    1.22
   0   6   8    0.43    0.55
   0  -7   2  135.48    2.31
   0  -7   3    5.66    0.56
   0  -7   4    3.29    0.52
   0   7   4    3.50    0.63
   0  -7   5   15.02    1.42
   0   7   5   10.31    1.08
   0  -7   6    2.78    0.85
   0   7   6    1.02    0.43
   0  -7   7    1.54    0.93
   0   7   7    0.73    0.45
   0  -8   3    8.31    0.68
   0  -8   4    1.43    0.41
   0   8   4    1.76    0.47
   0  -8   5   50.12    2.26
   0   8   5   42.05    2.08
   0  -8   6    9.09    1.20
   0   8   6    5.32    0.82
   0   8   7    1.22    0.52
   0  -9   3   15.71    0.83
   0  -9   4    4.11    0.59
   0  -9   5   27.30    1.74
   0   9   5   18.57    1.41
   0   9   6    0.68    0.47
   0   9   7    1.08    0.52
   0 -10   4   33.21    1.34
   0  10   5    3.58    0.67
   0  10   6    0.93    0.47
   0  10   7    0.14    0.48
   0  11   5    8.37    1.02
   0  11   6    0.84    0.44
   0  11   7    0.27    0.44
   0  12   5    0.31    0.35
   0  12   6    0.95    0.48
   0  12   7    0.56    0.50
   0  13   5    0.48    0.39
   0  13   6    0.75    0.49
   0  13   7    1.98    0.73
   0  14   5    4.23    0.82
   0  14   6    1.78    0.62
   0  15   5    3.09    0.74
   0  15   6    1.91    0.69
   0  16   5    2.47    0.73
   0  16   6    1.13    0.67
   0  17   5    1.53    0.62
   0  17   6    0.11    0.58
  -1   0   8    1.40    0.81
  -1   0   6    6.28    0.98
  -1   0   5    0.23    0.38
   1   0   1  161.53    2.56
   1   0   2   27.45    1.17
   1   0   3   22.99    1.30
   1   0   4    0.43    0.36
   1   0   5   -0.23    0.38
   1   0   6    5.55    1.05
   1   0   7    2.31    0.83
   1   0   8    0.61    0.72
  -1  -1   8    0.14    0.64
  -1   1   8    0.87    0.68
  -1  -1   7    0.93    0.66
  -1   1   7    1.07    0.63
  -1  -1   6    0.78    0.56
  -1   1   6    0.73    0.51
  -1   1   5    6.56    0.86
  -1  -1   4  138.34    3.56
   1  -1   1  296.41    3.72
   1   1   1  275.60    3.31
   1  -1   2   44.71    1.48
   1   1   2   47.14    1.55
   1  -1   3   18.71    1.16
   1   1   3   19.34    1.23
   1  -1   4    6.12    0.84
   1   1   4    6.65    0.85
   1  -1   5   20.87    1.68
   1   1   5   20.14    1.66
   1  -1   6    1.76    0.75
   1   1   6    2.34    0.72
   1  -1   7    0.27    0.71
   1   1   7    0.60    0.66
   1  -1   8    0.89    0.83
   1   1   8    0.16    0.62
  -1  -2   8    1.25    0.86
  -1   2   8    0.58    0.57
  -1  -2   7    3.46    0.95
  -1   2   7    2.44    0.74
  -1  -2   6    0.57    0.51
  -1   2   6    0.25    0.45
  -1  -2   5   11.41    1.19
  -1  -2   4   29.08    1.66
   1   2   0  213.06    2.57
   1  -2   1  234.46    3.28
   1   2   1  211.09    2.80
   1  -2   2   21.95    0.97
   1   2   2   27.30    1.19
   1  -2   3   12.63    0.94
   1   2   3   13.94    1.01
   1  -2   4    3.32    0.63
   1   2   4    2.86    0.58
   1  -2   5    0.41    0.46
   1   2   5    0.28    0.41
   1  -2   6   -0.01    0.58
   1   2   6    0.25    0.49
   1  -2   7    0.78    0.71
   1   2   7   -0.08    0.51
   1  -2   8    0.38    0.76
   1   2   8    0.43    0.63
  -1  -3   8   -0.17    0.76
  -1   3   8    0.21    0.59
  -1  -3   7    1.23    0.71
  -1   3   7    0.60    0.54
  -1  -3   6    6.16    1.04
  -1   3   6    3.92    0.80
  -1  -3   5   10.98    1.18
  -1  -3   4   34.51    1.78
  -1  -3   3   56.26    1.91
   1   3   0 1018.65    8.28
   1  -3   1   51.81    1.54
   1   3   1   43.85    1.22
   1  -3   2  143.79    2.82
   1   3   2  146.75    2.83
   1  -3   3   34.94    1.61
   1   3   3   36.10    1.62
   1  -3   4   34.00    1.83
   1   3   4   35.17    1.84
   1  -3   5   15.13    1.43
   1   3   5   11.27    1.16
   1  -3   6   22.97    1.99
   1   3   6   16.19    1.57
   1  -3   7    0.32    0.68
   1   3   7    0.33    0.54
   1  -3   8    1.50    1.04
  -1  -4   8    0.12    0.89
  -1   4   8    0.10    0.53
  -1  -4   7    6.71    1.26
  -1   4   7    3.84    0.85
  -1  -4   6   13.39    1.47
  -1   4   6    9.95    1.16
  -1  -4   5   13.49    1.25
  -1  -4   4   25.14    1.51
  -1  -4   3   32.44    1.43
  -1  -4   2   82.99    1.76
   1   4   0  314.04    3.01
   1   4   1  304.73    3.51
   1  -4   2   24.07    1.17
   1   4   2   22.39    1.12
   1  -4   3   31.83    1.48
   1   4   3   38.98    1.74
   1  -4   4    2.18    0.53
   1   4   4    2.02    0.50
   1  -4   5   14.09    1.46
   1   4   5    8.75    1.04
   1  -4   6   21.85    2.04
   1   4   6   15.64    1.46
   1  -4   7    0.35    0.85
   1   4   7    0.60    0.49
   1  -4   8    0.41    0.92
  -1   5   8    1.47    0.72
  -1  -5   7    3.25    1.01
  -1   5   7    1.25    0.59
  -1  -5   6    3.53    0.94
  -1   5   6    2.70    0.68
  -1  -5   5    6.00    0.90
  -1  -5   4   12.96    1.07
  -1  -5   3    6.72    0.64
  -1  -5   2    3.98    0.35
   1   5   0  109.02    1.45
   1   5   1  304.92    3.55
   1  -5   2   33.39    1.26
   1   5   2   38.06    1.43
   1  -5   3   10.64    0.82
   1   5   3   12.22    0.94
   1  -5   4   31.84    1.75
   1   5   4   33.91    1.84
   1  -5   5   38.62    2.20
   1   5   5   33.86    1.96
   1  -5   6    0.61    0.58
   1   5   6    0.17    0.43
   1  -5   7    0.22    0.64
   1   5   7    0.07    0.41
   1  -5   8    2.80    1.22
  -1   6   8    0.39    0.58
  -1   6   7    1.35    0.64
  -1  -6   6   20.74    1.88
  -1   6   6   14.66    1.50
  -1  -6   5   12.50    1.22
  -1  -6   4    2.20    0.50
  -1  -6   3   40.55    1.40
  -1  -6   2   68.27    1.24
   1   6   0  148.98    1.74
   1   6   1  357.00    4.05
   1  -6   2  162.70    3.14
   1   6   2  172.15    3.26
   1  -6   3   26.27    1.40
   1   6   3   24.19    1.33
   1  -6   4   23.41    1.52
   1   6   4   23.05    1.45
   1  -6   5   10.86    1.28
   1   6   5    8.20    1.03
   1  -6   6    3.68    1.02
   1   6   6    2.33    0.60
   1  -6   7    0.62    0.90
   1   6   7    0.16    0.38
  -1   7   8    0.30    0.60
  -1   7   7    0.12    0.44
  -1   7   6    0.43    0.42
  -1  -7   5    0.60    0.44
  -1  -7   4   12.33    0.97
  -1  -7   3    2.86    0.38
  -1  -7   2   46.96    0.91
   1   7   0   46.64    0.92
   1   7   1  383.92    4.32
   1   7   2   60.91    1.90
   1  -7   3    5.90    0.60
   1   7   3    8.05    0.80
   1  -7   4   11.89    1.05
   1   7   4   11.85    1.06
   1  -7   5    5.27    0.87
   1   7   5    3.60    0.68
   1  -7   6    0.78    0.72
   1   7   6    0.84    0.42
   1  -7   7    2.79    1.10
   1   7   7    1.58    0.60
  -1   8   7    0.74    0.55
  -1   8   6   20.99    1.88
  -1  -8   4    8.70    0.77
  -1  -8   3   13.32    0.68
   1   8   0   17.72    0.62
   1   8   1  118.54    2.34
   1   8   2   88.58    2.34
   1  -8   3   25.67    1.09
   1   8   3   41.91    1.82
   1  -8   4    3.35    0.56
   1   8   4    4.56    0.70
   1  -8   5    9.98    1.18
   1   8   5    6.67    0.88
   1  -8   6    2.02    0.83
   1   8   6    1.56    0.51
   1  -8   7    2.45    1.14
   1   8   7    2.04    0.68
  -1   9   7    2.04    0.69
   1   9   0    4.68    0.35
   1   9   1   42.32    1.34
   1   9   2   43.24    1.65
   1   9   3    1.49    0.39
   1  -9   4   24.03    1.39
   1   9   4   23.85    1.52
   1  -9   5    9.44    1.05
   1   9   5    7.47    0.92
   1  -9   6    0.31    0.69
   1   9   6    0.08    0.32
   1  -9   7    6.52    1.54
   1   9   7    2.23    0.67
  -1  10   7    0.65    0.57
   1  10   0    3.88    0.37
   1  10   1   96.86    2.13
   1  10   2   11.24    0.89
   1  10   3    4.52    0.62
   1 -10   4    1.16    0.45
   1  10   4    1.18    0.44
   1 -10   5    0.21    0.45
   1  10   5    0.47    0.35
   1 -10   6    6.06    1.04
   1  10   6    3.35    0.73
   1  10   7    0.19    0.39
  -1  11   7    0.80    0.58
   1  11   1    4.91    0.52
   1  11   2    4.05    0.57
   1  11   3    7.31    0.79
   1  11   4   20.05    1.44
   1 -11   5    3.36    0.63
   1  11   5    2.40    0.58
   1  11   6    1.34    0.54
   1  11   7   -0.03    0.47
  -1  12   7    0.88    0.68
   1  12   1   16.81    1.00
   1  12   2    0.98    0.33
   1  12   3   11.98    1.03
   1  12   4    1.36    0.46
   1  12   5    1.09    0.48
   1  12   6    0.19    0.38
   1  12   7    1.24    0.60
  -1  13   7    0.10    0.58
   1  13   2    0.81    0.34
   1  13   3   16.75    1.29
   1  13   4   17.85    1.41
   1  13   5    2.43    0.62
   1  13   6    1.65    0.58
   1  14   3    4.19    0.69
   1  14   4    1.52    0.47
   1  14   5    0.40    0.42
   1  14   6    0.11    0.46
   1  15   5    1.15    0.52
   1  15   6    2.21    0.71
  -2   0   8    0.43    0.76
  -2   0   7    7.27    1.26
  -2   0   6    2.66    0.78
   2   0   1   19.65    1.04
   2   0   2   62.71    2.08
   2   0   3   33.14    1.70
   2   0   4    1.29    0.45
   2   0   5    4.95    0.95
   2   0   6   22.36    2.03
   2   0   7    0.16    0.56
  -2  -1   8    0.79    0.79
  -2   1   8   -0.03    0.73
  -2  -1   7    0.80    0.67
  -2   1   7    1.10    0.71
  -2  -1   6    1.40    0.66
   2  -1   1   15.14    1.05
   2   1   1   13.71    0.93
   2  -1   2    5.05    0.66
   2   1   2    4.13    0.56
   2  -1   3   35.41    1.81
   2   1   3   27.39    1.43
   2  -1   4   14.08    1.28
   2   1   4   17.08    1.44
   2  -1   5    7.69    1.06
   2   1   5    6.08    0.96
   2  -1   6    4.65    0.98
   2   1   6    4.27    0.94
   2  -1   7    1.74    0.81
   2   1   7    2.64    0.94
  -2  -2   8    0.71    0.83
  -2   2   8    1.00    0.82
  -2  -2   7    3.74    1.01
  -2   2   7    2.82    0.82
  -2  -2   6    2.81    0.80
   2   2   1   97.68    2.40
   2  -2   2   43.47    1.70
   2   2   2   47.16    1.78
   2  -2   3   10.89    0.99
   2   2   3   12.93    1.09
   2  -2   4    3.94    0.77
   2   2   4    2.89    0.63
   2  -2   5    0.66    0.56
   2   2   5    0.49    0.45
   2  -2   6    8.78    1.37
   2   2   6    8.09    1.21
   2  -2   7    1.14    0.87
   2   2   7    1.15    0.63
  -2   3   8    1.15    0.73
  -2  -3   7    5.20    1.14
  -2   3   7    4.49    1.01
  -2  -3   6    1.17    0.65
  -2  -3   5    9.89    1.18
   2   3   1   41.99    1.58
   2  -3   2   14.45    1.03
   2   3   2   13.63    0.89
   2  -3   3    9.03    0.97
   2   3   3    7.53    0.81
   2  -3   4   12.63    1.17
   2   3   4   13.98    1.25
   2  -3   5   20.27    1.83
   2   3   5   18.54    1.61
   2  -3   6    0.28    0.65
   2   3   6    0.41    0.46
   2  -3   7    0.25    0.83
   2   3   7    0.17    0.56
  -2   4   8    0.17    0.73
  -2   4   7    3.88    1.02
  -2  -4   6    1.87    0.73
  -2  -4   5    2.03    0.62
   2   4   1   66.70    1.87
   2  -4   2   14.61    1.02
   2   4   2   15.28    0.99
   2  -4   3   10.21    0.91
   2   4   3   11.96    1.01
   2  -4   4    4.25    0.75
   2   4   4    3.36    0.65
   2  -4   5   42.79    2.49
   2   4   5   40.12    2.33
   2  -4   6    4.24    1.04
   2   4   6    3.41    0.80
   2  -4   7    1.13    0.81
   2   4   7    1.70    0.70
  -2   5   8    0.30    0.73
  -2   5   7    2.24    0.92
  -2  -5   5   17.17    1.46
  -2  -5   4    9.15    0.99
   2   5   1   28.96    1.27
   2   5   2   31.95    1.44
   2  -5   3    1.61    0.45
   2   5   3    1.09    0.38
   2  -5   4   11.83    1.17
   2   5   4   12.87    1.19
   2  -5   5    3.63    0.86
   2   5   5    3.92    0.78
   2  -5   6    1.60    0.81
   2   5   6    1.07    0.52
   2  -5   7    1.28    0.97
   2   5   7    0.71    0.59
  -2   6   8    0.98    0.84
  -2  -6   4    9.44    0.94
   2   6   0   12.98    0.76
   2   6   1  119.47    2.48
   2   6   2   11.36    0.87
   2  -6   3   14.89    1.03
   2   6   3   21.99    1.39
   2  -6   4   17.20    1.29
   2   6   4   19.91    1.52
   2  -6   5   22.08    1.81
   2   6   5   17.45    1.56
   2  -6   6   -0.02    0.73
   2   6   6   -0.10    0.38
   2  -6   7    4.61    1.43
   2   6   7    1.59    0.69
  -2   7   8    0.64    0.74
   2   7   0   18.36    0.82
   2   7   1   68.05    1.84
   2   7   2   36.58    1.55
   2  -7   3    0.33    0.31
   2   7   3    1.06    0.36
   2  -7   4    6.19    0.87
   2   7   4    7.83    0.94
   2  -7   5    5.84    0.93
   2   7   5    6.72    0.99
   2  -7   6    1.32    0.72
   2   7   6    2.32    0.73
   2  -7   7    1.01    0.86
   2   7   7    1.35    0.65
   2   8   0   47.40    1.41
   2   8   1   67.27    1.79
   2   8   2   11.71    0.90
   2   8   3    1.80    0.47
   2  -8   4   14.02    1.23
   2   8   4   14.73    1.28
   2  -8   5    9.78    1.21
   2   8   5    7.97    1.09
   2  -8   6    1.96    0.74
   2   8   6    1.49    0.64
   2  -8   7    4.11    1.17
   2   8   7    0.71    0.61
   2   9   0   15.34    0.75
   2   9   1   78.62    1.95
   2   9   2    6.39    0.67
   2   9   3    0.77    0.38
   2   9   4   12.09    1.18
   2  -9   5    2.13    0.61
   2   9   5    2.90    0.68
   2  -9   6    0.17    0.67
   2   9   6    0.70    0.48
   2  -9   7    1.88    1.03
   2   9   7    0.23    0.56
   2  10   1   13.14    0.80
   2  10   2   24.13    1.28
   2  10   3   10.84    1.03
   2  10   4    6.55    0.90
   2 -10   5    4.69    0.85
   2  10   5    4.42    0.83
   2 -10   6    1.71    0.79
   2  10   6    1.34    0.61
   2  11   2   25.09    1.32
   2  11   3    7.43    0.86
   2  11   4    0.88    0.43
   2  11   5    1.43    0.58
   2  11   6    0.65    0.54
   2  12   3    1.59    0.45
   2  12   4    1.39    0.48
   2  12   5    0.28    0.46
   2  12   6    1.84    0.72
   2  13   5   -0.05    0.39
   2  13   6    0.87    0.58
  -3   0   8    2.74    1.14
   3   0   2    7.51    0.81
   3   0   3   19.85    1.41
   3   0   4    3.64    0.78
   3   0   5   -0.04    0.48
   3   0   6    0.16    0.61
  -3   1   8    1.17    0.90
  -3  -1   7    0.60    0.75
   3  -1   2   39.92    1.81
   3   1   2   40.71    1.94
   3  -1   3    0.15    0.26
   3   1   3    0.36    0.36
   3  -1   4    4.71    0.84
   3   1   4    4.05    0.81
   3  -1   5   13.38    1.58
   3   1   5   11.14    1.35
   3  -1   6    0.49    0.64
   3   1   6    0.53    0.53
  -3   2   8    2.68    1.07
   3   2   2   13.50    1.10
   3  -2   3   11.30    1.10
   3   2   3   13.41    1.26
   3  -2   4    1.94    0.58
   3   2   4    2.52    0.64
   3  -2   5    1.31    0.68
   3   2   5    1.81    0.69
   3  -2   6    5.91    1.31
   3   2   6    5.95    1.20
  -3   3   8    0.81    0.95
   3   3   2    4.53    0.65
   3  -3   3    8.94    1.02
   3   3   3    8.95    1.01
   3  -3   4    5.77    0.90
   3   3   4    7.75    1.05
   3  -3   5    2.73    0.76
   3   3   5    2.98    0.80
   3  -3   6    2.20    0.81
   3   3   6    1.14    0.73
  -3   4   8    1.64    1.18
   3   4   1   22.23    1.30
   3   4   2   27.85    1.54
   3  -4   3   -0.07    0.29
   3   4   3    0.14    0.34
   3  -4   4   15.07    1.40
   3   4   4   15.43    1.47
   3  -4   5    0.08    0.46
   3   4   5    0.55    0.55
   3  -4   6    9.07    1.40
   3   4   6    8.43    1.34
  -3   5   8    1.41    1.17
   3   5   1    4.36    0.66
   3   5   2    3.94    0.67
   3   5   3    1.50    0.49
   3  -5   4    8.85    1.12
   3   5   4   10.08    1.19
   3  -5   5   -0.24    0.44
   3   5   5   -0.15    0.40
   3  -5   6    1.52    0.78
   3   5   6    1.87    0.73
   3   6   1   41.44    1.60
   3   6   2   17.80    1.28
   3   6   3   11.32    1.13
   3  -6   4   18.54    1.52
   3   6   4   19.90    1.61
   3  -6   5   -0.17    0.35
   3   6   5    0.12    0.38
   3  -6   6    4.21    1.11
   3   6   6    3.72    0.95
   3   7   1   34.28    1.63
   3   7   2   23.28    1.42
   3   7   3    2.45    0.60
   3   7   4    1.56    0.50
   3  -7   5    2.50    0.68
   3   7   5    2.89    0.70
   3  -7   6    1.74    0.82
   3   7   6    1.45    0.62
   3   8   1   47.99    1.96
   3   8   2    8.44    0.87
   3   8   3    1.77    0.53
   3   8   4    5.08    0.80
   3   8   5    0.33    0.44
   3  -8   6    2.59    0.88
   3   8   6    2.82    0.81
   3   9   2   12.36    1.02
   3   9   3    1.80    0.50
   3   9   4    5.41    0.91
   3   9   5    0.43    0.54
   3   9   6    0.69    0.58
   3  10   3   11.03    1.04
   3  10   4    0.71    0.56
   3  10   5    1.14    0.63
   3  10   6    3.92    1.00
   3  11   5    1.19    0.72
   4   0   4    9.14    1.14
   4   0   5    0.82    0.56
   4   1   3    0.72    0.38
   4  -1   4    1.72    0.53
   4   1   4    2.04    0.58
   4  -1   5    0.17    0.50
   4   1   5   -0.25    0.37
   4   2   3    8.34    1.03
   4  -2   4    6.06    0.97
   4   2   4    6.14    0.99
   4  -2   5    0.16    0.50
   4   2   5    0.60    0.50
   4   3   3    5.23    0.77
   4   3   4    3.09    0.71
   4  -3   5    0.85    0.50
   4   3   5    1.45    0.64
   4   4   3    9.83    1.02
   4   4   4    0.84    0.46
   4   4   5    6.48    1.06
   4   5   3    0.89    0.45
   4   5   4    6.56    1.00
   4   5   5    0.83    0.55
   4   6   2    0.49    0.35
   4   6   3   11.69    1.25
   4   6   4    2.93    0.70
   4   6   5    2.08    0.80
   4   7   2   17.77    1.27
   4   7   3    3.16    0.64
   4   7   4    2.62    0.68
   4   7   5    0.43    0.68
   4   8   3    0.87    0.43
   4   8   4    1.61    0.65
   4   8   5    0.98    0.66
   4   9   5    0.27    0.63
   0   0   0    0.00    0.00
;
_shelx_hkl_checksum              2872
_shelx_res_file
;
TITL DNCA-NA in P2(1)
    shelx.res
    created by SHELXL-2016/6 at 12:14:04 on 06-Nov-2019
CELL  0.71073   5.2850  18.4179   6.6994   90.000  100.105   90.000
ZERR     2.00   0.0027   0.0092   0.0033    0.000    0.007    0.000
LATT  -1
SYMM  - X, 1/2 + Y, - Z
SFAC  C    H    N    O
UNIT  28 20 4 10
MERG   2
EQIV $1 2-x,-1/2+y,1-z
EQIV $2 x,y,1+z
HTAB C2 O4_$1
HTAB C10 O3_$2
FMAP   2
PLAN    1
ACTA
BOND   $H
L.S.  40
TEMP    25.00
WGHT    0.102000
FVAR       0.45507
C1    1    0.317912    0.391022    0.071511    11.00000    0.05348    0.05010 =
         0.04814    0.00361    0.00691   -0.00453
C2    1    0.590308    0.414005    0.035973    11.00000    0.04273    0.03396 =
         0.04220    0.00355   -0.00338    0.00297
C3    1    0.521651    0.461700   -0.154669    11.00000    0.04428    0.04741 =
         0.03157    0.00079    0.00909    0.00371
C4    1    0.228638    0.453807   -0.201885    11.00000    0.04783    0.05046 =
         0.04104    0.00347   -0.00400    0.00354
C5    1    0.166638    0.375985   -0.261447    11.00000    0.05663    0.06058 =
         0.06520   -0.01109   -0.01804   -0.00529
AFIX  43
H5    2    0.102698    0.358733   -0.390942    11.00000    0.08270
AFIX   0
C6    1    0.220207    0.337666   -0.095938    11.00000    0.05044    0.04851 =
         0.06454    0.00139   -0.00877   -0.00799
AFIX  43
H6    2    0.202080    0.287734   -0.083342    11.00000    0.05874
AFIX   0
C7    1    0.721899    0.464132    0.197824    11.00000    0.04452    0.05073 =
         0.04071    0.00610   -0.00385    0.00531
C8    1    0.604028    0.536641   -0.085994    11.00000    0.04072    0.05463 =
         0.03021    0.00527    0.00849    0.00235
C9    1    0.857401    0.593038    0.227413    11.00000    0.04523    0.04166 =
         0.03748    0.00335    0.00135    0.00533
C10   1    0.797583    0.609545    0.415924    11.00000    0.05947    0.05506 =
         0.04061    0.00367    0.00927    0.00087
C11   1    0.942401    0.661357    0.533310    11.00000    0.07705    0.05571 =
         0.04102   -0.00909    0.00682    0.00687
C12   1    1.133256    0.695519    0.460308    11.00000    0.06314    0.04081 =
         0.06075   -0.00783   -0.00704    0.00513
C13   1    1.191665    0.680869    0.271494    11.00000    0.05892    0.04216 =
         0.07357    0.00124    0.01022   -0.00642
C14   1    1.050391    0.628233    0.154525    11.00000    0.05763    0.05085 =
         0.04718    0.00146    0.01300   -0.00030
N1    3    0.724504    0.533809    0.117506    11.00000    0.04580    0.04354 =
         0.03273    0.00031    0.00308    0.00186
N2    3    1.295164    0.748519    0.592238    11.00000    0.08360    0.05403 =
         0.11380   -0.02042   -0.00754   -0.00109
O1    4    0.172434    0.455128    0.002306    11.00000    0.04637    0.05793 =
         0.05555    0.00032    0.01262    0.00490
O2    4    0.809711    0.448744    0.370426    11.00000    0.10066    0.05934 =
         0.04556    0.01231   -0.02433   -0.00971
O3    4    0.573506    0.592258   -0.181957    11.00000    0.08606    0.05654 =
         0.04228    0.01391    0.00184   -0.00847
O4    4    1.247388    0.757540    0.764996    11.00000    0.17650    0.08394 =
         0.08922   -0.04250    0.00121   -0.02356
O5    4    1.465962    0.777717    0.530450    11.00000    0.10866    0.09740 =
         0.14927   -0.05823    0.01366   -0.04013
H1    2    0.292359    0.381712    0.208233    11.00000    0.05343
H2    2    0.684473    0.374427    0.029562    11.00000    0.04277
H3    2    0.600373    0.450176   -0.265842    11.00000    0.02659
H4    2    0.149296    0.495686   -0.284266    11.00000    0.03859
H10   2    0.663132    0.584869    0.462224    11.00000    0.05506
H11   2    0.886315    0.669898    0.644244    11.00000    0.05369
H13   2    1.323185    0.700894    0.225903    11.00000    0.06150
H14   2    1.107973    0.619743    0.029238    11.00000    0.05703
HKLF 4
REM  DNCA-NA in P2(1)
REM R1 =  0.0666 for    1541 Fo > 4sig(Fo)  and  0.0868 for all    2191 data
REM    224 parameters refined using      1 restraints
END
WGHT      0.1020      0.0000
REM Highest difference peak  0.318,  deepest hole -0.358,  1-sigma level  0.084
Q1    1   0.9976  0.4530  0.4227  11.00000  0.05    0.32
;
_shelx_res_checksum              19556
loop_
_space_group_symop_operation_xyz
'x, y, z'
'-x, y+1/2, -z'
loop_
_atom_site_type_symbol
_atom_site_label
_atom_site_fract_x
_atom_site_fract_y
_atom_site_fract_z
_atom_site_U_iso_or_equiv
_atom_site_adp_type
_atom_site_calc_flag
_atom_site_occupancy
C C1 0.3179(11) 0.3910(3) 0.0715(10) 0.0508(14) Uani d 1
C C2 0.5903(10) 0.4140(3) 0.0360(8) 0.0409(12) Uani d 1
C C3 0.5217(9) 0.4617(3) -0.1547(7) 0.0408(11) Uani d 1
C C4 0.2286(10) 0.4538(3) -0.2019(8) 0.0479(12) Uani d 1
C C5 0.1666(11) 0.3760(3) -0.2614(10) 0.0643(17) Uani d 1
H H5 0.102698 0.358733 -0.390942 0.08(2) Uiso calc 1
C C6 0.2202(11) 0.3377(3) -0.0959(9) 0.0568(16) Uani d 1
H H6 0.202080 0.287734 -0.083342 0.059(17) Uiso calc 1
C C7 0.7219(9) 0.4641(3) 0.1978(8) 0.0467(12) Uani d 1
C C8 0.6040(9) 0.5366(3) -0.0860(7) 0.0416(11) Uani d 1
C C9 0.8574(9) 0.5930(3) 0.2274(7) 0.0422(12) Uani d 1
C C10 0.7976(11) 0.6095(3) 0.4159(8) 0.0517(14) Uani d 1
C C11 0.9424(13) 0.6614(3) 0.5333(10) 0.0584(16) Uani d 1
C C12 1.1333(12) 0.6955(3) 0.4603(10) 0.0571(15) Uani d 1
C C13 1.1917(12) 0.6809(3) 0.2715(11) 0.0584(15) Uani d 1
C C14 1.0504(11) 0.6282(3) 0.1545(9) 0.0514(13) Uani d 1
N N1 0.7245(8) 0.5338(2) 0.1175(6) 0.0412(9) Uani d 1
N N2 1.2952(15) 0.7485(3) 0.5922(13) 0.087(2) Uani d 1
O O1 0.1724(7) 0.4551(2) 0.0023(6) 0.0528(10) Uani d 1
O O2 0.8097(9) 0.4487(3) 0.3704(6) 0.0730(14) Uani d 1
O O3 0.5735(9) 0.5923(2) -0.1820(5) 0.0628(11) Uani d 1
O O4 1.2474(15) 0.7575(3) 0.7650(11) 0.119(3) Uani d 1
O O5 1.4660(14) 0.7777(4) 0.5304(12) 0.120(2) Uani d 1
H H1 0.292(11) 0.382(3) 0.208(10) 0.053(16) Uiso d 1
H H2 0.684(10) 0.374(3) 0.030(8) 0.043(15) Uiso d 1
H H3 0.600(9) 0.450(3) -0.266(7) 0.027(10) Uiso d 1
H H4 0.149(10) 0.496(3) -0.284(7) 0.039(13) Uiso d 1
H H10 0.663(12) 0.585(4) 0.462(9) 0.055(16) Uiso d 1
H H11 0.886(12) 0.670(3) 0.644(10) 0.054(17) Uiso d 1
H H13 1.323(13) 0.701(4) 0.226(9) 0.061(18) Uiso d 1
H H14 1.108(12) 0.620(3) 0.029(9) 0.057(17) Uiso d 1
loop_
_atom_site_aniso_label
_atom_site_aniso_U_11
_atom_site_aniso_U_22
_atom_site_aniso_U_33
_atom_site_aniso_U_12
_atom_site_aniso_U_13
_atom_site_aniso_U_23
C1 0.053(3) 0.050(3) 0.048(3) -0.005(2) 0.007(3) 0.004(2)
C2 0.043(3) 0.034(3) 0.042(3) 0.003(2) -0.003(2) 0.004(2)
C3 0.044(3) 0.047(3) 0.032(2) 0.004(2) 0.009(2) 0.001(2)
C4 0.048(3) 0.050(3) 0.041(3) 0.004(2) -0.004(2) 0.003(3)
C5 0.057(3) 0.061(4) 0.065(4) -0.005(3) -0.018(3) -0.011(3)
C6 0.050(3) 0.049(3) 0.065(4) -0.008(2) -0.009(3) 0.001(3)
C7 0.045(3) 0.051(3) 0.041(3) 0.005(2) -0.004(2) 0.006(2)
C8 0.041(3) 0.055(3) 0.030(2) 0.002(2) 0.0085(19) 0.005(2)
C9 0.045(3) 0.042(3) 0.037(3) 0.005(2) 0.001(2) 0.003(2)
C10 0.059(3) 0.055(4) 0.041(3) 0.001(3) 0.009(3) 0.004(3)
C11 0.077(4) 0.056(4) 0.041(3) 0.007(3) 0.007(3) -0.009(3)
C12 0.063(4) 0.041(3) 0.061(4) 0.005(2) -0.007(3) -0.008(3)
C13 0.059(4) 0.042(3) 0.074(4) -0.006(3) 0.010(3) 0.001(3)
C14 0.058(3) 0.051(3) 0.047(3) 0.000(3) 0.013(3) 0.001(3)
N1 0.046(2) 0.044(2) 0.0327(19) 0.0019(18) 0.0031(17) 0.0003(19)
N2 0.084(4) 0.054(4) 0.114(6) -0.001(3) -0.008(4) -0.020(4)
O1 0.046(2) 0.058(2) 0.056(2) 0.0049(17) 0.0126(17) 0.0003(19)
O2 0.101(3) 0.059(3) 0.046(2) -0.010(2) -0.024(2) 0.0123(19)
O3 0.086(3) 0.057(2) 0.042(2) -0.008(2) 0.0018(19) 0.0139(19)
O4 0.176(7) 0.084(4) 0.089(4) -0.024(4) 0.001(4) -0.042(4)
O5 0.109(5) 0.097(4) 0.149(6) -0.040(4) 0.014(4) -0.058(4)
loop_
_atom_type_symbol
_atom_type_description
_atom_type_scat_dispersion_real
_atom_type_scat_dispersion_imag
_atom_type_scat_source
C C 0.0033 0.0016 'International Tables Vol C Tables 4.2.6.8 and 6.1.1.4'
H H 0.0000 0.0000 'International Tables Vol C Tables 4.2.6.8 and 6.1.1.4'
N N 0.0061 0.0033 'International Tables Vol C Tables 4.2.6.8 and 6.1.1.4'
O O 0.0106 0.0060 'International Tables Vol C Tables 4.2.6.8 and 6.1.1.4'
loop_
_geom_angle_atom_site_label_1
_geom_angle_atom_site_label_2
_geom_angle_atom_site_label_3
_geom_angle
O1 C1 C6 101.6(4)
O1 C1 C2 100.6(4)
C6 C1 C2 105.5(5)
O1 C1 H1 107(4)
C6 C1 H1 120(3)
C2 C1 H1 119(3)
C7 C2 C3 105.1(4)
C7 C2 C1 112.4(5)
C3 C2 C1 101.1(4)
C7 C2 H2 110(3)
C3 C2 H2 119(3)
C1 C2 H2 109(3)
C8 C3 C4 112.4(4)
C8 C3 C2 104.9(4)
C4 C3 C2 101.5(4)
C8 C3 H3 108(3)
C4 C3 H3 113(3)
C2 C3 H3 117(3)
O1 C4 C5 101.2(5)
O1 C4 C3 99.8(4)
C5 C4 C3 108.0(5)
O1 C4 H4 112(3)
C5 C4 H4 123(3)
C3 C4 H4 111(3)
C6 C5 C4 106.6(5)
C6 C5 H5 126.7
C4 C5 H5 126.7
C5 C6 C1 105.9(5)
C5 C6 H6 127.0
C1 C6 H6 127.0
O2 C7 N1 124.1(5)
O2 C7 C2 127.1(5)
N1 C7 C2 108.8(4)
O3 C8 N1 123.1(5)
O3 C8 C3 128.0(4)
N1 C8 C3 108.9(4)
C14 C9 C10 121.6(5)
C14 C9 N1 120.5(5)
C10 C9 N1 117.8(5)
C11 C10 C9 118.5(6)
C11 C10 H10 121(4)
C9 C10 H10 120(4)
C12 C11 C10 119.4(6)
C12 C11 H11 128(4)
C10 C11 H11 112(4)
C11 C12 C13 122.8(6)
C11 C12 N2 118.7(6)
C13 C12 N2 118.4(7)
C12 C13 C14 118.2(6)
C12 C13 H13 123(4)
C14 C13 H13 118(4)
C9 C14 C13 119.5(6)
C9 C14 H14 127(4)
C13 C14 H14 113(4)
C7 N1 C8 112.1(4)
C7 N1 C9 122.8(4)
C8 N1 C9 124.8(4)
O5 N2 O4 123.9(7)
O5 N2 C12 119.0(8)
O4 N2 C12 117.0(8)
C1 O1 C4 96.0(4)
loop_
_geom_bond_atom_site_label_1
_geom_bond_atom_site_label_2
_geom_bond_distance
C1 O1 1.441(7)
C1 C6 1.512(8)
C1 C2 1.558(8)
C1 H1 0.96(6)
C2 C7 1.499(7)
C2 C3 1.540(7)
C2 H2 0.89(6)
C3 C8 1.495(8)
C3 C4 1.532(7)
C3 H3 0.94(5)
C4 O1 1.450(7)
C4 C5 1.508(9)
C4 H4 1.00(5)
C5 C6 1.303(9)
C5 H5 0.9300
C6 H6 0.9300
C7 O2 1.202(6)
C7 N1 1.393(7)
C8 O3 1.205(6)
C8 N1 1.401(6)
C9 C14 1.369(8)
C9 C10 1.388(7)
C9 N1 1.430(6)
C10 C11 1.380(9)
C10 H10 0.94(7)
C11 C12 1.351(10)
C11 H11 0.86(7)
C12 C13 1.380(9)
C12 N2 1.484(8)
C13 C14 1.381(9)
C13 H13 0.89(7)
C14 H14 0.95(6)
N2 O5 1.186(9)
N2 O4 1.238(10)
loop_
_geom_hbond_atom_site_label_D
_geom_hbond_atom_site_label_H
_geom_hbond_atom_site_label_A
_geom_hbond_site_symmetry_A
_geom_hbond_distance_DH
_geom_hbond_distance_HA
_geom_hbond_distance_DA
_geom_hbond_angle_DHA
C2 H2 O4 2_746 0.89(6) 2.55(6) 3.228(8) 134(4)
C10 H10 O3 1_556 0.94(7) 2.51(6) 3.143(8) 124(5)

_cod_database_fobs_code 2021934
