#------------------------------------------------------------------------------
#$Date: 2019-12-26 21:30:02 +0200 (Thu, 26 Dec 2019) $
#$Revision: 246112 $
#$URL: file:///home/coder/svn-repositories/cod/cif/2/02/18/2021888.cif $
#------------------------------------------------------------------------------
#
# This file is available in the Crystallography Open Database (COD),
# http://www.crystallography.net/. The original data for this entry
# were provided by IUCr Journals, http://journals.iucr.org/.
#
# The file may be used within the scientific community so long as
# proper attribution is given to the journal article from which the
# data were obtained.
#
data_2021888
loop_
_publ_author_name
'Udovenko, Anatoly A.'
'Pogoreltsev, Evgeny I.'
'Marchenko, Yuri V.'
'Laptash, Natalia M.'
_publ_section_title
;
 Orientational disorder and phase transitions in ammonium
 oxofluorovanadates, (NH4)3VOF5 and (NH4)3VO2F4&#x000D;
;
_journal_issue                   6
_journal_name_full
'Acta Crystallographica Section B Structural Science, Crystal Engineering and Materials'
_journal_page_first              1085
_journal_paper_doi               10.1107/S2052520617012422
_journal_volume                  73
_journal_year                    2017
_chemical_formula_moiety         'H12 N3 V O2 F4'
_chemical_formula_sum            'F4 H12 N3 O2 V'
_chemical_formula_weight         213.07
_chemical_name_common            tetrafluorodioxovanadium
_chemical_name_systematic        tetrafluorodioxovanadium
_space_group_crystal_system      orthorhombic
_space_group_IT_number           23
_space_group_name_Hall           'I 2 2'
_space_group_name_H-M_alt        'I 2 2 2'
_audit_creation_method           SHELXL-2014/7
_cell_angle_alpha                90
_cell_angle_beta                 90
_cell_angle_gamma                90
_cell_formula_units_Z            6
_cell_length_a                   6.2738(3)
_cell_length_b                   9.1388(4)
_cell_length_c                   18.8424(8)
_cell_measurement_reflns_used    3096
_cell_measurement_temperature    296(2)
_cell_measurement_theta_max      29.30
_cell_measurement_theta_min      2.48
_cell_volume                     1080.33(8)
_computing_cell_refinement       'Bruker SAINT'
_computing_data_collection       'Bruker APEX2'
_computing_data_reduction        'Bruker SAINT'
_computing_molecular_graphics    'Bruker SHELXTL'
_computing_publication_material  'Bruker SHELXTL'
_computing_structure_refinement  'SHELXL-2014/7 (Sheldrick, 2014)'
_computing_structure_solution    'SHELXS-97 (Sheldrick, 2008)'
_diffrn_ambient_temperature      296(2)
_diffrn_detector_area_resol_mean 8.33
_diffrn_measured_fraction_theta_full 1.000
_diffrn_measured_fraction_theta_max 1.000
_diffrn_measurement_device_type  'Bruker APEX-II CCD'
_diffrn_measurement_method       '\w scans'
_diffrn_radiation_type           MoK\a
_diffrn_radiation_wavelength     0.71073
_diffrn_reflns_av_R_equivalents  0.0195
_diffrn_reflns_av_unetI/netI     0.0161
_diffrn_reflns_Laue_measured_fraction_full 1.000
_diffrn_reflns_Laue_measured_fraction_max 1.000
_diffrn_reflns_limit_h_max       7
_diffrn_reflns_limit_h_min       -8
_diffrn_reflns_limit_k_max       12
_diffrn_reflns_limit_k_min       -12
_diffrn_reflns_limit_l_max       26
_diffrn_reflns_limit_l_min       -26
_diffrn_reflns_number            6313
_diffrn_reflns_point_group_measured_fraction_full 1.000
_diffrn_reflns_point_group_measured_fraction_max 1.000
_diffrn_reflns_theta_full        25.242
_diffrn_reflns_theta_max         29.750
_diffrn_reflns_theta_min         2.162
_exptl_absorpt_coefficient_mu    1.409
_exptl_absorpt_correction_type   multi-scan
_exptl_absorpt_process_details   'Bruker SADABS'
_exptl_crystal_colour            Orange
_exptl_crystal_density_diffrn    1.965
_exptl_crystal_description       plate
_exptl_crystal_F_000             648
_exptl_crystal_size_max          0.200
_exptl_crystal_size_mid          0.200
_exptl_crystal_size_min          0.120
_exptl_transmission_factor_max   0.7461
_exptl_transmission_factor_min   0.6518
_refine_diff_density_max         0.614
_refine_diff_density_min         -0.436
_refine_diff_density_rms         0.123
_refine_ls_abs_structure_details
;
 Refined as an inversion twin.
;
_refine_ls_extinction_coef       0.0046(12)
_refine_ls_extinction_expression Fc^*^=kFc[1+0.001xFc^2^\l^3^/sin(2\q)]^-1/4^
_refine_ls_extinction_method     'SHELXL-2014/7 (Sheldrick 2014'
_refine_ls_goodness_of_fit_ref   0.979
_refine_ls_hydrogen_treatment    undef
_refine_ls_matrix_type           full
_refine_ls_number_parameters     118
_refine_ls_number_reflns         1555
_refine_ls_number_restraints     0
_refine_ls_restrained_S_all      0.979
_refine_ls_R_factor_all          0.0507
_refine_ls_R_factor_gt           0.0443
_refine_ls_shift/su_max          0.005
_refine_ls_shift/su_mean         0.001
_refine_ls_structure_factor_coef Fsqd
_refine_ls_weighting_details
'w=1/[\s^2^(Fo^2^)+(0.0872P)^2^+1.6871P] where P=(Fo^2^+2Fc^2^)/3'
_refine_ls_weighting_scheme      calc
_refine_ls_wR_factor_gt          0.1307
_refine_ls_wR_factor_ref         0.1386
_reflns_Friedel_coverage         0.710
_reflns_Friedel_fraction_full    1.000
_reflns_Friedel_fraction_max     1.000
_reflns_number_gt                1348
_reflns_number_total             1555
_reflns_threshold_expression     'I > 2\s(I)'
_cod_data_source_file            bp5101sup1.cif
_cod_data_source_block           III
_cod_database_code               2021888
_publcif_datablock.id            {7d3a8feb-6ada-411e-8a65-8654a304d21a}
_shelx_space_group_comment
;
The symmetry employed for this shelxl refinement is uniquely defined
by the following loop, which should always be used as a source of
symmetry information in preference to the above space-group names.
They are only intended as comments.
;
_shelx_estimated_absorpt_t_min   0.766
_shelx_estimated_absorpt_t_max   0.849
_shelx_res_file
;

    x23.res created by SHELXL-2014/7


TITL x23 in I222
CELL 0.71073   6.2738   9.1388  18.8424  90.000  90.000  90.000
ZERR    6.00   0.0003   0.0004   0.0008   0.000   0.000   0.000
LATT -2
SYMM -X, -Y, Z
SYMM -X, Y, -Z
SYMM X, -Y, -Z
SFAC N  H  O  F  V
UNIT 18 72  12 24 6
L.S. 4
ACTA
BOND
FMAP 2
PLAN 3
TWIN -1 0 0 0 -1 0 0 0 -1
SIZE  0.20 0.20 0.12
CONN 10 1.8 V1 V2 F1 F2 F3 F4 F5 F6 F7 F8 F9 N1 N2 N2 N3 N4
DAMP 1000
TEMP 23.000
WGHT    0.087200    1.687100
EXTI    0.004584
BASF   0.44689
FVAR       0.14415
MOLE 1
V1    5    0.008727    0.018605    0.314815    10.50000    0.03920    0.02510 =
         0.02477    0.00518    0.01082   -0.00832
F1    4   -0.000401    0.796505    0.325614    11.00000    0.08603    0.02204 =
         0.07102    0.00407    0.01270   -0.00009
F2    4    0.209036    0.000936    0.257010    11.00000    0.04250    0.08358 =
         0.04211    0.00452    0.01647    0.00688
F3    4    0.210611    0.998896    0.396862    11.00000    0.04186    0.07266 =
         0.03549    0.00482   -0.01964   -0.00431
MOLE 2
V2    5    0.027413    0.021145    0.005126    10.25000    0.02211    0.02075 =
         0.03007   -0.00734   -0.00747   -0.00412
F4    4    0.000000    0.000000    0.099066    10.25000    0.09737    0.03525 =
         0.01443    0.00000    0.00000   -0.00785
F5    4    0.703807    0.000000    0.000000    10.25000    0.02173    0.03807 =
         0.05973    0.00960    0.00000    0.00000
F6    4    0.000000    0.205051    0.000000    10.25000    0.03297    0.02150 =
         0.05877    0.00000    0.00487    0.00000
F7    4    0.187171    0.141284   -0.032162    10.25000    0.03873    0.07233 =
         0.17666    0.07038    0.03971   -0.00499
F8    4    0.799452    0.140547   -0.018842    10.25000    0.04419    0.03242 =
         0.08407   -0.01479   -0.00426    0.02166
F9    4    0.099389    0.020265    0.089833    10.25000    0.15198    0.16756 =
         0.05278   -0.05825   -0.04595    0.05549
MOLE 3
N1    1    0.001453    0.270053    0.170124    11.00000    0.03809    0.03537 =
         0.04472   -0.00066   -0.00340   -0.00104
N2    1    0.000000    0.500000    0.364797    10.50000    0.05020    0.04065 =
         0.03992    0.00000    0.00000   -0.00008
N3    1    0.500000    0.071998    0.500000    10.25000    0.04631    0.03545 =
         0.03836    0.00000    0.00558    0.00000
N4    1    0.060277    0.200991    0.500346    10.50000    0.04576    0.03153 =
         0.02974   -0.00254   -0.00505   -0.00714
HKLF 4

REM  x23 in I222
REM R1 =  0.0443 for    1348 Fo > 4sig(Fo)  and  0.0507 for all    1555 data
REM    118 parameters refined using      0 restraints

END

WGHT      0.0993      0.8161

REM Highest difference peak  0.614,  deepest hole -0.436,  1-sigma level  0.123
Q1    1   0.0000  0.2501  0.5000  10.50000  0.05    0.57
Q2    1  -0.0022  0.2487  0.2118  11.00000  0.05    0.57
Q3    1   0.0044  0.2099  0.1480  11.00000  0.05    0.56
;
_shelx_res_checksum              24307
_shelx_hkl_file
;
  -2   0   0  492.47    9.36
  -2   0   0  485.17    9.33
   4   0   0  438.55    8.55
  -4   0   0  452.86    8.65
  -4   0   0  455.42    8.66
  -6   0   0   51.63    1.05
  -6   0   0   50.32    1.09
  -8   0   0    1.60    0.17
  -1   1   0  484.58    9.15
  -3  -1   0    8.38    0.21
  -3   1   0    8.12    0.21
   3  -1   0    8.21    0.19
  -3   1   0    8.32    0.20
  -3  -1   0    8.32    0.21
   3   1   0    8.54    0.18
  -5  -1   0   96.45    1.89
  -5   1   0   97.12    1.87
   5  -1   0   95.40    1.85
  -5   1   0   95.48    1.90
  -5  -1   0   96.49    1.90
   5   1   0   95.04    1.83
  -7  -1   0    0.11    0.06
  -7  -1   0   -0.05    0.06
  -7   1   0   -0.04    0.07
   0  -2   0  509.53    9.88
   0  -2   0  529.23    9.92
   2  -2   0   73.55    1.41
   2   2   0   72.89    1.42
  -2  -2   0   73.48    1.43
  -2   2   0   72.51    1.41
  -4   2   0   63.79    1.22
   4  -2   0   62.61    1.22
  -4  -2   0   61.99    1.25
  -4   2   0   60.50    1.25
  -4  -2   0   63.51    1.24
   4   2   0   61.25    1.20
  -6  -2   0    4.60    0.19
  -6   2   0    4.49    0.20
  -6  -2   0    4.48    0.19
  -8   2   0   -0.03    0.08
  -8  -2   0    0.08    0.09
   1  -3   0   53.32    1.04
   1  -3   0   53.43    1.03
  -1   3   0   55.46    1.02
  -1  -3   0   53.38    1.03
  -1  -3   0   51.88    1.05
  -3  -3   0    3.39    0.11
  -3   3   0    3.45    0.10
  -3   3   0    3.29    0.12
   3  -3   0    3.43    0.12
   3   3   0    3.34    0.10
  -3  -3   0    3.34    0.13
  -5   3   0   32.69    0.73
   5  -3   0   32.87    0.70
  -5  -3   0   33.94    0.74
  -5  -3   0   33.21    0.72
  -7  -3   0    0.67    0.10
  -7  -3   0    0.78    0.11
  -7   3   0    0.63    0.12
   0  -4   0  926.30   18.30
   0  -4   0 1000.00   18.39
   2  -4   0  141.58    2.65
  -2  -4   0  134.36    2.65
  -2   4   0  145.19    2.65
   2  -4   0  139.17    2.67
  -2  -4   0  137.12    2.69
   4  -4   0  151.87    2.94
  -4   4   0  152.24    2.91
  -4   4   0  151.22    2.95
  -4  -4   0  156.97    2.93
  -4  -4   0  154.06    2.98
   4   4   0  152.68    2.90
  -6  -4   0   17.31    0.44
   6  -4   0   17.07    0.41
  -6  -4   0   17.15    0.46
  -6   4   0   16.28    0.45
  -8  -4   0    1.76    0.16
  -8  -4   0    1.96    0.17
  -8   4   0    1.94    0.19
  -1  -5   0  268.69    5.22
   1  -5   0  271.46    5.22
  -1  -5   0  265.22    5.20
   1  -5   0  263.63    5.27
  -1   5   0  271.14    5.10
   3   5   0   53.24    1.04
   3  -5   0   53.23    1.03
  -3  -5   0   52.49    1.10
   3  -5   0   52.28    1.08
  -3   5   0   52.11    1.06
  -3  -5   0   54.08    1.04
  -5   5   0   31.93    0.74
  -5  -5   0   33.41    0.77
   5  -5   0   33.72    0.73
  -5  -5   0   34.07    0.72
  -7   5   0    0.35    0.10
  -7  -5   0    0.15    0.08
  -7  -5   0    0.34    0.09
   0  -6   0  261.66    5.07
   0  -6   0  265.82    5.01
  -2  -6   0    3.37    0.15
  -2  -6   0    3.36    0.13
   2  -6   0    3.24    0.14
   2  -6   0    3.21    0.11
  -2   6   0    3.16    0.12
  -2  -6   0    3.44    0.09
  -4  -6   0   28.48    0.59
  -4   6   0   26.90    0.62
   4   6   0   28.10    0.58
   4  -6   0   28.24    0.63
  -4  -6   0   26.91    0.65
  -6   6   0    2.50    0.17
   6  -6   0    2.75    0.15
  -6  -6   0    2.28    0.17
  -1  -7   0   13.60    0.36
  -1   7   0   13.85    0.30
   1  -7   0   14.25    0.34
   1  -7   0   14.03    0.36
  -1  -7   0   13.41    0.34
  -3   7   0    0.05    0.05
  -3  -7   0    0.09    0.04
   3  -7   0    0.18    0.06
  -3  -7   0    0.11    0.07
  -5  -7   0   11.06    0.36
   5  -7   0   10.69    0.32
  -5   7   0   11.02    0.33
  -7   7   0    0.19    0.10
  -7  -7   0    0.14    0.09
   0  -8   0   38.73    0.84
   0  -8   0   39.51    0.84
   2  -8   0    0.13    0.06
  -2  -8   0    0.15    0.05
  -2  -8   0    0.17    0.07
   2  -8   0    0.17    0.05
  -4  -8   0    9.42    0.33
   4  -8   0   11.93    0.33
  -4   8   0   10.05    0.30
  -6   8   0    1.57    0.15
   6  -8   0    1.56    0.14
  -6  -8   0    1.64    0.17
  -1  -9   0    9.03    0.28
   1  -9   0    8.89    0.29
   1  -9   0    9.17    0.26
  -1  -9   0    8.76    0.28
  -3  -9   0    2.73    0.14
  -3  -9   0    2.84    0.17
   3  -9   0    2.66    0.16
   5  -9   0    1.65    0.15
  -5  -9   0    1.68    0.17
   0 -10   0   28.61    0.68
   0 -10   0   29.59    0.68
  -2 -10   0    8.32    0.28
   2 -10   0    8.78    0.30
  -2 -10   0    8.86    0.30
   4 -10   0    6.20    0.26
  -4 -10   0    6.72    0.29
  -1 -11   0    1.92    0.15
  -1 -11   0    2.36    0.15
   1 -11   0    2.19    0.16
   3 -11   0    1.20    0.14
  -3 -11   0    1.25    0.15
   0 -12   0    0.17    0.07
   0 -12   0    0.14    0.08
   2 -12   0    1.10    0.14
  -2 -12   0    1.55    0.16
  -2 -12   0    1.07    0.13
   1   0   1    1.24    0.04
   1   0  -1    1.26    0.03
  -1   0   1    1.38    0.04
  -1   0  -1    1.19    0.04
  -1   0  -1    1.21    0.04
  -3   0  -1   13.15    0.31
  -3   0   1   13.56    0.31
  -3   0  -1   13.94    0.30
   3   0  -1   14.01    0.28
   3   0   1   13.67    0.29
   5   0  -1    0.26    0.04
  -5   0   1    0.19    0.06
  -5   0  -1    0.23    0.07
  -5   0   1    0.27    0.07
  -5   0  -1    0.13    0.06
   5   0   1    0.29    0.04
  -7   0   1    3.20    0.19
  -7   0  -1    3.81    0.20
   0  -1  -1    0.25    0.01
   0  -1  -1    0.26    0.02
   0  -1   1    0.30    0.02
   0  -1  -1    0.25    0.02
   0  -1   1    0.26    0.02
   0   1  -1    0.26    0.02
  -2  -1  -1   19.88    0.41
  -2   1   1   20.11    0.41
   2   1  -1   20.34    0.38
  -2  -1  -1   19.91    0.41
   2  -1   1   20.52    0.41
   2   1   1   19.79    0.40
   2  -1  -1   20.07    0.40
  -2  -1   1   19.77    0.42
  -2   1  -1   19.29    0.41
  -2   1  -1   20.42    0.39
   4  -1   1    0.30    0.04
  -4   1   1    0.26    0.05
  -4  -1  -1    0.22    0.05
  -4   1   1    0.26    0.05
   4   1  -1    0.28    0.03
  -4  -1  -1    0.22    0.05
   4   1   1    0.25    0.04
  -4   1  -1    0.18    0.05
  -4   1  -1    0.23    0.04
  -4  -1   1    0.22    0.05
  -4  -1   1    0.27    0.06
   4  -1  -1    0.22    0.03
  -6   1   1    0.60    0.09
  -6   1   1    0.29    0.07
  -6  -1  -1    0.53    0.08
  -6  -1  -1    0.09    0.07
  -6  -1   1    0.57    0.08
  -6   1  -1    0.40    0.08
  -6  -1   1    0.45    0.09
  -8   1   1    0.04    0.08
  -8  -1  -1    0.06    0.09
  -8   1  -1    0.06    0.09
  -8  -1   1    0.18    0.08
  -1  -2  -1    0.39    0.04
   1   2  -1    0.42    0.03
   1  -2   1    0.45    0.04
  -1  -2  -1    0.45    0.03
   1  -2   1    0.43    0.02
  -1  -2  -1    0.37    0.03
  -1  -2   1    0.38    0.04
  -1  -2   1    0.41    0.03
   1  -2  -1    0.41    0.03
  -1   2  -1    0.41    0.04
   1  -2  -1    0.42    0.04
  -3   2   1   21.05    0.47
   3  -2   1   22.23    0.46
  -3  -2  -1   21.12    0.47
  -3   2   1   22.03    0.45
  -3  -2  -1   21.50    0.46
   3   2  -1   22.17    0.43
  -3   2  -1   20.99    0.47
   3   2   1   21.88    0.44
  -3  -2   1   20.64    0.47
   3  -2  -1   22.05    0.45
  -3   2  -1   22.55    0.43
   5  -2   1   14.80    0.34
  -5  -2  -1   14.54    0.37
  -5   2   1   14.81    0.38
  -5  -2  -1   14.22    0.37
  -5   2   1   14.70    0.34
  -5  -2   1   14.15    0.37
  -5  -2   1   13.52    0.37
  -5   2  -1   14.60    0.32
  -5   2  -1   14.34    0.38
   5  -2  -1   14.70    0.33
  -7  -2  -1    0.07    0.07
  -7  -2  -1   -0.01    0.07
  -7   2   1   -0.03    0.07
  -7  -2   1    0.01    0.07
  -7   2  -1    0.06    0.08
  -7  -2   1    0.13    0.07
   0  -3   1   10.52    0.24
   0  -3  -1   10.80    0.24
   0  -3  -1   10.75    0.24
   0   3  -1   11.09    0.22
   0  -3   1   11.09    0.24
   2  -3   1  125.11    2.40
  -2   3   1  124.33    2.36
   2  -3   1  118.99    2.38
  -2  -3  -1  128.76    2.35
  -2  -3  -1  124.12    2.40
  -2   3  -1  126.47    2.37
   2   3   1  121.64    2.40
   2  -3  -1  125.64    2.38
  -2  -3   1  125.89    2.37
   2  -3  -1  124.63    2.39
  -2  -3   1  124.76    2.40
   4  -3   1    0.14    0.04
  -4   3   1    0.05    0.04
  -4  -3  -1    0.08    0.05
  -4   3   1    0.08    0.05
  -4  -3  -1    0.18    0.05
   4   3  -1    0.14    0.03
  -4  -3   1    0.07    0.06
  -4   3  -1    0.13    0.05
  -4  -3   1    0.08    0.04
   4  -3  -1    0.08    0.04
  -4   3  -1    0.14    0.04
   4   3   1    0.09    0.04
  -6  -3  -1    0.40    0.08
  -6   3   1    0.04    0.06
   6  -3   1    0.06    0.05
  -6  -3  -1    0.00    0.06
  -6  -3   1    0.06    0.06
  -6  -3   1    0.13    0.07
  -6   3  -1   -0.04    0.06
  -8  -3  -1   -0.06    0.08
  -8   3   1    0.01    0.09
  -8  -3   1    0.10    0.08
  -8  -3   1   -0.09    0.07
  -8   3  -1    0.04    0.10
  -1  -4  -1    0.78    0.06
   1  -4   1    0.72    0.05
  -1   4   1    0.73    0.04
  -1  -4  -1    0.73    0.05
   1  -4   1    0.68    0.06
   1   4  -1    0.77    0.04
   1  -4  -1    0.70    0.05
  -1  -4   1    0.64    0.06
   1  -4  -1    0.80    0.05
  -1   4  -1    0.72    0.05
  -1  -4   1    0.73    0.05
  -3  -4  -1   27.75    0.56
  -3   4   1   27.11    0.57
   3  -4   1   26.82    0.58
  -3  -4  -1   26.59    0.59
   3   4  -1   27.05    0.54
   3   4   1   27.15    0.55
  -3   4  -1   27.33    0.58
   3  -4  -1   27.03    0.55
  -3  -4   1   26.67    0.60
   3  -4  -1   27.47    0.58
  -5  -4  -1    5.80    0.20
   5  -4   1    5.75    0.19
  -5  -4  -1    5.70    0.22
  -5   4   1    5.76    0.21
  -5   4  -1    6.08    0.22
  -5  -4   1    5.37    0.21
   5  -4  -1    5.84    0.18
  -5  -4   1    5.34    0.19
  -7  -4  -1    1.84    0.15
  -7  -4  -1    1.71    0.15
  -7   4   1    1.54    0.15
  -7   4  -1    1.62    0.16
  -7  -4   1    1.68    0.15
  -7  -4   1    1.77    0.15
   0  -5   1    9.35    0.24
   0  -5   1    9.59    0.24
   0  -5  -1    9.95    0.25
   0  -5  -1    9.80    0.24
   0   5  -1    9.84    0.20
  -2  -5  -1    4.80    0.15
  -2   5   1    4.78    0.14
   2  -5   1    4.64    0.13
   2  -5   1    4.54    0.16
  -2  -5  -1    4.65    0.17
  -2  -5  -1    5.06    0.12
  -2   5  -1    4.90    0.14
  -2  -5   1    5.09    0.14
   2  -5  -1    4.74    0.16
   2  -5  -1    4.76    0.14
  -2  -5   1    4.87    0.17
  -4  -5  -1    0.22    0.05
   4  -5   1    0.11    0.05
  -4   5   1    0.09    0.06
   4   5  -1    0.19    0.04
  -4  -5  -1   -0.04    0.06
  -4   5  -1    0.10    0.06
  -4  -5   1    0.24    0.08
   4   5   1    0.13    0.04
   4  -5  -1    0.17    0.06
  -4  -5   1    0.23    0.05
  -6  -5  -1    0.36    0.08
  -6  -5  -1    0.46    0.10
  -6   5   1    0.47    0.09
   6  -5   1    0.36    0.07
  -6  -5   1    0.24    0.07
  -6  -5   1    0.51    0.11
   6  -5  -1    0.36    0.07
  -6   5  -1    0.43    0.09
  -8   5   1    0.07    0.10
  -8  -5  -1    0.09    0.08
  -8  -5   1    0.13    0.09
  -8   5  -1    0.05    0.10
  -8  -5   1   -0.11    0.07
  -1  -6  -1    3.29    0.13
   1  -6   1    3.20    0.13
  -1   6   1    3.35    0.10
  -1  -6  -1    3.45    0.14
   1  -6   1    3.36    0.12
  -1  -6   1    3.36    0.14
   1  -6  -1    3.53    0.12
  -1  -6   1    3.35    0.13
   1  -6  -1    3.28    0.14
  -1   6  -1    3.33    0.11
   3  -6   1   -0.02    0.05
  -3   6   1    0.04    0.05
  -3  -6  -1   -0.07    0.06
  -3  -6  -1    0.08    0.03
   3  -6   1    0.00    0.03
  -3  -6   1    0.02    0.03
  -3  -6   1    0.07    0.07
  -3  -6   1    0.07    0.04
  -3   6  -1   -0.07    0.05
   3   6   1   -0.10    0.04
   3  -6  -1    0.02    0.04
   3  -6  -1   -0.01    0.05
  -5  -6  -1    2.31    0.15
  -5   6   1    2.26    0.14
   5  -6   1    2.15    0.13
  -5  -6   1    2.22    0.16
  -5   6  -1    2.02    0.14
  -5  -6   1    2.24    0.12
   5  -6  -1    2.14    0.13
  -7   6   1    0.00    0.09
  -7  -6  -1    0.05    0.09
  -7   6  -1   -0.12    0.08
  -7  -6   1    0.02    0.08
   0  -7  -1   20.77    0.48
   0  -7   1   21.38    0.49
   0  -7  -1   21.11    0.49
   0  -7   1   20.73    0.48
  -2  -7  -1    8.28    0.24
  -2   7   1    8.32    0.21
  -2  -7  -1    7.77    0.26
   2  -7   1    8.32    0.22
   2  -7   1    8.50    0.26
   2  -7  -1    8.57    0.26
  -2  -7   1    8.18    0.26
  -2   7  -1    8.38    0.22
   2  -7  -1    8.34    0.22
  -2  -7   1    8.24    0.23
  -4   7   1    1.18    0.10
  -4  -7  -1    1.16    0.12
   4  -7   1    1.24    0.11
  -4  -7   1    1.14    0.12
   4   7   1    1.18    0.09
   4  -7  -1    1.01    0.10
  -4   7  -1    1.31    0.11
   6  -7   1    0.18    0.07
  -6   7   1    0.35    0.09
  -6  -7  -1    0.26    0.10
  -6  -7   1    0.31    0.10
   6  -7  -1    0.38    0.08
  -6   7  -1    0.23    0.08
  -1  -8  -1    0.63    0.08
   1  -8   1    0.69    0.07
  -1  -8  -1    0.77    0.08
   1  -8   1    0.56    0.08
   1  -8  -1    0.84    0.08
  -1  -8   1    0.61    0.08
   1  -8  -1    0.79    0.09
  -1  -8   1    0.74    0.09
   3  -8   1    0.86    0.10
  -3  -8  -1    0.84    0.11
  -3  -8  -1    0.73    0.08
  -3  -8   1    0.68    0.10
  -3  -8   1    0.75    0.08
   3  -8  -1    0.84    0.10
  -3   8  -1    0.56    0.08
  -5  -8  -1    0.75    0.12
   5  -8   1    0.78    0.10
  -5   8   1    0.78    0.10
   5  -8  -1    0.70    0.10
  -5  -8   1    0.70    0.12
  -5   8  -1    0.81    0.11
   0  -9  -1    0.12    0.06
   0  -9  -1    0.10    0.06
   0  -9   1   -0.01    0.05
   0  -9   1    0.10    0.06
  -2  -9  -1    0.16    0.06
  -2  -9  -1    0.34    0.08
   2  -9   1    0.20    0.07
  -2  -9   1    0.04    0.05
   2  -9  -1    0.17    0.05
  -2  -9   1    0.11    0.07
   2  -9  -1    0.16    0.07
   4  -9   1   -0.07    0.06
  -4  -9  -1   -0.04    0.07
  -4  -9   1    0.02    0.07
   4  -9  -1   -0.03    0.06
  -6  -9  -1    0.06    0.10
   6  -9   1    0.06    0.08
  -6  -9   1    0.14    0.10
   6  -9  -1    0.08    0.08
   1 -10   1    1.89    0.14
  -1 -10  -1    1.62    0.13
   1 -10   1    1.89    0.12
  -1 -10  -1    2.07    0.14
  -1 -10   1    1.92    0.13
  -1 -10   1    2.01    0.14
   1 -10  -1    2.07    0.13
   1 -10  -1    1.96    0.14
  -3 -10  -1   -0.01    0.05
  -3 -10  -1   -0.03    0.07
  -3 -10   1   -0.03    0.06
   3 -10  -1    0.05    0.07
  -3 -10   1    0.00    0.08
   5 -10   1    0.83    0.12
  -5 -10  -1    0.86    0.15
   5 -10  -1    0.39    0.10
  -5 -10   1    0.89    0.14
   0 -11  -1    0.05    0.07
   0 -11   1   -0.01    0.06
   0 -11   1    0.02    0.06
   0 -11  -1   -0.03    0.06
  -2 -11  -1    0.70    0.11
  -2 -11  -1    0.37    0.09
   2 -11   1    0.63    0.11
   2 -11  -1    0.50    0.10
  -2 -11   1    0.63    0.11
  -2 -11   1    0.35    0.09
   4 -11   1    0.10    0.08
  -4 -11  -1   -0.01    0.08
  -4 -11   1    0.21    0.10
   4 -11  -1    0.08    0.08
   1 -12   1    0.18    0.08
  -1 -12  -1    0.05    0.07
  -1 -12  -1    0.00    0.07
   1 -12  -1    0.18    0.09
  -1 -12   1    0.17    0.08
  -1 -12   1    0.14    0.08
   0   0   2    3.40    0.08
   0   0  -2    3.36    0.08
  -2   0  -2   10.54    0.24
  -2   0   2   11.13    0.25
   2   0  -2   10.91    0.22
   2   0   2   11.32    0.24
  -2   0  -2   10.98    0.23
  -4   0   2   12.57    0.31
  -4   0  -2   12.65    0.32
   4   0  -2   12.55    0.26
  -4   0  -2   12.75    0.29
   4   0   2   12.21    0.29
  -6   0   2    1.23    0.12
  -6   0  -2    1.31    0.10
  -6   0  -2    0.95    0.11
  -6   0   2    1.22    0.11
  -8   0  -2    1.11    0.15
  -8   0   2    1.02    0.14
   1   1  -2    6.23    0.14
  -1  -1  -2    6.03    0.14
  -1  -1  -2    6.14    0.14
   1  -1   2    6.03    0.14
  -1  -1   2    6.14    0.12
  -1   1  -2    5.99    0.14
   1   1   2    6.05    0.14
   1  -1  -2    6.09    0.13
   1  -1  -2    6.04    0.14
  -1  -1   2    6.12    0.15
   3  -1   2    0.30    0.04
  -3  -1  -2    0.14    0.04
  -3   1   2    0.11    0.04
  -3  -1  -2    0.21    0.04
  -3   1  -2    0.23    0.03
  -3   1  -2    0.19    0.04
   3  -1  -2    0.18    0.03
   3   1   2    0.20    0.04
  -3  -1   2    0.13    0.05
  -5   1   2    9.34    0.26
  -5  -1  -2    9.18    0.25
   5  -1   2    9.33    0.24
  -5   1   2    9.30    0.28
  -5  -1  -2    9.40    0.27
  -5  -1   2    9.19    0.27
   5  -1  -2    9.29    0.21
  -5   1  -2    9.37    0.28
  -5   1  -2    9.40    0.23
  -5  -1   2    8.97    0.27
   5   1   2    9.25    0.23
  -7   1   2    0.09    0.08
  -7  -1  -2    0.04    0.07
  -7   1  -2    0.06    0.08
  -7  -1   2   -0.04    0.07
  -7  -1   2    0.14    0.07
   0  -2   2    0.70    0.04
   0  -2   2    0.60    0.04
   0   2  -2    0.62    0.04
   0  -2  -2    0.57    0.04
   0  -2  -2    0.62    0.02
   0  -2  -2    0.62    0.04
   2  -2   2   27.53    0.55
  -2  -2  -2   27.29    0.54
  -2  -2  -2   26.81    0.56
  -2  -2   2   26.54    0.57
  -2   2  -2   27.01    0.55
   2  -2  -2   27.10    0.54
   2   2   2   26.88    0.54
   2  -2  -2   27.20    0.54
  -2  -2   2   27.48    0.52
  -4  -2  -2    0.07    0.05
  -4   2   2    0.09    0.04
  -4   2   2    0.23    0.05
   4  -2   2    0.05    0.04
  -4  -2  -2    0.10    0.05
  -4  -2   2    0.11    0.06
   4  -2  -2    0.11    0.03
  -4   2  -2    0.07    0.05
   4   2   2    0.11    0.04
  -4   2  -2    0.08    0.03
   6  -2   2    0.09    0.04
  -6  -2  -2    0.09    0.06
  -6   2   2    0.11    0.07
  -6  -2  -2    0.01    0.06
  -6  -2   2    0.01    0.07
  -6  -2   2   -0.02    0.05
  -6   2  -2    0.03    0.06
  -8   2   2    0.00    0.08
  -8  -2  -2   -0.03    0.08
  -8  -2   2    0.01    0.08
  -8   2  -2   -0.03    0.09
   1   3  -2   27.36    0.52
   1  -3   2   26.14    0.55
  -1  -3  -2   26.91    0.54
   1  -3   2   27.17    0.52
  -1  -3  -2   26.23    0.55
  -1  -3  -2   26.65    0.51
  -1  -3   2   27.25    0.53
  -1  -3   2   25.93    0.55
   1  -3  -2   26.58    0.54
  -1   3  -2   27.02    0.53
   1  -3  -2   26.51    0.54
  -3  -3  -2    9.13    0.24
   3   3  -2    9.58    0.20
  -3  -3  -2    9.43    0.23
   3  -3   2    9.59    0.24
  -3   3   2    9.13    0.24
  -3   3  -2    9.12    0.24
   3   3   2    9.32    0.22
  -3  -3   2    9.28    0.25
   3  -3  -2    9.29    0.23
  -5   3   2   13.67    0.36
  -5  -3  -2   13.25    0.35
  -5  -3  -2   13.39    0.34
   5  -3   2   12.68    0.33
  -5   3   2   13.30    0.32
  -5   3  -2   12.93    0.36
   5   3   2   12.86    0.32
  -5  -3   2   13.16    0.34
  -5  -3   2   13.18    0.36
   5  -3  -2   13.39    0.32
  -7   3   2    0.27    0.09
  -7  -3  -2    0.22    0.08
  -7  -3  -2    0.43    0.09
  -7  -3   2    0.25    0.09
  -7   3  -2    0.28    0.09
  -7  -3   2    0.44    0.09
   0  -4  -2   65.57    1.27
   0   4  -2   66.07    1.24
   0  -4  -2   64.93    1.28
   0  -4   2   64.76    1.27
   0  -4   2   64.72    1.27
  -2   4   2    0.04    0.03
   2  -4   2    0.07    0.02
  -2  -4  -2    0.14    0.03
   2  -4   2    0.05    0.04
  -2  -4  -2    0.05    0.04
  -2  -4   2    0.08    0.05
   2  -4  -2    0.11    0.04
  -2  -4   2    0.07    0.03
  -2   4  -2    0.09    0.04
   2  -4  -2    0.19    0.03
   4   4  -2    9.10    0.20
  -4  -4  -2    8.81    0.24
  -4   4   2    9.28    0.23
  -4   4   2    9.21    0.26
  -4  -4  -2    9.00    0.27
   4  -4   2    9.31    0.25
  -4  -4   2    9.01    0.28
   4   4   2    9.07    0.23
   4  -4  -2    9.04    0.24
  -4   4  -2    8.86    0.26
   6  -4   2    1.93    0.12
  -6   4   2    1.69    0.14
  -6  -4  -2    1.88    0.14
  -6  -4  -2    1.78    0.13
  -6  -4   2    1.81    0.13
   6  -4  -2    2.05    0.11
  -6  -4   2    1.82    0.15
  -6   4  -2    1.98    0.15
  -8  -4  -2    0.30    0.10
  -8   4   2    0.38    0.11
  -8  -4  -2    0.35    0.10
  -8  -4   2    0.28    0.09
  -8  -4   2    0.23    0.10
  -8   4  -2    0.38    0.12
  -1  -5  -2    0.04    0.03
   1  -5   2    0.09    0.03
  -1  -5  -2    0.09    0.04
   1   5  -2    0.14    0.02
   1  -5   2    0.09    0.04
   1  -5  -2    0.12    0.04
  -1  -5   2    0.08    0.03
   1  -5  -2    0.13    0.04
  -1   5  -2    0.14    0.04
  -1  -5   2    0.02    0.04
  -3   5   2    2.94    0.12
   3  -5   2    2.98    0.08
   3  -5   2    3.25    0.14
  -3  -5  -2    3.02    0.15
  -3  -5  -2    3.29    0.11
  -3  -5   2    2.96    0.15
  -3   5  -2    3.00    0.13
   3  -5  -2    3.06    0.13
   3  -5  -2    3.05    0.11
  -3  -5   2    3.24    0.11
   3   5   2    3.16    0.12
  -5  -5  -2    3.84    0.16
  -5   5   2    4.12    0.18
  -5  -5  -2    3.94    0.18
   5  -5   2    3.78    0.16
   5  -5  -2    4.04    0.16
  -5  -5   2    4.11    0.20
  -5   5  -2    3.91    0.18
  -5  -5   2    3.92    0.16
  -7   5   2    0.15    0.09
  -7  -5  -2    0.24    0.08
  -7  -5  -2    0.14    0.08
  -7   5  -2    0.20    0.09
  -7  -5   2    0.26    0.09
  -7  -5   2    0.16    0.07
   0  -6  -2    0.10    0.05
   0  -6   2    0.05    0.04
   0   6  -2    0.09    0.03
   0  -6   2    0.09    0.04
   0  -6  -2    0.09    0.05
   2  -6   2    0.13    0.05
   2  -6   2    0.13    0.03
  -2  -6  -2    0.10    0.06
  -2   6   2    0.09    0.04
  -2  -6  -2    0.17    0.05
  -2  -6   2    0.16    0.04
   2  -6  -2    0.11    0.04
  -2  -6   2    0.06    0.06
  -2   6  -2    0.08    0.04
   2  -6  -2    0.12    0.05
   4  -6   2    0.90    0.09
  -4  -6  -2    0.75    0.10
  -4   6   2    0.96    0.09
  -4  -6   2    0.82    0.07
  -4   6  -2    0.86    0.09
   4   6   2    0.90    0.08
  -4  -6   2    0.96    0.11
   4  -6  -2    0.90    0.09
   6  -6   2   -0.01    0.05
  -6  -6  -2    0.09    0.08
  -6   6   2   -0.06    0.06
   6  -6  -2   -0.03    0.05
  -6   6  -2   -0.02    0.07
  -6  -6   2    0.00    0.08
  -1  -7  -2    0.52    0.08
   1  -7   2    0.48    0.06
   1  -7   2    0.47    0.07
  -1  -7  -2    0.43    0.07
  -1  -7   2    0.39    0.07
  -1  -7   2    0.47    0.07
   1  -7  -2    0.41    0.06
  -1   7  -2    0.52    0.05
   1  -7  -2    0.37    0.07
  -3   7   2    0.18    0.05
  -3  -7  -2    0.20    0.07
   3  -7   2    0.17    0.06
   3   7   2    0.21    0.05
   3  -7  -2    0.23    0.05
   3  -7  -2    0.23    0.06
  -3  -7   2    0.29    0.08
  -3   7  -2    0.20    0.06
  -3  -7   2    0.16    0.05
  -5   7   2    0.93    0.10
  -5  -7  -2    0.80    0.11
   5  -7   2    0.69    0.10
   5  -7  -2    0.81    0.10
  -5   7  -2    0.64    0.10
  -5  -7   2    0.84    0.12
  -7  -7  -2    0.19    0.10
  -7   7   2    0.09    0.09
   7  -7   2    0.16    0.07
  -7   7  -2   -0.03    0.10
  -7  -7   2    0.02    0.09
   0  -8   2    0.74    0.08
   0  -8   2    0.80    0.09
   0  -8  -2    0.63    0.08
   0  -8  -2    0.68    0.09
  -2  -8  -2    1.89    0.13
   2  -8   2    1.97    0.13
  -2  -8  -2    1.91    0.12
   2  -8   2    1.97    0.10
  -2  -8   2    2.02    0.14
   2  -8  -2    2.09    0.11
   2  -8  -2    1.71    0.12
  -2  -8   2    1.95    0.11
  -4   8   2    0.54    0.09
   4  -8   2    0.59    0.09
  -4  -8  -2    0.63    0.10
   4   8   2    0.80    0.09
  -4  -8   2    0.47    0.10
  -4   8  -2    0.60    0.09
   4  -8  -2    0.71    0.10
  -6  -8  -2    0.21    0.10
   6  -8   2    0.43    0.09
  -6   8   2    0.29    0.09
  -6   8  -2    0.43    0.10
   6  -8  -2    0.21    0.08
  -6  -8   2    0.47    0.11
   1  -9   2    0.05    0.06
  -1  -9  -2   -0.10    0.04
   1  -9   2    0.07    0.05
  -1  -9  -2   -0.03    0.05
   1  -9  -2    0.07    0.06
  -1  -9   2    0.02    0.05
  -1  -9   2   -0.03    0.05
   1  -9  -2   -0.10    0.04
  -3  -9  -2    0.72    0.11
   3  -9   2    0.65    0.10
  -3  -9   2    0.81    0.09
   3  -9  -2    0.62    0.09
  -3  -9   2    0.66    0.11
  -5  -9  -2    0.64    0.12
   5  -9   2    0.36    0.09
  -5  -9   2    0.40    0.11
   5  -9  -2    0.40    0.09
   0 -10  -2    0.73    0.10
   0 -10  -2    0.60    0.10
   0 -10   2    0.70    0.09
   0 -10   2    0.58    0.09
  -2 -10  -2    0.05    0.06
  -2 -10  -2   -0.08    0.06
   2 -10   2   -0.03    0.06
  -2 -10   2    0.01    0.06
  -2 -10   2   -0.02    0.05
   2 -10  -2    0.04    0.07
   4 -10   2    0.34    0.09
  -4 -10  -2    0.42    0.10
  -4 -10   2    0.34    0.11
   4 -10  -2    0.30    0.09
  -1 -11  -2    0.86    0.11
   1 -11   2    0.60    0.10
  -1 -11  -2    0.57    0.10
  -1 -11   2    0.79    0.11
  -1 -11   2    0.50    0.10
   1 -11  -2    0.74    0.10
   1 -11  -2    0.66    0.11
  -3 -11  -2    0.02    0.07
   3 -11   2    0.11    0.08
   3 -11  -2    0.08    0.07
  -3 -11   2    0.16    0.09
   3  11   2    0.15    0.07
   0 -12  -2    0.06    0.07
   0 -12  -2    0.12    0.07
   0 -12   2   -0.01    0.07
  -2 -12  -2    0.10    0.08
  -2 -12  -2    0.03    0.07
   2 -12   2   -0.09    0.07
  -2 -12   2    0.02    0.08
   2 -12  -2    0.02    0.08
  -2 -12   2    0.03    0.07
  -1   0   3  384.36    7.61
   1   0  -3  422.48    7.57
  -1   0  -3  395.07    7.54
   1   0   3  384.43    7.59
  -1   0  -3  392.26    7.56
  -3   0  -3  127.69    2.46
  -3   0   3  128.32    2.48
   3   0   3  127.65    2.45
   3   0  -3  130.04    2.44
  -3   0  -3  129.40    2.47
  -5   0  -3   66.97    1.37
   5   0   3   67.51    1.33
  -5   0   3   66.55    1.36
  -5   0  -3   68.70    1.33
  -7   0  -3    5.20    0.24
  -7   0   3    4.50    0.20
  -7   0   3    4.62    0.22
   0  -1   3  345.26    7.44
   0   1  -3  433.82    7.47
   0  -1  -3  410.20    7.51
   0  -1   3  376.56    7.47
   2  -1   3   20.64    0.43
  -2  -1  -3   20.72    0.42
  -2  -1  -3   20.57    0.43
   2   1  -3   20.65    0.43
  -2   1   3   20.24    0.43
   2  -1  -3   20.89    0.41
  -2   1  -3   20.38    0.43
  -2   1  -3   20.54    0.40
   2   1   3   20.55    0.42
  -2  -1   3   21.03    0.44
  -4  -1  -3   82.24    1.64
   4  -1   3   83.59    1.62
  -4  -1  -3   84.29    1.63
  -4   1   3   84.14    1.64
   4  -1  -3   82.31    1.59
  -4  -1   3   82.56    1.65
   4   1   3   84.35    1.62
  -4   1  -3   85.45    1.60
  -4   1  -3   81.72    1.64
  -6  -1  -3   10.07    0.31
  -6   1   3   10.34    0.29
  -6   1   3   10.26    0.32
   6  -1   3   10.01    0.27
  -6  -1  -3   10.43    0.28
  -6  -1   3   10.43    0.32
  -6   1  -3    9.98    0.32
  -6  -1   3   10.43    0.31
  -8  -1  -3    0.60    0.13
  -8   1   3    0.58    0.12
  -8   1  -3    0.79    0.13
  -8  -1   3    0.78    0.13
  -1  -2  -3  333.47    6.33
  -1  -2  -3  343.20    6.45
   1   2  -3  348.11    6.36
   1  -2   3  315.78    6.45
   1   2   3  299.28    6.38
   1  -2  -3  327.01    6.44
  -1  -2   3  329.64    6.44
   1  -2  -3  353.01    6.42
  -1  -2   3  329.88    6.33
  -1   2  -3  346.56    6.40
  -3  -2  -3  117.99    2.23
  -3  -2  -3  115.51    2.25
   3  -2   3  118.02    2.24
  -3   2   3  116.31    2.24
  -3  -2   3  116.51    2.27
  -3   2  -3  116.71    2.25
   3  -2  -3  118.46    2.22
   3   2   3  113.73    2.23
  -5   2   3   30.66    0.65
  -5   2   3   30.58    0.68
  -5  -2  -3   31.14    0.66
   5  -2   3   30.02    0.65
  -5  -2  -3   30.47    0.67
  -5  -2   3   29.79    0.68
   5   2   3   29.93    0.63
   5  -2  -3   29.81    0.62
  -5   2  -3   30.46    0.68
  -7  -2  -3    5.22    0.23
  -7   2   3    5.46    0.24
  -7  -2  -3    4.99    0.20
  -7  -2   3    5.27    0.22
  -7  -2   3    5.21    0.23
  -7   2  -3    5.04    0.24
   0  -3  -3   23.07    0.43
   0  -3  -3   21.84    0.47
   0  -3   3   23.32    0.46
   0  -3  -3   22.44    0.47
   0  -3   3   22.10    0.46
   0   3  -3   22.72    0.45
   2   3  -3    1.14    0.06
  -2  -3  -3    0.98    0.05
   2  -3   3    0.90    0.07
  -2  -3  -3    1.20    0.07
  -2  -3   3    0.93    0.04
  -2  -3   3    0.86    0.07
   2  -3  -3    0.90    0.06
   2   3   3    0.97    0.06
   2  -3  -3    0.86    0.06
  -2   3  -3    0.85    0.06
  -4  -3  -3   16.43    0.40
  -4   3   3   17.07    0.38
  -4   3   3   16.63    0.40
   4  -3   3   16.44    0.39
  -4  -3  -3   16.68    0.39
   4   3   3   16.53    0.37
  -4  -3   3   16.85    0.42
   4  -3  -3   16.57    0.37
  -4   3  -3   16.48    0.41
  -6  -3  -3    0.38    0.08
  -6   3   3    0.40    0.09
   6  -3   3    0.67    0.07
  -6  -3  -3    0.57    0.09
  -6  -3   3    0.58    0.09
  -6  -3   3    0.48    0.10
  -6   3  -3    0.44    0.09
  -8   3   3    0.17    0.10
  -8  -3  -3   -0.07    0.09
  -8  -3   3    0.27    0.09
  -8  -3   3    0.03    0.09
  -8   3  -3    0.01    0.09
  -1  -4  -3   82.01    1.61
   1  -4   3   82.52    1.62
  -1  -4  -3   81.77    1.62
   1  -4   3   86.94    1.59
   1   4  -3   84.40    1.58
   1  -4  -3   82.25    1.61
  -1  -4   3   82.11    1.60
   1  -4  -3   83.11    1.61
  -1  -4   3   81.95    1.62
  -1   4  -3   84.05    1.59
   3  -4   3   63.14    1.26
  -3  -4  -3   60.98    1.27
  -3  -4  -3   64.69    1.23
  -3   4   3   62.49    1.24
  -3  -4   3   61.38    1.20
  -3  -4   3   62.66    1.28
  -3   4  -3   62.62    1.25
   3   4   3   63.58    1.23
   3  -4  -3   63.35    1.24
   3  -4  -3   62.97    1.24
  -5  -4  -3    8.59    0.27
  -5   4   3    8.95    0.28
   5  -4   3    9.30    0.26
  -5  -4  -3    9.11    0.26
  -5   4  -3    8.96    0.28
   5  -4  -3    8.67    0.24
  -5  -4   3    8.89    0.29
   5   4   3    8.82    0.25
  -7  -4  -3    2.69    0.16
  -7  -4  -3    2.68    0.17
  -7   4   3    2.78    0.18
  -7  -4   3    2.88    0.17
  -7   4  -3    3.07    0.19
  -7  -4   3    2.90    0.18
   0  -5   3  256.82    4.99
   0  -5  -3  265.98    5.15
   0   5  -3  262.42    4.98
   0  -5  -3  267.14    5.11
   0  -5   3  257.71    5.13
   2  -5   3   94.38    1.77
  -2  -5  -3   90.92    1.80
  -2  -5  -3   93.33    1.75
   2  -5   3   90.51    1.82
  -2  -5  -3   90.94    1.83
   2   5  -3   94.21    1.77
  -2   5   3   92.79    1.77
  -2  -5   3   92.67    1.83
  -2  -5   3   92.87    1.78
  -2   5  -3   93.33    1.79
   2  -5  -3   92.74    1.81
   2  -5  -3   92.52    1.80
   4  -5   3   62.84    1.26
  -4   5   3   60.66    1.25
  -4  -5  -3   64.21    1.23
  -4  -5  -3   59.85    1.27
   4  -5  -3   61.56    1.24
  -4   5  -3   61.27    1.26
  -4  -5   3   62.85    1.29
   4   5   3   60.50    1.22
  -6  -5  -3   11.91    0.34
   6  -5   3   12.33    0.34
  -6   5   3   12.31    0.37
  -6  -5  -3   11.98    0.36
  -6   5  -3   12.18    0.38
   6  -5  -3   12.78    0.33
  -6  -5   3   12.45    0.35
  -6  -5   3   11.95    0.38
   1  -6   3   83.61    1.61
   1  -6   3   85.41    1.65
  -1  -6  -3   82.29    1.65
  -1   6   3   85.49    1.58
  -1  -6  -3   79.43    1.63
   1   6  -3   82.25    1.58
   1  -6  -3   82.50    1.63
  -1   6  -3   85.89    1.60
  -1  -6   3   79.98    1.62
   1  -6  -3   83.42    1.64
  -1  -6   3   82.57    1.65
   3  -6   3   33.22    0.75
  -3  -6  -3   33.90    0.76
  -3   6   3   34.80    0.71
  -3  -6   3   34.43    0.70
  -3  -6   3   34.01    0.76
   3  -6  -3   34.59    0.71
   3  -6  -3   33.80    0.74
  -3   6  -3   33.26    0.72
   3   6   3   35.34    0.72
  -5   6   3   15.61    0.41
   5  -6   3   15.57    0.42
  -5  -6  -3   15.30    0.43
  -5   6  -3   15.07    0.42
  -5  -6   3   15.97    0.39
   5  -6  -3   15.97    0.40
  -5  -6   3   15.88    0.45
  -7  -6  -3    2.26    0.18
  -7   6   3    2.45    0.18
   7  -6   3    2.29    0.15
  -7   6  -3    2.34    0.19
  -7  -6   3    2.80    0.20
   0  -7  -3    7.91    0.24
   0  -7   3    8.21    0.24
   0  -7   3    8.20    0.23
   0  -7  -3    7.89    0.24
   0   7  -3    8.15    0.19
  -2  -7  -3    2.90    0.15
   2  -7   3    2.76    0.14
  -2   7   3    2.86    0.11
   2  -7   3    2.90    0.11
  -2  -7  -3    2.73    0.13
  -2  -7   3    2.97    0.13
  -2  -7   3    3.02    0.15
   2  -7  -3    3.02    0.14
  -2   7  -3    2.99    0.13
   2  -7  -3    2.93    0.13
  -4  -7  -3    0.96    0.11
   4  -7   3    0.98    0.11
  -4   7   3    0.85    0.09
   4   7   3    0.95    0.09
  -4   7  -3    1.60    0.12
  -4  -7   3    1.00    0.12
   4  -7  -3    0.89    0.10
   6  -7   3   -0.05    0.06
  -6   7   3    0.10    0.07
  -6  -7  -3   -0.06    0.07
  -6   7  -3   -0.06    0.07
  -6  -7   3    0.06    0.09
   6  -7  -3   -0.07    0.05
   1  -8   3    1.21    0.11
   1  -8   3    1.20    0.08
  -1  -8  -3    0.86    0.10
   1  -8  -3    1.08    0.10
  -1  -8   3    1.17    0.11
  -1  -8   3    1.23    0.09
   1  -8  -3    1.30    0.10
   3  -8   3    0.25    0.07
  -3  -8  -3    0.36    0.09
  -3  -8   3    0.35    0.09
   3  -8  -3    0.42    0.06
  -3   8  -3    0.31    0.07
   3  -8  -3    0.40    0.08
   3   8   3    0.35    0.06
  -3  -8   3    0.38    0.06
  -5   8   3    0.00    0.06
   5  -8   3    0.26    0.08
  -5  -8  -3    0.16    0.08
   5  -8  -3    0.25    0.07
  -5   8  -3    0.29    0.09
  -5  -8   3    0.39    0.10
   0  -9  -3   20.30    0.50
   0  -9   3   19.70    0.50
   0  -9   3   20.11    0.48
   0  -9  -3   19.96    0.50
   2  -9   3    7.76    0.27
  -2  -9  -3    7.89    0.26
  -2  -9  -3    7.71    0.27
   2  -9  -3    8.21    0.25
   2  -9  -3    7.91    0.27
  -2  -9   3    7.67    0.24
  -2  -9   3    7.67    0.28
   4  -9   3    8.02    0.29
  -4  -9  -3    7.54    0.30
   4  -9  -3    7.78    0.28
  -4  -9   3    7.88    0.31
   6  -9   3    1.71    0.16
  -6  -9  -3    1.23    0.16
   6  -9  -3    1.16    0.13
  -6  -9   3    1.36    0.17
  -1 -10  -3    9.94    0.32
   1 -10   3    9.41    0.32
  -1 -10  -3    9.22    0.30
  -1 -10   3    9.88    0.31
   1 -10  -3    9.45    0.29
  -1 -10   3    9.60    0.30
   1 -10  -3    9.10    0.31
  -3 -10  -3    8.23    0.32
   3 -10   3    9.33    0.32
  -3 -10   3    9.35    0.33
   3 -10  -3    9.39    0.32
   3  10   3    9.43    0.29
  -5 -10  -3    1.66    0.17
   5 -10   3    1.31    0.15
  -5 -10   3    1.72    0.18
   5 -10  -3    1.54    0.16
   0 -11  -3    0.09    0.07
   0 -11  -3   -0.03    0.06
   0 -11   3    0.08    0.06
   0 -11   3   -0.13    0.05
  -2 -11  -3    0.13    0.08
  -2 -11  -3    0.25    0.09
   2 -11   3    0.01    0.07
  -2 -11   3    0.13    0.07
   2 -11  -3    0.19    0.08
  -2 -11   3    0.12    0.07
  -4 -11  -3    0.04    0.08
   4 -11   3    0.02    0.07
   4 -11  -3    0.00    0.08
  -4 -11   3    0.04    0.10
  -1 -12  -3    0.42    0.10
   1 -12   3    0.42    0.10
  -1 -12  -3    0.53    0.10
  -1 -12   3    0.43    0.10
  -1 -12   3    0.49    0.10
   1 -12  -3    0.54    0.11
   0   0   4   32.82    0.63
   0   0  -4   32.50    0.64
   0   0  -4   32.19    0.64
   2   0   4   13.61    0.30
  -2   0   4   13.86    0.27
  -2   0  -4   13.71    0.31
   2   0  -4   13.51    0.31
  -2   0   4   13.75    0.31
  -2   0  -4   14.04    0.28
  -4   0  -4    1.30    0.07
  -4   0  -4    1.25    0.10
   4   0  -4    1.31    0.04
   4   0   4    1.37    0.09
  -4   0   4    1.62    0.11
   6   0   4    0.41    0.06
  -6   0   4    0.34    0.08
  -6   0  -4    0.29    0.08
  -6   0   4    0.44    0.08
  -8   0   4    0.66    0.12
  -8   0  -4    0.39    0.11
   1  -1   4   28.96    0.59
   1   1  -4   29.10    0.58
  -1  -1  -4   29.67    0.58
  -1  -1  -4   28.67    0.58
   1  -1  -4   29.31    0.57
   1   1   4   29.31    0.58
  -1   1  -4   29.15    0.59
   1  -1  -4   28.92    0.58
   1  -1  -4   29.11    0.59
  -1  -1   4   30.05    0.59
  -1   1  -4   29.52    0.57
  -1  -1   4   29.72    0.57
   3  -1   4    8.07    0.21
  -3   1   4    8.47    0.22
  -3  -1  -4    8.15    0.22
  -3  -1  -4    8.09    0.20
  -3   1  -4    8.04    0.22
   3   1   4    8.22    0.21
  -3   1  -4    8.62    0.18
  -3  -1   4    7.88    0.22
   3  -1  -4    8.16    0.18
  -5  -1  -4    2.94    0.15
   5  -1   4    2.80    0.13
  -5  -1  -4    3.08    0.13
  -5   1   4    2.76    0.14
   5   1   4    3.14    0.13
  -5   1  -4    2.90    0.15
  -5   1  -4    3.09    0.11
  -5  -1   4    3.04    0.16
  -7   1   4    0.29    0.09
  -7  -1  -4    0.30    0.10
  -7  -1   4    0.20    0.08
  -7   1  -4    0.34    0.10
  -7  -1   4    0.43    0.09
   0  -2   4    1.32    0.06
   0   2  -4    1.36    0.07
   0  -2  -4    1.39    0.06
   0  -2  -4    1.41    0.05
   0  -2   4    1.45    0.07
   0  -2  -4    1.50    0.06
   2   2  -4    0.04    0.03
  -2  -2  -4    0.03    0.03
  -2  -2  -4    0.03    0.03
   2  -2   4   -0.01    0.03
   2   2   4    0.04    0.03
   2  -2  -4    0.02    0.03
  -2  -2   4    0.01    0.04
  -2   2  -4    0.03    0.03
  -2  -2   4    0.01    0.01
   2  -2  -4    0.02    0.02
  -4  -2  -4    3.66    0.15
  -4  -2  -4    3.87    0.14
  -4   2   4    3.78    0.14
   4  -2   4    3.81    0.14
  -4   2  -4    3.98    0.16
   4   2   4    3.75    0.14
  -4  -2   4    3.56    0.16
   4  -2  -4    3.92    0.12
  -6  -2  -4    1.33    0.11
  -6   2   4    1.47    0.11
  -6  -2  -4    1.19    0.12
   6  -2   4    1.00    0.09
  -6   2   4    1.32    0.12
  -6  -2   4    1.26    0.12
  -6   2  -4    1.28    0.13
  -6  -2   4    1.40    0.12
  -8  -2  -4   -0.01    0.09
  -8   2   4   -0.05    0.09
  -8  -2   4   -0.14    0.07
  -8   2  -4   -0.05    0.10
  -8  -2   4   -0.04    0.08
   1   3  -4    0.47    0.04
  -1  -3  -4    0.41    0.05
   1  -3   4    0.33    0.05
  -1  -3  -4    0.58    0.04
   1  -3   4    0.40    0.03
  -1  -3   4    0.50    0.04
  -1  -3   4    0.44    0.05
   1   3   4    0.34    0.04
   1  -3  -4    0.44    0.04
  -1   3  -4    0.41    0.05
   1  -3  -4    0.40    0.04
   3   3  -4   15.43    0.30
   3  -3   4   14.91    0.36
  -3  -3  -4   15.37    0.36
  -3  -3  -4   15.50    0.34
   3  -3  -4   15.03    0.34
   3   3   4   14.81    0.34
   3  -3  -4   15.00    0.34
  -3   3  -4   14.75    0.36
  -3  -3   4   15.15    0.38
  -5  -3  -4    0.31    0.07
  -5  -3  -4    0.20    0.06
  -5   3   4    0.11    0.06
  -5   3   4    0.17    0.06
   5  -3   4    0.10    0.05
   5   3   4    0.17    0.06
  -5  -3   4    0.00    0.07
   5  -3  -4    0.17    0.05
  -5   3  -4    0.15    0.07
  -7   3   4    1.06    0.13
  -7  -3  -4    1.01    0.12
  -7  -3  -4    1.04    0.11
  -7  -3   4    0.84    0.11
  -7  -3   4    1.08    0.13
  -7   3  -4    0.88    0.13
   0  -4  -4    2.88    0.07
   0  -4   4    3.00    0.11
   0  -4  -4    2.86    0.11
   0  -4   4    2.71    0.10
   0  -4  -4    2.82    0.11
   2  -4   4    0.33    0.02
   2  -4   4    0.29    0.05
  -2  -4  -4    0.32    0.04
   2   4  -4    0.27    0.04
  -2  -4  -4    0.29    0.05
  -2   4  -4    0.33    0.05
   2   4   4    0.29    0.04
   2  -4  -4    0.40    0.05
  -2  -4   4    0.39    0.07
   2  -4  -4    0.27    0.05
  -2  -4   4    0.22    0.03
  -4  -4  -4   -0.01    0.06
  -4  -4  -4    0.01    0.05
   4  -4   4    0.07    0.06
  -4   4   4    0.11    0.05
  -4   4   4    0.01    0.05
   4   4   4    0.01    0.05
  -4  -4   4    0.05    0.07
   4  -4  -4    0.04    0.04
  -4   4  -4    0.11    0.07
   6  -4   4    0.06    0.05
  -6  -4  -4   -0.07    0.06
  -6  -4  -4    0.07    0.06
  -6   4   4    0.04    0.06
  -6  -4   4    0.05    0.06
  -6  -4   4    0.02    0.08
  -6   4  -4    0.04    0.07
  -8  -4  -4   -0.03    0.08
  -8   4   4   -0.08    0.08
  -8  -4   4    0.15    0.10
  -8   4  -4    0.09    0.11
  -8  -4   4    0.16    0.08
   1  -5   4   19.89    0.45
  -1  -5  -4   20.62    0.46
  -1  -5  -4   19.76    0.45
   1   5  -4   20.12    0.42
   1  -5   4   20.29    0.42
   1  -5  -4   20.01    0.44
   1  -5  -4   19.65    0.45
  -1  -5   4   20.03    0.43
  -1   5  -4   19.80    0.43
  -1  -5   4   20.16    0.45
  -3  -5  -4   11.85    0.27
  -3  -5  -4   11.65    0.32
  -3   5   4   11.58    0.29
   3  -5   4   11.77    0.31
   3   5   4   11.96    0.29
  -3  -5   4   11.66    0.26
  -3   5  -4   11.24    0.30
  -3  -5   4   12.19    0.33
   3  -5  -4   11.75    0.30
   3  -5  -4   11.77    0.29
   5  -5   4    1.36    0.11
  -5  -5  -4    1.24    0.12
  -5  -5  -4    1.31    0.11
  -5   5   4    1.25    0.11
   5  -5  -4    1.20    0.09
  -5   5  -4    1.21    0.12
  -5  -5   4    1.01    0.12
   5   5   4    1.31    0.11
  -7  -5  -4    0.92    0.12
  -7  -5  -4    0.95    0.12
  -7   5   4    1.02    0.13
   7  -5   4    0.76    0.10
  -7   5  -4    0.73    0.13
  -7  -5   4    0.84    0.11
  -7  -5   4    0.83    0.14
   0  -6   4    2.49    0.11
   0  -6  -4    2.48    0.12
   0  -6   4    2.48    0.11
   0   6  -4    2.45    0.09
   0  -6  -4    2.48    0.12
   2  -6   4    0.85    0.06
  -2  -6  -4    0.74    0.09
   2  -6   4    0.85    0.09
   2   6  -4    0.83    0.06
  -2   6   4    0.82    0.06
   2  -6  -4    0.87    0.07
  -2  -6   4    0.88    0.07
  -2  -6   4    0.81    0.10
  -2   6  -4    0.84    0.08
   2  -6  -4    0.77    0.08
   4  -6   4    0.14    0.06
  -4  -6  -4    0.25    0.08
  -4  -6   4    0.26    0.09
   4   6   4    0.21    0.06
  -4   6  -4    0.19    0.07
  -6  -6  -4    0.14    0.08
  -6   6   4    0.07    0.07
   6  -6   4    0.07    0.06
  -6  -6   4    0.19    0.09
  -6  -6   4    0.17    0.07
  -6   6  -4    0.14    0.08
   6  -6  -4    0.24    0.06
  -1  -7  -4    1.33    0.10
   1  -7   4    1.19    0.10
   1  -7   4    1.52    0.09
  -1  -7  -4    1.53    0.11
   1   7  -4    1.37    0.07
  -1  -7   4    1.52    0.09
   1  -7  -4    1.29    0.10
  -1   7  -4    1.43    0.09
  -1  -7   4    1.44    0.11
   1  -7  -4    1.46    0.11
   3  -7   4    0.39    0.07
  -3  -7  -4    0.38    0.08
  -3   7   4    0.22    0.05
  -3  -7   4    0.23    0.08
   3  -7  -4    0.44    0.07
  -3  -7   4    0.37    0.05
  -3   7  -4    0.35    0.07
   3   7   4    0.40    0.07
   3  -7  -4    0.45    0.07
  -5   7   4    0.54    0.09
  -5  -7  -4    0.59    0.10
   5  -7   4    0.56    0.09
  -5   7  -4    0.65    0.10
  -5  -7   4    0.71    0.12
   5  -7  -4    0.50    0.08
  -7   7   4   -0.02    0.08
  -7  -7  -4    0.06    0.08
   7  -7   4    0.09    0.07
  -7   7  -4   -0.03    0.09
  -7  -7   4    0.16    0.11
   0  -8  -4    0.03    0.05
   0  -8   4   -0.07    0.04
   0  -8  -4    0.08    0.05
   0  -8   4    0.00    0.05
  -2  -8  -4    1.95    0.13
  -2  -8  -4    2.37    0.13
   2  -8   4    2.22    0.14
  -2  -8   4    2.34    0.14
   2  -8  -4    1.88    0.13
  -2   8  -4    2.17    0.12
   2  -8  -4    2.18    0.12
  -2  -8   4    2.39    0.12
   4  -8   4    0.03    0.06
  -4  -8  -4    0.01    0.06
  -4  -8   4    0.05    0.08
  -4   8  -4    0.00    0.07
   4  -8  -4    0.07    0.06
   4   8   4   -0.02    0.05
  -6  -8  -4   -0.12    0.08
   6  -8   4    0.01    0.07
  -6   8   4   -0.05    0.08
  -6   8  -4   -0.08    0.08
  -6  -8   4    0.01    0.09
   6  -8  -4   -0.01    0.06
  -1  -9  -4    1.98    0.13
   1  -9   4    2.31    0.14
  -1  -9  -4    2.02    0.14
   1  -9   4    2.07    0.11
   1  -9  -4    2.13    0.13
   1  -9  -4    1.94    0.13
  -1  -9   4    2.11    0.13
  -1  -9   4    1.98    0.13
  -3  -9  -4    2.66    0.17
   3  -9   4    2.45    0.16
  -3  -9   4    2.77    0.17
   3   9   4    2.74    0.15
   3  -9  -4    2.58    0.15
  -5  -9  -4    0.34    0.10
   5  -9   4    0.26    0.09
  -5  -9   4    0.28    0.11
   5  -9  -4    0.25    0.09
   0 -10  -4   -0.06    0.06
   0 -10  -4   -0.03    0.05
   0 -10   4    0.05    0.05
   0 -10   4   -0.02    0.06
  -2 -10  -4   -0.01    0.06
   2 -10   4    0.03    0.07
  -2 -10  -4   -0.05    0.06
  -2 -10   4   -0.05    0.06
   2 -10  -4   -0.10    0.05
   2 -10  -4    0.03    0.05
  -2 -10   4    0.04    0.05
  -4 -10  -4    0.02    0.08
   4 -10   4    0.06    0.07
   4 -10  -4   -0.14    0.06
  -4 -10   4    0.05    0.09
   1 -11   4    0.10    0.07
  -1 -11  -4    0.10    0.07
  -1 -11  -4    0.10    0.07
   1 -11  -4   -0.02    0.07
   1 -11  -4    0.01    0.06
  -1 -11   4    0.14    0.07
  -1 -11   4    0.01    0.06
  -3 -11  -4    0.20    0.09
   3 -11   4    0.05    0.08
  -3 -11   4    0.03    0.08
   3 -11  -4    0.00    0.08
   3  11   4    0.07    0.07
   0 -12   4    0.08    0.07
   0 -12  -4    0.03    0.08
   0 -12  -4    0.03    0.07
   2 -12   4    0.12    0.10
  -2 -12  -4    0.13    0.09
  -2 -12   4    0.18    0.08
   2 -12  -4    0.03    0.09
  -2 -12   4    0.15    0.09
   1   0   5   24.52    0.50
  -1   0   5   25.24    0.49
   1   0  -5   24.07    0.51
  -1   0  -5   25.03    0.49
   1   0  -5   24.42    0.50
  -1   0  -5   24.83    0.50
  -3   0  -5   35.38    0.69
  -3   0  -5   34.85    0.72
   3   0   5   34.86    0.71
  -3   0   5   32.97    0.72
  -3   0   5   35.08    0.66
   5   0   5    1.87    0.11
  -5   0   5    1.76    0.13
  -5   0  -5    1.75    0.09
  -5   0  -5    1.88    0.13
  -7   0  -5    0.56    0.11
  -7   0   5    0.59    0.10
  -7   0   5    0.52    0.10
   0  -1  -5   16.89    0.35
   0  -1   5   16.45    0.34
   0  -1   5   16.72    0.35
   0   1  -5   16.13    0.35
   0   1   5   16.38    0.34
   2   1  -5  257.59    4.93
  -2  -1  -5  248.03    4.88
   2  -1   5  245.11    4.83
  -2  -1  -5  251.88    4.90
  -2   1  -5  252.46    4.92
   2  -1  -5  259.70    4.84
  -2  -1   5  258.94    4.78
   2   1   5  241.71    4.93
   2  -1  -5  263.92    4.83
  -2   1  -5  249.34    4.81
  -2  -1   5  245.42    4.95
  -4  -1  -5    4.10    0.16
   4  -1   5    3.98    0.15
  -4  -1  -5    4.28    0.14
  -4   1   5    4.34    0.16
  -4   1  -5    4.39    0.11
  -4  -1   5    4.28    0.17
  -4   1  -5    4.14    0.17
   4   1   5    4.51    0.15
   4  -1  -5    4.32    0.11
  -6  -1  -5    2.81    0.16
  -6   1   5    2.60    0.15
  -6  -1  -5    2.74    0.13
  -6   1   5    2.63    0.15
   6  -1   5    2.68    0.13
   6   1   5    2.90    0.14
  -6   1  -5    2.31    0.16
  -6  -1   5    2.90    0.17
  -8   1   5    2.50    0.19
  -8  -1  -5    2.63    0.21
  -8  -1   5    2.31    0.19
  -8   1  -5    2.62    0.20
   1  -2   5    6.30    0.17
  -1  -2  -5    6.10    0.16
   1  -2   5    6.65    0.14
  -1  -2  -5    6.11    0.15
   1   2  -5    6.25    0.16
   1  -2  -5    6.08    0.16
  -1  -2   5    6.41    0.17
   1   2   5    6.19    0.16
  -1   2  -5    5.99    0.17
   1  -2  -5    6.31    0.16
   1  -2  -5    6.44    0.16
  -1  -2   5    6.47    0.15
  -3  -2  -5   18.67    0.41
  -3   2   5   18.45    0.42
   3  -2   5   18.85    0.42
  -3  -2  -5   19.17    0.42
  -3   2  -5   18.80    0.43
  -3  -2   5   18.64    0.44
   3  -2  -5   18.82    0.39
   3   2   5   18.62    0.41
  -5   2   5    2.11    0.13
   5  -2   5    1.95    0.11
  -5  -2  -5    1.94    0.11
  -5  -2  -5    2.17    0.14
   5   2   5    1.86    0.11
   5  -2  -5    1.82    0.08
  -5  -2   5    2.14    0.14
  -5   2  -5    1.70    0.13
  -7  -2  -5    3.62    0.20
  -7   2   5    3.59    0.20
  -7  -2   5    3.83    0.20
  -7  -2   5    3.39    0.19
  -7   2  -5    3.64    0.21
   0   3  -5    5.65    0.15
   0  -3   5    5.70    0.15
   0  -3  -5    5.65    0.13
   0  -3  -5    5.50    0.16
   0  -3   5    5.71    0.15
   0  -3  -5    5.96    0.16
   2   3  -5   31.24    0.64
  -2  -3  -5   31.59    0.63
  -2  -3  -5   31.24    0.65
   2  -3   5   31.60    0.66
   2   3   5   30.32    0.64
  -2   3  -5   30.80    0.65
   2  -3  -5   31.84    0.64
   2  -3  -5   31.97    0.65
  -2  -3   5   31.78    0.61
  -2  -3   5   30.61    0.67
  -4  -3  -5    0.78    0.08
  -4  -3  -5    0.80    0.08
  -4   3   5    0.90    0.08
   4  -3   5    0.85    0.08
   4  -3  -5    0.85    0.07
   4   3   5    0.97    0.08
  -4   3  -5    0.74    0.09
  -4  -3   5    0.77    0.10
  -6  -3  -5    2.71    0.15
  -6   3   5    2.92    0.17
  -6  -3  -5    2.52    0.14
   6  -3   5    2.80    0.14
  -6   3  -5    2.38    0.16
  -6  -3   5    2.60    0.17
  -8   3   5    1.75    0.18
  -8  -3  -5    1.78    0.17
  -8  -3   5    2.22    0.19
  -8  -3   5    1.89    0.17
  -8   3  -5    1.92    0.19
  -1  -4  -5   11.09    0.28
   1  -4   5   11.61    0.28
   1  -4   5   11.41    0.25
  -1  -4  -5   11.43    0.24
  -1  -4   5   12.44    0.29
  -1   4  -5   11.54    0.27
   1   4   5   11.37    0.27
   1  -4  -5   11.23    0.28
   1  -4  -5   11.38    0.28
  -3  -4  -5    6.17    0.18
   3  -4   5    6.11    0.20
  -3  -4  -5    5.77    0.19
  -3  -4   5    6.25    0.15
   3  -4  -5    6.28    0.18
   3   4   5    5.99    0.18
  -3  -4   5    6.17    0.22
  -3   4  -5    7.13    0.21
   3  -4  -5    6.33    0.18
  -5  -4  -5    0.84    0.09
   5  -4   5    0.64    0.08
  -5   4   5    0.58    0.08
  -5  -4  -5    0.66    0.08
  -5   4   5    0.64    0.09
  -5   4  -5    0.68    0.10
   5  -4  -5    0.60    0.07
   5   4   5    0.89    0.09
  -5  -4   5    0.71    0.11
  -7  -4  -5    0.39    0.08
  -7  -4  -5    0.20    0.09
  -7   4   5    0.33    0.10
   7  -4   5    0.38    0.08
  -7   4  -5    0.36    0.11
  -7  -4   5    0.27    0.08
  -7  -4   5    0.17    0.10
   0  -5   5   27.47    0.58
   0  -5  -5   27.38    0.59
   0  -5   5   27.43    0.58
   0   5  -5   27.41    0.56
   0  -5  -5   27.07    0.59
   2   5  -5   79.53    1.55
  -2  -5  -5   79.90    1.60
   2  -5   5   79.81    1.59
   2  -5   5   82.51    1.53
  -2  -5  -5   78.57    1.53
  -2   5  -5   81.87    1.58
  -2  -5   5   79.28    1.61
   2   5   5   80.16    1.57
  -2  -5   5   79.79    1.55
   2  -5  -5   80.86    1.58
   2  -5  -5   81.03    1.58
   4  -5   5    5.33    0.20
  -4  -5  -5    5.33    0.20
  -4  -5  -5    5.31    0.17
  -4   5   5    5.60    0.19
   4  -5  -5    5.50    0.18
   4  -5  -5    5.31    0.18
   4   5   5    5.22    0.18
  -4  -5   5    5.17    0.22
  -4   5  -5    5.39    0.21
  -6  -5  -5    0.82    0.11
  -6  -5  -5    1.00    0.11
   6  -5   5    1.05    0.11
  -6   5   5    1.09    0.12
  -6  -5   5    1.18    0.14
  -6   5  -5    0.85    0.12
   1  -6   5   14.62    0.36
   1   6  -5   14.46    0.32
  -1   6   5   14.10    0.30
   1  -6   5   14.63    0.33
  -1  -6  -5   14.11    0.36
  -1  -6  -5   14.32    0.37
   1  -6  -5   15.15    0.36
  -1  -6   5   14.89    0.37
  -1   6  -5   15.07    0.34
  -1  -6   5   14.60    0.34
   1  -6  -5   13.94    0.36
  -3   6   5   16.85    0.38
   3  -6   5   16.37    0.42
  -3  -6  -5   16.16    0.42
  -3  -6   5   16.23    0.43
   3  -6  -5   16.06    0.40
   3  -6  -5   16.00    0.39
  -3  -6   5   16.56    0.36
   3   6   5   16.62    0.39
  -3   6  -5   16.23    0.40
  -5  -6  -5    0.99    0.11
  -5   6   5    0.93    0.10
   5  -6   5    1.03    0.11
  -5  -6   5    0.87    0.13
   5  -6  -5    0.88    0.09
  -5   6  -5    1.06    0.12
  -7  -6  -5    1.14    0.14
   7  -6   5    1.28    0.13
  -7   6   5    1.36    0.14
  -7   6  -5    1.37    0.16
  -7  -6   5    1.06    0.15
   0  -7  -5    9.32    0.27
   0   7  -5    9.03    0.23
   0  -7   5    9.21    0.26
   0  -7   5    9.08    0.25
   0  -7  -5    9.39    0.27
   2  -7   5    4.24    0.18
  -2   7   5    4.47    0.14
  -2  -7  -5    4.40    0.18
   2   7  -5    4.30    0.14
   2   7   5    4.35    0.17
   2  -7  -5    4.38    0.18
  -2  -7   5    4.48    0.19
   2  -7  -5    4.26    0.16
  -2  -7   5    4.43    0.15
  -2   7  -5    4.47    0.16
  -4  -7  -5    0.09    0.07
  -4   7   5    0.03    0.05
   4  -7   5    0.02    0.06
  -4  -7   5    0.15    0.08
   4  -7  -5    0.08    0.06
  -4   7  -5   -0.01    0.06
   4   7   5   -0.02    0.05
  -6  -7  -5    0.32    0.09
  -6   7   5    0.26    0.08
   6  -7   5    0.25    0.08
  -6   7  -5    0.26    0.10
  -6  -7   5    0.09    0.10
   6  -7  -5    0.38    0.08
  -1  -8  -5   -0.02    0.05
   1  -8   5   -0.01    0.04
   1  -8   5   -0.05    0.05
  -1  -8  -5    0.06    0.06
  -1  -8   5    0.02    0.05
   1  -8  -5   -0.04    0.05
   1  -8  -5   -0.04    0.05
  -1  -8   5    0.03    0.04
  -3  -8  -5    0.69    0.10
   3  -8   5    0.76    0.10
   3   8   5    0.78    0.09
  -3  -8   5    0.72    0.11
   3  -8  -5    0.82    0.10
  -3  -8   5    0.64    0.07
  -3   8  -5    0.89    0.09
   3  -8  -5    0.82    0.09
  -5  -8  -5    0.18    0.09
   5  -8   5    0.27    0.08
  -5   8  -5    0.31    0.09
   5  -8  -5    0.22    0.07
  -5  -8   5    0.26    0.10
   0  -9  -5    3.08    0.16
   0  -9   5    2.89    0.14
   0  -9  -5    3.19    0.16
   0  -9   5    2.98    0.15
   2  -9   5    8.23    0.29
  -2  -9  -5    8.32    0.29
  -2  -9   5    8.67    0.29
   2  -9  -5    8.66    0.27
   2  -9  -5    8.55    0.29
  -2  -9   5    8.49    0.26
  -4  -9  -5    1.59    0.15
   4  -9   5    1.21    0.13
   4  -9  -5    1.37    0.13
  -4  -9   5    1.18    0.15
   4   9   5    1.03    0.11
  -1 -10  -5    4.31    0.21
   1 -10   5    4.38    0.21
  -1 -10  -5    4.52    0.20
  -1 -10   5    4.63    0.20
   1 -10  -5    4.29    0.20
  -1 -10   5    4.10    0.19
   1 -10  -5    4.87    0.20
  -3 -10  -5    1.29    0.14
   3 -10   5    1.25    0.14
   3 -10  -5    1.28    0.13
  -3 -10   5    1.22    0.15
   3  10   5    1.34    0.13
  -5 -10  -5    0.35    0.11
   5 -10   5    0.51    0.11
  -5 -10   5    0.62    0.14
   5 -10  -5    0.60    0.11
   0 -11  -5    0.20    0.08
   0 -11   5    0.09    0.07
   0 -11  -5    0.19    0.08
   2 -11   5    0.43    0.10
  -2 -11  -5    0.71    0.11
  -2 -11   5    0.40    0.10
  -2 -11   5    0.51    0.09
   2 -11  -5    0.54    0.10
  -4 -11  -5    0.08    0.09
   4 -11   5    0.15    0.09
   4 -11  -5    0.21    0.09
  -4 -11   5    0.00    0.09
   1 -12   5    0.13    0.09
  -1 -12  -5    0.09    0.08
  -1 -12  -5    0.10    0.08
   1 -12  -5    0.22    0.08
   1 -12  -5    0.22    0.09
  -1 -12   5    0.31    0.09
  -1 -12   5    0.20    0.08
   0   0   6  429.92    8.25
   0   0  -6  436.19    8.30
   0   0  -6  426.43    8.26
  -2   0  -6  767.59   14.56
  -2   0   6  725.08   14.67
   2   0   6  732.06   14.60
  -2   0   6  781.68   14.42
  -2   0  -6  766.85   14.51
   2   0  -6  810.99   14.59
  -4   0  -6  110.40    2.08
   4   0   6  106.84    2.10
  -4   0   6  105.82    2.12
  -4   0  -6  109.42    2.11
  -6   0  -6   21.98    0.55
  -6   0   6   21.02    0.53
   6   0   6   21.24    0.50
  -8   0  -6    3.70    0.23
  -8   0   6    3.20    0.22
  -1  -1  -6   27.01    0.55
  -1   1   6   27.34    0.54
   1   1  -6   27.60    0.56
  -1  -1  -6   27.29    0.55
   1  -1   6   26.84    0.56
  -1   1  -6   26.47    0.56
  -1   1  -6   27.27    0.54
  -1  -1   6   27.90    0.54
   1   1   6   27.07    0.55
   1  -1  -6   26.67    0.56
   1  -1  -6   26.38    0.55
  -1  -1   6   27.33    0.56
  -3  -1  -6  176.33    3.35
  -3   1   6  172.02    3.37
   3  -1   6  173.40    3.36
   3   1  -6  179.63    3.35
  -3  -1  -6  176.87    3.35
   3   1   6  178.67    3.35
  -3   1  -6  179.56    3.36
  -3  -1   6  170.36    3.38
  -3   1  -6  175.32    3.35
  -5  -1  -6    0.04    0.04
  -5  -1  -6    0.11    0.07
  -5   1   6   -0.02    0.06
   5  -1   6    0.03    0.06
  -5  -1   6    0.09    0.07
  -5   1  -6    0.06    0.07
   5   1   6    0.05    0.06
  -7  -1  -6    8.71    0.31
  -7   1   6    7.48    0.30
  -7   1   6    8.16    0.28
  -7   1  -6    8.13    0.31
  -7  -1   6    7.96    0.29
  -7  -1   6    8.38    0.30
   0   2   6  213.34    4.04
   0  -2   6  201.56    4.12
   0  -2  -6  212.42    4.18
   0  -2   6  204.23    4.06
   0   2  -6  216.13    4.06
   0  -2  -6  213.64    4.04
  -2  -2  -6   37.85    0.76
   2  -2   6   38.16    0.78
   2  -2   6   38.80    0.72
   2   2  -6   37.14    0.76
  -2  -2  -6   37.73    0.76
   2   2   6   37.28    0.76
   2  -2  -6   37.74    0.77
   2  -2  -6   37.57    0.75
  -2  -2   6   37.22    0.78
  -2  -2   6   38.72    0.73
  -2   2  -6   36.61    0.77
   2  -2  -6   37.68    0.76
  -4  -2  -6    0.09    0.05
  -4  -2  -6    0.10    0.05
  -4   2   6    0.50    0.07
   4  -2   6    0.09    0.05
  -4  -2   6    0.11    0.07
  -4   2  -6    0.14    0.06
   4   2   6    0.11    0.06
   4  -2  -6    0.11    0.03
  -6  -2  -6    1.12    0.12
   6  -2   6    1.13    0.10
  -6   2   6    0.91    0.11
  -6   2   6    1.05    0.11
  -6  -2  -6    1.01    0.09
  -6   2  -6    1.10    0.12
  -6  -2   6    1.16    0.13
  -8   2   6    0.50    0.12
  -8  -2  -6    0.64    0.12
  -8  -2   6    0.74    0.13
  -8  -2   6    0.43    0.11
  -8   2  -6    0.81    0.14
  -1  -3  -6    3.14    0.11
   1  -3   6    3.26    0.12
   1   3  -6    3.28    0.11
   1  -3   6    3.26    0.09
  -1  -3  -6    3.27    0.10
  -1  -3   6    2.98    0.12
  -1  -3   6    3.14    0.10
   1  -3  -6    3.48    0.11
   1  -3  -6    2.98    0.10
   1  -3  -6    3.01    0.11
   1   3   6    2.89    0.11
  -1   3  -6    3.03    0.12
  -3  -3  -6   72.67    1.45
   3   3  -6   72.50    1.44
  -3  -3  -6   74.38    1.43
   3  -3   6   73.36    1.46
  -3  -3   6   72.87    1.38
   3  -3  -6   75.66    1.43
   3  -3  -6   72.79    1.45
  -3   3  -6   71.43    1.45
  -3  -3   6   72.92    1.48
   3   3   6   72.45    1.44
   5  -3   6    1.94    0.12
  -5   3   6    1.79    0.12
  -5  -3  -6    1.89    0.13
  -5  -3  -6    1.83    0.12
   5  -3  -6    1.82    0.09
   5   3   6    1.77    0.12
  -5  -3   6    1.90    0.15
  -5   3  -6    1.80    0.14
  -7  -3  -6    9.95    0.33
  -7   3   6    9.15    0.33
  -7   3  -6    9.15    0.34
  -7  -3   6    9.91    0.33
  -7  -3   6    9.79    0.34
   0  -4  -6   35.36    0.75
   0  -4  -6   35.02    0.74
   0  -4  -6   36.89    0.70
   0   4  -6   36.84    0.73
   0  -4   6   36.76    0.74
   0  -4   6   35.86    0.74
   2   4  -6  231.78    4.53
   2  -4   6  243.01    4.48
  -2  -4  -6  227.22    4.52
  -2  -4  -6  236.07    4.50
   2  -4   6  233.04    4.49
   2  -4  -6  249.20    4.52
  -2   4  -6  235.35    4.52
   2  -4  -6  231.19    4.59
  -2  -4   6  236.59    4.52
  -2  -4   6  240.64    4.52
   2   4   6  228.54    4.56
  -4  -4  -6   24.63    0.55
  -4   4   6   25.72    0.56
   4  -4   6   24.95    0.57
  -4  -4  -6   24.94    0.57
  -4   4  -6   25.34    0.58
   4  -4  -6   25.08    0.54
  -4  -4   6   24.63    0.60
   4   4   6   24.36    0.55
  -6  -4  -6    9.23    0.29
  -6  -4  -6    9.41    0.30
  -6   4   6    8.93    0.30
   6  -4   6    9.34    0.29
  -6  -4   6    9.23    0.32
  -6   4  -6    8.98    0.31
  -8   4   6    2.55    0.21
  -8  -4  -6    2.07    0.18
  -8  -4   6    2.52    0.21
  -8   4  -6    2.14    0.20
  -8  -4   6    2.12    0.18
   1  -5   6   66.65    1.34
  -1  -5  -6   67.40    1.35
  -1  -5  -6   66.79    1.27
   1   5  -6   68.49    1.31
   1  -5   6   67.17    1.30
  -1  -5   6   66.45    1.32
  -1   5  -6   67.00    1.32
  -1  -5   6   66.42    1.34
   1  -5  -6   66.12    1.34
   1  -5  -6   68.28    1.34
  -3  -5  -6   90.54    1.75
   3   5  -6   92.05    1.78
  -3  -5  -6   90.23    1.82
   3  -5   6   89.83    1.81
  -3  -5   6   90.33    1.74
   3  -5  -6   90.21    1.79
  -3   5  -6   92.09    1.80
   3   5   6   91.05    1.79
  -3  -5   6   91.29    1.83
   3  -5  -6   92.60    1.79
   5  -5   6    0.41    0.07
  -5   5   6    0.35    0.07
  -5  -5  -6    0.19    0.07
  -5   5   6    0.36    0.07
  -5  -5  -6    0.28    0.07
   5  -5  -6    0.33    0.06
  -5   5  -6    0.19    0.08
   5   5   6    0.30    0.07
  -5  -5   6    0.17    0.09
   7  -5   6    4.31    0.20
  -7  -5  -6    3.95    0.20
  -7   5   6    4.24    0.22
  -7  -5   6    4.69    0.25
  -7   5  -6    4.61    0.24
  -7  -5   6    4.04    0.20
   0  -6  -6    1.85    0.11
   0  -6  -6    1.98    0.11
   0  -6   6    1.92    0.11
   0  -6   6    1.85    0.10
   0   6  -6    1.80    0.09
   2  -6   6   25.82    0.59
  -2  -6  -6   24.74    0.59
   2   6  -6   25.38    0.55
   2  -6   6   25.97    0.52
   2  -6  -6   26.19    0.58
   2   6   6   26.12    0.57
  -2  -6   6   26.78    0.55
  -2  -6   6   26.56    0.60
  -2   6  -6   25.49    0.57
   2  -6  -6   25.90    0.58
  -4  -6  -6    1.07    0.11
   4  -6   6    0.95    0.11
  -4   6   6    1.20    0.10
   4   6   6    1.30    0.10
  -4   6  -6    1.01    0.11
  -4  -6   6    1.13    0.13
   4  -6  -6    1.26    0.10
   4  -6  -6    1.11    0.10
  -6   6   6    0.75    0.11
   6  -6   6    0.77    0.11
  -6  -6  -6    0.82    0.12
  -6  -6   6    0.95    0.13
  -6   6  -6    0.82    0.12
   1  -7   6    0.00    0.06
  -1  -7  -6    0.12    0.06
  -1  -7  -6    0.10    0.06
   1   7  -6    0.06    0.04
   1  -7   6   -0.01    0.04
  -1   7  -6    0.05    0.05
  -1  -7   6    0.09    0.06
  -1  -7   6    0.04    0.05
   1  -7  -6    0.11    0.05
   1  -7  -6    0.20    0.06
  -3  -7  -6    6.47    0.24
  -3   7   6    6.80    0.20
   3  -7   6    6.78    0.24
  -3  -7   6    6.93    0.26
   3  -7  -6    6.86    0.23
  -3  -7   6    7.02    0.19
   3  -7  -6    6.67    0.22
  -3   7  -6    6.79    0.23
   3   7   6    6.73    0.22
  -5  -7  -6   -0.04    0.07
  -5   7   6    0.00    0.06
   5  -7   6    0.06    0.06
  -5  -7   6    0.05    0.08
  -5   7  -6    0.10    0.07
   5  -7  -6   -0.06    0.05
  -7   7   6    2.04    0.18
   7  -7   6    1.96    0.17
  -7  -7  -6    1.68    0.17
  -7  -7   6    2.18    0.21
  -7   7  -6    1.95    0.19
   0  -8  -6    0.62    0.09
   0  -8   6    0.62    0.08
   0  -8  -6    0.60    0.09
   0  -8   6    0.78    0.08
   2  -8   6    1.78    0.13
  -2  -8  -6    1.78    0.13
   2  -8  -6    1.61    0.11
  -2   8  -6    1.89    0.12
  -2  -8   6    1.91    0.14
   2   8   6    1.88    0.12
   2  -8  -6    1.70    0.12
  -2  -8   6    1.69    0.10
   4  -8   6    0.59    0.10
  -4  -8  -6    0.47    0.10
   4  -8  -6    0.63    0.09
  -4  -8   6    0.77    0.12
  -4   8  -6    0.47    0.09
   4   8   6    0.53    0.09
   6  -8   6    0.44    0.10
  -6  -8  -6    0.55    0.11
  -6  -8   6    0.75    0.15
   6  -8  -6    0.73    0.11
  -6   8  -6    0.57    0.12
  -1  -9  -6    1.32    0.12
   1  -9   6    1.34    0.12
  -1  -9  -6    1.39    0.13
  -1  -9   6    1.31    0.11
  -1  -9   6    1.23    0.12
   1  -9  -6    1.37    0.13
   1  -9  -6    1.45    0.12
  -3  -9  -6    4.61    0.22
   3  -9   6    4.35    0.21
   3  -9  -6    4.96    0.21
   3   9   6    4.60    0.19
   3  -9  -6    4.98    0.20
  -3  -9   6    4.83    0.23
   5  -9   6    0.10    0.08
  -5  -9  -6    0.09    0.08
  -5  -9   6    0.03    0.10
   5  -9  -6    0.15    0.08
   0 -10  -6    3.80    0.19
   0 -10   6    4.16    0.19
   0 -10   6    3.82    0.17
   0 -10  -6    3.78    0.19
  -2 -10  -6    8.31    0.30
   2 -10   6    7.75    0.29
   2  10   6    8.05    0.28
   2 -10  -6    7.60    0.28
  -2 -10   6    7.82    0.29
  -2 -10   6    7.59    0.26
   2 -10  -6    7.74    0.27
  -4 -10  -6    0.87    0.13
   4 -10   6    0.92    0.13
   4  10   6    0.88    0.12
  -4 -10   6    1.11    0.15
   4 -10  -6    1.02    0.13
  -1 -11  -6    0.75    0.11
   1 -11   6    0.34    0.10
  -1 -11  -6    0.62    0.10
   1 -11  -6    0.51    0.09
  -1 -11   6    0.47    0.09
  -1 -11   6    0.34    0.09
   1 -11  -6    0.64    0.11
  -3 -11  -6    1.26    0.15
   3 -11   6    1.26    0.14
  -3 -11   6    1.60    0.16
   3 -11  -6    1.13    0.14
   3  11   6    0.90    0.12
   0 -12  -6    2.04    0.18
   0 -12  -6    2.23    0.17
   0 -12   6    2.18    0.18
   2 -12   6    0.70    0.12
  -2 -12  -6    0.88    0.13
  -2 -12   6    1.00    0.13
   2 -12  -6    0.72    0.13
   2  12   6    0.69    0.11
  -1   0  -7   23.78    0.49
  -1   0  -7   23.44    0.50
   1   0   7   24.08    0.50
   1   0  -7   23.79    0.50
  -1   0   7   24.58    0.48
   1   0  -7   23.77    0.50
   3   0   7   12.79    0.32
  -3   0   7   12.89    0.26
   3   0  -7   12.84    0.32
  -3   0  -7   12.66    0.32
  -3   0   7   12.97    0.32
  -3   0  -7   12.94    0.28
  -5   0  -7   17.76    0.39
  -5   0   7   17.32    0.44
   5   0   7   17.04    0.42
  -5   0  -7   17.58    0.45
  -7   0   7    1.81    0.15
  -7   0   7    1.87    0.16
  -7   0  -7    1.60    0.16
   0  -1  -7  130.93    2.49
   0  -1   7  129.18    2.53
   0   1  -7  130.05    2.51
   0   1   7  128.40    2.48
   0  -1  -7  126.27    2.54
  -2  -1  -7    3.71    0.13
   2   1  -7    3.51    0.12
  -2  -1  -7    3.85    0.11
  -2   1   7    3.72    0.10
   2  -1   7    3.43    0.13
  -2  -1   7    3.48    0.13
   2  -1  -7    3.45    0.12
   2   1   7    3.64    0.13
  -2   1  -7    3.70    0.13
  -2  -1   7    3.82    0.10
  -2   1  -7    3.59    0.10
   2  -1  -7    3.60    0.13
   4  -1   7   28.39    0.62
  -4  -1  -7   28.75    0.63
  -4   1   7   28.03    0.63
  -4  -1  -7   28.61    0.59
  -4   1   7   28.14    0.56
   4   1   7   28.41    0.62
  -4   1  -7   28.19    0.56
  -4   1  -7   28.36    0.63
  -4  -1   7   28.30    0.64
  -6   1   7    4.19    0.20
   6  -1   7    3.87    0.17
  -6  -1  -7    4.28    0.20
  -6   1  -7    4.36    0.21
  -6  -1   7    4.22    0.20
   6   1   7    4.42    0.17
  -8   1   7    0.12    0.09
  -8  -1  -7   -0.02    0.09
  -8  -1   7    0.15    0.10
  -8  -1   7    0.21    0.09
  -8   1  -7    0.20    0.11
  -1  -2  -7   15.09    0.35
  -1   2   7   15.86    0.34
   1  -2   7   15.92    0.33
   1   2  -7   15.16    0.35
  -1  -2  -7   15.51    0.34
   1  -2   7   15.37    0.36
   1  -2  -7   15.55    0.34
   1   2   7   15.92    0.35
   1  -2  -7   15.63    0.35
  -1   2  -7   15.59    0.35
  -1  -2   7   16.28    0.36
  -1  -2   7   16.08    0.34
  -3   2   7    5.14    0.17
   3  -2   7    5.09    0.18
  -3  -2  -7    5.32    0.17
  -3  -2  -7    5.04    0.16
   3   2  -7    5.37    0.17
  -3   2  -7    5.00    0.18
   3  -2  -7    5.14    0.14
   3   2   7    5.54    0.17
  -3  -2   7    5.06    0.19
  -5  -2  -7    2.01    0.11
  -5  -2  -7    2.08    0.14
  -5   2   7    1.62    0.12
   5  -2   7    1.67    0.11
  -5   2  -7    2.04    0.14
   5   2   7    1.67    0.12
  -5  -2   7    1.92    0.15
  -7   2   7    0.03    0.07
  -7  -2  -7   -0.05    0.08
  -7   2  -7    0.10    0.09
  -7  -2   7    0.09    0.08
   0  -3  -7  127.20    2.48
   0   3  -7  129.68    2.46
   0  -3   7  129.47    2.47
   0  -3   7  126.94    2.47
   0   3   7  128.12    2.46
   0  -3  -7  131.32    2.44
   2  -3   7   21.98    0.49
   2  -3   7   22.00    0.42
  -2  -3  -7   21.55    0.46
   2   3  -7   21.10    0.47
  -2  -3  -7   21.57    0.48
   2   3   7   21.75    0.47
   2  -3  -7   21.61    0.46
   2  -3  -7   21.22    0.48
  -2  -3   7   22.35    0.44
  -2   3  -7   21.53    0.48
   2  -3  -7   21.17    0.47
  -2  -3   7   21.79    0.49
   4  -3   7   15.73    0.40
  -4  -3  -7   16.13    0.39
  -4  -3  -7   16.16    0.39
  -4   3   7   15.76    0.39
  -4  -3   7   15.98    0.42
  -4   3  -7   15.41    0.40
   4  -3  -7   16.04    0.36
   4   3   7   15.88    0.39
  -6   3   7    1.97    0.14
  -6  -3  -7    1.94    0.13
   6  -3   7    2.14    0.13
  -6   3   7    2.12    0.14
  -6  -3  -7    2.15    0.15
  -6  -3   7    2.05    0.16
  -6   3  -7    2.09    0.16
  -8   3   7    0.04    0.09
  -8  -3  -7    0.12    0.10
  -8  -3   7    0.23    0.10
  -8   3  -7    0.11    0.10
  -8  -3   7    0.10    0.08
   1   4  -7    9.52    0.24
   1  -4   7    9.64    0.25
   1  -4   7    9.47    0.22
  -1  -4  -7    9.33    0.21
  -1  -4  -7    9.37    0.25
  -1  -4   7    9.22    0.25
   1  -4  -7    9.70    0.22
  -1  -4   7    9.57    0.23
   1  -4  -7    9.41    0.24
   1  -4  -7    9.38    0.25
   1   4   7    9.38    0.24
  -1   4  -7    9.33    0.25
  -3  -4  -7    7.39    0.23
   3  -4   7    7.35    0.23
   3   4  -7    7.69    0.22
  -3  -4  -7    7.62    0.21
  -3  -4   7    7.71    0.17
  -3  -4   7    8.08    0.26
   3  -4  -7    8.02    0.22
   3   4   7    7.59    0.22
  -3   4  -7    7.47    0.24
   3  -4  -7    7.56    0.22
  -5   4   7    3.01    0.14
  -5  -4  -7    2.96    0.14
   5  -4   7    2.96    0.15
  -5  -4  -7    2.58    0.14
  -5   4  -7    3.02    0.17
   5   4   7    2.78    0.15
  -5  -4   7    3.00    0.18
   5  -4  -7    3.00    0.12
  -7  -4  -7    1.09    0.12
  -7  -4  -7    1.19    0.13
   7  -4   7    1.32    0.12
  -7   4   7    1.16    0.14
  -7  -4   7    1.01    0.12
  -7  -4   7    1.03    0.14
  -7   4  -7    1.22    0.15
   0  -5  -7   31.50    0.68
   0   5  -7   31.69    0.66
   0  -5   7   31.61    0.67
   0  -5   7   32.67    0.67
   0  -5  -7   31.48    0.68
   0  -5  -7   31.69    0.62
  -2  -5  -7    2.94    0.14
   2  -5   7    3.21    0.09
   2   5  -7    3.43    0.13
   2  -5   7    3.19    0.15
  -2  -5  -7    3.18    0.11
  -2  -5   7    2.88    0.16
  -2  -5   7    3.36    0.11
   2   5   7    3.06    0.13
  -2   5  -7    3.20    0.14
   2  -5  -7    3.16    0.13
   2  -5  -7    3.33    0.13
   4  -5   7   10.15    0.31
  -4  -5  -7   10.27    0.30
  -4  -5  -7   10.79    0.28
  -4  -5   7   10.31    0.33
  -4   5  -7   10.28    0.31
   4  -5  -7    9.99    0.29
   4   5   7   10.09    0.28
   4  -5  -7    9.88    0.28
  -6  -5  -7    4.02    0.19
   6  -5   7    3.52    0.18
  -6  -5  -7    3.71    0.18
  -6   5   7    3.75    0.19
  -6  -5   7    3.64    0.22
  -6   5  -7    3.67    0.20
   1   6  -7    1.35    0.09
   1  -6   7    1.32    0.10
  -1  -6  -7    1.25    0.10
   1  -6   7    1.46    0.08
  -1   6  -7    1.37    0.10
  -1  -6   7    1.34    0.09
  -1  -6   7    1.43    0.11
   1  -6  -7    1.20    0.09
   1   6   7    1.24    0.10
   1  -6  -7    1.60    0.11
   3   6  -7    0.22    0.05
   3  -6   7    0.24    0.07
  -3  -6  -7    0.20    0.07
  -3   6  -7    0.19    0.07
  -3  -6   7    0.14    0.08
  -3  -6   7    0.25    0.05
   3  -6  -7    0.19    0.06
   3   6   7    0.08    0.06
   3  -6  -7    0.18    0.06
   5  -6   7    0.98    0.11
  -5  -6  -7    0.92    0.11
  -5   6   7    0.91    0.10
  -5   6  -7    0.65    0.11
   5  -6  -7    0.93    0.10
   5   6   7    0.77    0.09
  -5  -6   7    0.95    0.13
  -7   6   7    0.17    0.09
   7  -6   7    0.16    0.08
  -7  -6  -7    0.20    0.08
  -7  -6   7    0.26    0.11
  -7   6  -7   -0.05    0.10
   0  -7   7   33.95    0.73
   0  -7  -7   32.79    0.74
   0  -7   7   32.74    0.71
   0   7  -7   34.02    0.70
   0  -7  -7   32.99    0.73
   2   7  -7    4.46    0.15
   2  -7   7    4.29    0.18
  -2  -7  -7    4.26    0.18
   2  -7  -7    4.16    0.18
   2  -7  -7    4.19    0.17
  -2  -7   7    4.25    0.15
  -2   7  -7    4.59    0.18
  -2  -7   7    4.42    0.19
   2   7   7    4.54    0.18
  -4   7   7    6.29    0.21
  -4  -7  -7    6.21    0.24
   4  -7   7    6.56    0.24
   4  -7  -7    6.39    0.22
   4  -7  -7    6.44    0.22
   4   7   7    6.23    0.22
  -4  -7   7    6.42    0.26
  -4   7  -7    6.23    0.24
   6  -7   7    0.98    0.12
  -6  -7  -7    1.09    0.13
  -6   7   7    0.84    0.11
  -6  -7   7    1.15    0.15
  -6   7  -7    0.72    0.13
  -1  -8  -7    1.89    0.13
  -1  -8  -7    1.72    0.13
   1  -8   7    1.88    0.13
   1  -8   7    1.64    0.09
  -1  -8   7    1.89    0.12
  -1  -8   7    1.73    0.12
   1  -8  -7    1.65    0.12
   1  -8  -7    1.72    0.13
  -1   8  -7    1.90    0.11
   3  -8   7    0.72    0.10
  -3  -8  -7    0.73    0.11
  -3   8  -7    0.68    0.10
   3  -8  -7    0.82    0.10
  -3  -8   7    0.65    0.11
   3   8   7    0.72    0.09
   3  -8  -7    0.75    0.10
   5  -8   7    0.37    0.09
  -5  -8  -7    0.07    0.08
  -5  -8   7    0.13    0.10
   5  -8  -7    0.14    0.07
  -5   8  -7    0.04    0.08
   0  -9   7    3.29    0.16
   0  -9   7    3.64    0.16
   0  -9  -7    3.46    0.17
   0  -9  -7    3.29    0.17
   2  -9   7    0.58    0.10
  -2  -9  -7    0.67    0.10
   2  -9  -7    0.70    0.09
   2  -9  -7    0.76    0.10
   2   9   7    0.70    0.10
  -2  -9   7    0.59    0.08
  -2  -9   7    0.60    0.10
  -4  -9  -7    1.31    0.14
   4  -9   7    1.25    0.14
   4  -9  -7    1.33    0.13
  -4  -9   7    1.35    0.16
   4   9   7    1.48    0.13
  -1 -10  -7   -0.01    0.07
  -1 -10  -7    0.00    0.07
   1 -10   7    0.07    0.07
   1 -10  -7    0.02    0.06
  -1 -10   7    0.17    0.07
  -1 -10   7    0.05    0.06
   1 -10  -7    0.02    0.06
   3 -10   7    0.20    0.09
  -3 -10  -7    0.31    0.10
   3  10   7    0.04    0.07
   3 -10  -7    0.09    0.08
  -3 -10   7    0.27    0.10
   0 -11   7    0.43    0.10
   0 -11  -7    0.68    0.11
   0 -11  -7    0.62    0.11
   2 -11   7    0.18    0.09
  -2 -11  -7    0.06    0.08
   2  11   7    0.11    0.07
   2 -11  -7    0.14    0.09
  -2 -11   7    0.25    0.09
   2 -11  -7    0.34    0.08
   1 -12   7    0.15    0.08
  -1 -12  -7    0.05    0.08
  -1 -12   7   -0.03    0.07
   1 -12  -7    0.05    0.08
   1 -12  -7    0.14    0.08
   0   0  -8   44.87    0.90
   0   0   8   45.15    0.89
   0   0  -8   44.26    0.89
  -2   0   8  138.81    2.66
   2   0   8  141.14    2.68
  -2   0  -8  139.68    2.65
  -2   0   8  140.14    2.69
   2   0  -8  138.05    2.66
  -2   0  -8  137.54    2.67
  -4   0  -8    0.07    0.06
  -4   0  -8   -0.04    0.03
   4   0   8    0.08    0.07
  -4   0   8   -0.04    0.06
  -6   0   8    5.16    0.22
  -6   0  -8    4.83    0.22
   6   0   8    5.11    0.19
  -8   0   8    2.44    0.19
  -8   0  -8    2.02    0.19
  -1  -1  -8   27.93    0.58
   1  -1   8   27.94    0.59
  -1   1   8   28.02    0.57
  -1  -1  -8   27.47    0.57
   1   1  -8   27.19    0.58
  -1  -1   8   28.14    0.59
  -1   1  -8   27.79    0.59
   1   1   8   27.85    0.58
  -1   1  -8   27.97    0.56
  -1  -1   8   27.87    0.57
   1  -1  -8   28.06    0.59
   1  -1  -8   28.04    0.58
  -3   1   8   53.07    1.09
  -3   1   8   53.86    1.03
  -3  -1  -8   54.15    1.06
  -3  -1  -8   53.73    1.08
   3   1  -8   52.04    1.08
   3  -1   8   52.36    1.09
  -3   1  -8   52.99    1.09
   3  -1  -8   53.66    1.08
   3   1   8   53.77    1.08
  -3   1  -8   53.64    1.03
  -3  -1   8   51.95    1.10
  -3  -1   8   55.34    1.02
   5  -1   8    0.58    0.08
  -5  -1  -8    0.61    0.09
  -5  -1  -8    0.56    0.06
  -5   1   8    0.61    0.09
  -5   1  -8    0.52    0.09
   5   1   8    0.52    0.09
  -5  -1   8    0.57    0.10
  -7  -1  -8    7.19    0.29
  -7   1   8    7.04    0.27
  -7   1  -8    7.05    0.29
  -7  -1   8    7.11    0.28
   0   2   8   98.14    1.87
   0  -2   8   97.99    1.88
   0  -2  -8   98.70    1.87
   0   2  -8   96.07    1.88
   0  -2  -8   96.64    1.89
   0  -2   8   96.04    1.88
   2  -2   8   27.95    0.61
  -2  -2  -8   27.35    0.59
  -2  -2  -8   28.31    0.59
   2  -2   8   28.55    0.56
   2   2  -8   27.74    0.60
  -2   2   8   28.87    0.58
  -2  -2   8   27.93    0.61
   2  -2  -8   28.09    0.61
   2  -2  -8   28.50    0.59
   2   2   8   27.79    0.60
  -2   2  -8   28.41    0.61
  -2  -2   8   28.98    0.56
   4  -2   8    6.36    0.21
  -4  -2  -8    6.46    0.19
  -4   2   8    6.24    0.21
  -4  -2  -8    6.24    0.21
  -4   2  -8    6.58    0.23
  -4  -2   8    5.98    0.23
   4   2   8    6.26    0.21
  -6   2   8    0.29    0.08
  -6  -2  -8    0.36    0.07
  -6  -2  -8    0.28    0.08
   6  -2   8    0.27    0.07
  -6   2  -8    0.21    0.09
   6   2   8    0.16    0.07
  -6  -2   8    0.26    0.09
  -8  -2  -8    0.39    0.11
  -8   2   8    0.30    0.11
  -8   2  -8    0.43    0.13
  -8  -2   8    0.43    0.11
  -8  -2   8    0.48    0.12
  -1  -3  -8   18.13    0.39
   1  -3   8   17.93    0.41
  -1  -3  -8   17.78    0.41
   1  -3   8   18.91    0.38
   1   3  -8   17.83    0.41
  -1   3   8   17.61    0.40
  -1  -3   8   18.33    0.42
  -1  -3   8   18.41    0.39
   1  -3  -8   17.98    0.41
  -1   3  -8   17.91    0.41
   1  -3  -8   18.17    0.39
   1   3   8   17.52    0.40
  -3  -3  -8   26.69    0.58
   3   3  -8   26.94    0.60
   3  -3   8   27.59    0.61
  -3  -3  -8   27.76    0.60
  -3   3  -8   27.57    0.61
   3  -3  -8   27.15    0.57
   3   3   8   27.14    0.59
   3  -3  -8   27.49    0.60
  -3  -3   8   27.02    0.53
  -3  -3   8   26.66    0.62
   5  -3   8    0.82    0.10
  -5  -3  -8    0.87    0.09
  -5   3   8    0.78    0.10
  -5  -3  -8    0.75    0.09
  -5  -3   8    0.75    0.11
   5   3   8    0.84    0.10
  -5   3  -8    0.93    0.11
  -7  -3  -8    3.65    0.21
  -7   3   8    3.90    0.21
   7  -3   8    3.78    0.18
  -7  -3   8    3.76    0.22
  -7   3  -8    3.44    0.21
   0  -4  -8    4.52    0.13
   0  -4   8    4.54    0.15
   0   4  -8    4.57    0.15
   0   4   8    4.64    0.15
   0  -4   8    4.51    0.15
   0  -4  -8    4.65    0.16
   2  -4   8   53.11    1.11
   2   4  -8   53.53    1.08
  -2  -4  -8   54.09    1.10
   2  -4   8   54.99    1.04
  -2  -4  -8   53.73    1.06
  -2  -4   8   54.06    1.06
   2  -4  -8   53.08    1.10
  -2  -4   8   53.66    1.12
  -2   4  -8   54.37    1.10
   2  -4  -8   54.51    1.08
   2   4   8   54.19    1.09
  -4  -4  -8    0.88    0.09
  -4  -4  -8    0.93    0.09
   4  -4   8    1.00    0.10
  -4  -4   8    0.76    0.11
   4  -4  -8    1.12    0.08
   4   4   8    0.92    0.10
  -4   4  -8    1.01    0.11
  -6  -4  -8    2.50    0.15
   6  -4   8    2.62    0.16
  -6   4   8    2.84    0.16
  -6  -4  -8    3.10    0.17
  -6  -4   8    2.48    0.19
  -6   4  -8    2.56    0.18
   1  -5   8    3.56    0.15
   1   5  -8    3.71    0.14
  -1  -5  -8    3.53    0.15
   1  -5   8    3.37    0.12
  -1  -5  -8    3.51    0.11
   1  -5  -8    3.75    0.14
  -1   5  -8    3.42    0.15
   1   5   8    3.63    0.14
   1  -5  -8    3.50    0.14
   1  -5  -8    3.60    0.12
  -1  -5   8    3.64    0.13
  -1  -5   8    3.44    0.15
  -3  -5  -8   12.29    0.33
  -3  -5  -8   12.30    0.29
   3  -5   8   12.16    0.34
   3   5  -8   11.54    0.31
   3  -5  -8   12.62    0.32
  -3  -5   8   11.97    0.36
   3   5   8   11.97    0.32
  -3  -5   8   11.70    0.27
   3  -5  -8   12.59    0.33
  -3   5  -8   12.28    0.33
  -5   5   8    0.63    0.09
  -5  -5  -8    0.45    0.08
  -5  -5  -8    0.48    0.09
   5  -5   8    0.38    0.08
   5   5   8    0.44    0.08
   5  -5  -8    0.39    0.07
  -5   5  -8    0.21    0.09
  -5  -5   8    0.45    0.10
  -7  -5  -8    2.06    0.17
   7  -5   8    1.95    0.15
  -7   5   8    1.96    0.17
  -7   5  -8    1.94    0.18
  -7  -5   8    2.03    0.19
   0  -6  -8    8.49    0.25
   0  -6   8    8.38    0.25
   0  -6  -8    8.09    0.25
   0  -6   8    8.32    0.24
   0   6  -8    8.63    0.24
   0  -6  -8    8.33    0.19
  -2  -6  -8   12.76    0.35
   2  -6   8   12.38    0.35
   2   6  -8   12.46    0.32
   2   6   8   13.05    0.34
  -2   6  -8   12.71    0.34
  -2  -6   8   13.10    0.36
   2  -6  -8   12.87    0.34
   2  -6  -8   12.71    0.34
  -2  -6   8   13.09    0.31
  -4  -6  -8    0.17    0.07
   4  -6   8    0.07    0.06
  -4   6  -8    0.03    0.07
   4  -6  -8    0.10    0.06
  -4  -6   8    0.09    0.09
   4   6   8    0.33    0.07
   4  -6  -8    0.08    0.06
  -6  -6  -8    0.58    0.10
   6  -6   8    0.63    0.10
  -6   6   8    0.59    0.10
  -6  -6   8    0.67    0.13
  -6   6  -8    0.50    0.11
   1  -7   8    3.60    0.13
  -1  -7  -8    3.27    0.16
   1  -7   8    3.22    0.16
   1   7  -8    3.26    0.13
  -1  -7   8    3.13    0.14
   1  -7  -8    3.05    0.15
   1  -7  -8    3.28    0.15
  -1  -7   8    3.21    0.15
  -1   7  -8    3.40    0.15
   1   7   8    3.50    0.15
   3  -7   8    5.06    0.21
   3   7  -8    5.32    0.18
  -3   7   8    5.27    0.17
  -3  -7  -8    4.96    0.21
  -3   7  -8    5.37    0.21
   3  -7  -8    5.32    0.21
   3   7   8    5.49    0.20
  -3  -7   8    5.39    0.23
   3  -7  -8    5.71    0.20
  -5   7   8    0.26    0.07
   5  -7   8    0.25    0.08
  -5  -7  -8    0.32    0.08
   5   7   8    0.27    0.08
   5  -7  -8    0.25    0.07
  -5  -7   8    0.17    0.10
  -5   7  -8    0.51    0.10
   0  -8   8    0.33    0.07
   0  -8  -8    0.36    0.08
   0  -8   8    0.29    0.07
   0  -8  -8    0.38    0.08
  -2  -8  -8    6.48    0.25
   2  -8   8    6.76    0.25
   2   8   8    6.62    0.23
   2  -8  -8    6.57    0.23
  -2  -8   8    6.72    0.25
   2  -8  -8    6.80    0.25
  -2  -8   8    7.13    0.22
  -2   8  -8    6.53    0.22
  -4  -8  -8   -0.01    0.07
   4  -8   8    0.09    0.07
  -4  -8   8    0.12    0.09
   4  -8  -8    0.07    0.06
   4   8   8    0.10    0.07
  -4   8  -8   -0.02    0.07
   6  -8   8    0.93    0.13
  -6  -8  -8    0.72    0.13
  -6  -8   8    0.72    0.14
  -6   8  -8    0.56    0.12
  -1  -9  -8    0.58    0.10
   1  -9   8    0.69    0.10
   1  -9  -8    0.36    0.08
   1  -9  -8    0.63    0.10
  -1  -9   8    0.65    0.09
   1   9   8    0.61    0.09
  -1  -9   8    0.54    0.08
   3  -9   8    0.68    0.11
  -3  -9  -8    0.67    0.11
   3   9   8    0.67    0.10
   3  -9  -8    0.53    0.09
   3  -9  -8    0.38    0.09
  -3  -9   8    0.68    0.12
  -5  -9  -8    0.24    0.10
   5  -9   8    0.04    0.07
   5  -9  -8    0.18    0.09
  -5  -9   8    0.33    0.12
   0 -10   8    0.04    0.07
   0 -10  -8    0.16    0.08
   0 -10  -8    0.18    0.07
   2 -10   8    1.22    0.13
  -2 -10  -8    1.06    0.13
  -2 -10   8    1.02    0.11
   2 -10  -8    1.01    0.12
   2  10   8    0.87    0.11
  -2 -10   8    0.92    0.13
   2 -10  -8    1.02    0.12
  -4 -10  -8   -0.01    0.09
   4 -10   8    0.01    0.08
   4 -10  -8    0.06    0.08
   4  10   8    0.02    0.08
  -4 -10   8    0.04    0.10
  -1 -11  -8    0.71    0.12
   1 -11   8    0.77    0.12
   1  11   8    0.97    0.12
   1 -11  -8    0.70    0.12
  -1 -11   8    0.75    0.11
  -1 -11   8    1.29    0.13
   1 -11  -8    0.92    0.12
  -3 -11  -8    0.90    0.13
   3 -11   8    0.80    0.13
   3  11   8    0.78    0.12
   3 -11  -8    0.85    0.13
  -3 -11   8    0.71    0.14
   0 -12  -8    0.15    0.09
   0 -12   8    0.13    0.08
   0 -12  -8    0.39    0.10
   1   0  -9   64.27    1.28
   1   0  -9   65.75    1.29
  -1   0  -9   64.92    1.27
  -1   0  -9   63.99    1.29
  -1   0   9   65.67    1.27
   1   0   9   66.07    1.29
  -3   0   9  118.82    2.26
  -3   0  -9  119.79    2.28
  -3   0  -9  120.36    2.32
  -3   0   9  117.74    2.33
   3   0  -9  120.03    2.32
   3   0   9  117.90    2.32
  -5   0  -9    0.96    0.11
   5   0   9    0.88    0.10
  -5   0   9    1.04    0.12
  -7   0  -9    6.02    0.27
  -7   0   9    5.91    0.26
   0   1  -9   23.15    0.50
   0   1   9   23.66    0.50
   0  -1  -9   24.68    0.51
   0   1  -9   23.60    0.51
   0  -1   9   23.52    0.50
   0  -1  -9   23.38    0.51
  -2   1   9  170.51    3.22
  -2  -1  -9  161.24    3.19
  -2  -1  -9  168.59    3.19
   2   1  -9  167.85    3.19
   2  -1   9  168.61    3.21
  -2   1  -9  169.29    3.17
   2  -1  -9  167.25    3.22
   2   1   9  167.77    3.20
  -2  -1   9  167.20    3.16
   2  -1  -9  166.42    3.19
  -2   1  -9  165.81    3.20
  -2  -1   9  163.98    3.22
  -4  -1  -9    8.01    0.21
  -4   1   9    7.67    0.25
  -4   1   9    7.88    0.19
  -4  -1  -9    8.02    0.25
   4  -1   9    8.15    0.26
  -4   1  -9    7.79    0.26
   4   1   9    7.96    0.25
  -4   1  -9    8.04    0.19
  -4  -1   9    8.28    0.26
  -6   1   9    6.07    0.25
   6  -1   9    5.94    0.22
  -6  -1  -9    6.77    0.25
  -6   1  -9    6.08    0.25
   6   1   9    6.81    0.24
  -6  -1   9    5.99    0.25
  -8   1   9    0.15    0.09
  -8  -1  -9    0.26    0.11
  -8  -1   9    0.07    0.10
  -8   1  -9    0.10    0.11
  -8  -1   9    0.25    0.09
   1  -2   9   55.95    1.14
   1  -2   9   56.71    1.11
  -1   2   9   56.77    1.12
   1   2  -9   55.35    1.13
  -1  -2  -9   56.73    1.12
  -1  -2  -9   56.70    1.13
   1   2   9   58.10    1.13
   1  -2  -9   57.30    1.12
  -1  -2   9   56.53    1.14
  -1  -2   9   57.34    1.12
   1  -2  -9   57.40    1.14
  -1   2  -9   57.59    1.14
  -3  -2  -9   77.11    1.53
   3   2  -9   76.94    1.54
  -3   2   9   78.77    1.50
   3  -2   9   77.04    1.55
  -3  -2  -9   75.82    1.52
  -3  -2   9   79.25    1.47
   3   2   9   78.02    1.54
  -3   2  -9   76.62    1.48
   3  -2  -9   77.72    1.53
  -3   2  -9   77.03    1.55
  -3  -2   9   76.03    1.56
   5  -2   9    0.06    0.06
  -5  -2  -9   -0.01    0.04
  -5  -2  -9    0.02    0.06
  -5  -2   9    0.01    0.07
   5   2   9    0.10    0.07
  -5   2  -9   -0.10    0.06
  -7  -2  -9    5.16    0.24
  -7   2   9    5.76    0.24
   7  -2   9    5.48    0.22
  -7  -2   9    5.68    0.26
  -7   2  -9    5.30    0.26
   0  -3   9    0.37    0.06
   0   3   9    0.46    0.05
   0   3  -9    0.37    0.06
   0  -3  -9    0.33    0.05
   0  -3  -9    0.35    0.04
   0  -3   9    0.37    0.05
  -2   3   9   53.32    1.05
  -2  -3  -9   51.59    1.05
  -2  -3  -9   52.16    1.07
   2  -3   9   51.79    1.08
   2   3  -9   53.06    1.07
   2  -3   9   53.62    1.02
  -2   3  -9   52.20    1.08
  -2  -3   9   53.83    1.03
   2   3   9   52.57    1.07
  -2  -3   9   53.40    1.09
   2  -3  -9   52.29    1.08
   2  -3  -9   53.97    1.06
  -4  -3  -9    0.00    0.06
  -4  -3  -9    0.11    0.05
  -4   3   9    0.04    0.05
   4  -3   9    0.09    0.07
   4   3  -9    0.05    0.05
  -4  -3   9    0.08    0.08
   4   3   9    0.04    0.06
  -4   3  -9    0.14    0.07
  -6  -3  -9    0.95    0.12
  -6  -3  -9    1.25    0.11
  -6   3   9    1.23    0.12
   6  -3   9    1.21    0.12
  -6  -3   9    1.13    0.14
  -6   3  -9    1.05    0.13
   6   3   9    1.35    0.13
   1   4  -9   15.03    0.36
  -1   4   9   14.53    0.35
  -1  -4  -9   14.74    0.33
   1  -4   9   14.63    0.37
   1  -4   9   14.86    0.33
  -1  -4  -9   15.10    0.36
  -1   4  -9   14.51    0.36
   1   4   9   14.25    0.35
  -1  -4   9   15.25    0.37
  -1  -4   9   14.94    0.34
   1  -4  -9   14.73    0.36
   1  -4  -9   15.26    0.34
  -3  -4  -9   28.99    0.66
   3  -4   9   30.65    0.68
   3   4  -9   29.82    0.66
  -3  -4  -9   30.46    0.64
   3  -4  -9   30.52    0.67
  -3  -4   9   29.98    0.69
  -3   4  -9   30.28    0.68
   3  -4  -9   30.12    0.64
   3   4   9   29.50    0.66
  -3  -4   9   30.10    0.60
   5  -4   9    0.24    0.07
  -5  -4  -9    0.16    0.07
  -5   4   9    0.23    0.07
  -5  -4  -9    0.19    0.06
   5   4   9    0.27    0.08
  -5   4  -9    0.23    0.08
  -5  -4   9    0.19    0.09
   5  -4  -9    0.21    0.05
   7  -4   9    2.31    0.16
  -7   4   9    2.54    0.19
  -7  -4  -9    2.42    0.18
  -7  -4   9    2.67    0.20
  -7   4  -9    2.80    0.20
   0  -5   9   52.11    1.06
   0  -5  -9   52.46    1.08
   0   5   9   51.95    1.06
   0   5  -9   51.46    1.06
   0  -5  -9   51.91    1.02
   0  -5   9   52.74    1.06
  -2  -5  -9   95.12    1.88
   2  -5   9   96.50    1.95
  -2  -5  -9   95.93    1.95
   2   5  -9   98.50    1.92
   2  -5   9   96.26    1.88
  -2  -5   9   99.00    1.90
   2  -5  -9  100.17    1.93
   2  -5  -9  100.43    1.95
  -2  -5   9   98.48    1.96
  -2   5  -9   98.36    1.93
   2   5   9   99.60    1.93
  -4  -5  -9   12.18    0.32
   4  -5   9   12.41    0.35
  -4  -5  -9   12.43    0.35
   4   5   9   12.29    0.34
   4  -5  -9   12.16    0.34
  -4  -5   9   12.06    0.37
   4  -5  -9   12.27    0.32
  -4   5  -9   12.25    0.36
  -6  -5  -9    8.76    0.29
   6  -5   9    8.62    0.30
  -6   5   9    8.57    0.30
  -6  -5   9    8.40    0.33
  -6   5  -9    8.35    0.32
   1  -6   9   17.78    0.40
   1  -6   9   18.01    0.45
   1   6  -9   18.04    0.42
  -1  -6  -9   18.23    0.45
  -1  -6   9   17.78    0.44
  -1   6  -9   17.77    0.43
   1   6   9   18.62    0.44
   1  -6  -9   17.82    0.44
   1  -6  -9   18.14    0.44
  -1  -6   9   17.85    0.42
   3   6  -9   20.34    0.47
   3  -6   9   19.89    0.50
  -3  -6  -9   19.99    0.50
  -3  -6   9   19.31    0.51
   3  -6  -9   20.75    0.49
   3   6   9   20.27    0.49
  -3   6  -9   20.31    0.50
   3  -6  -9   20.45    0.49
  -5  -6  -9    0.90    0.11
  -5   6   9    0.74    0.09
  -5   6   9    0.78    0.10
   5  -6   9    0.67    0.10
  -5   6  -9    0.77    0.11
   5   6   9    0.65    0.10
  -5  -6   9    0.66    0.12
   5  -6  -9    0.75    0.09
  -7   6   9    1.88    0.17
   7  -6   9    1.87    0.16
  -7  -6  -9    1.60    0.16
  -7  -6   9    1.94    0.20
  -7   6  -9    1.57    0.18
   0  -7   9    0.01    0.05
   0   7  -9    0.01    0.05
   0  -7   9    0.03    0.06
   0  -7  -9    0.06    0.06
  -2  -7  -9    2.10    0.14
   2   7  -9    2.25    0.11
   2  -7   9    1.97    0.13
  -2   7  -9    2.21    0.14
  -2  -7   9    2.23    0.16
  -2  -7   9    2.25    0.11
   2   7   9    2.19    0.13
   2  -7  -9    2.11    0.13
   2  -7  -9    2.42    0.14
   4  -7   9    0.29    0.08
  -4   7   9    0.25    0.07
  -4  -7  -9    0.21    0.08
  -4  -7   9    0.23    0.10
   4  -7  -9    0.19    0.07
   4  -7  -9    0.13    0.07
   4   7   9    0.25    0.08
  -4   7  -9    0.21    0.09
  -6   7   9   -0.06    0.06
   6  -7   9   -0.05    0.06
  -6  -7  -9    0.01    0.07
  -6   7  -9    0.14    0.10
  -6  -7   9    0.03    0.10
   1  -8   9    0.06    0.06
  -1  -8  -9    0.03    0.06
   1  -8  -9    0.05    0.05
  -1  -8   9    0.15    0.07
  -1  -8   9    0.09    0.05
  -1   8  -9    0.02    0.05
   1  -8  -9    0.07    0.06
   1   8   9    0.00    0.05
   3  -8   9    0.15    0.07
  -3  -8  -9    0.14    0.08
   3  -8  -9    0.30    0.07
   3  -8  -9    0.32    0.08
  -3  -8   9    0.24    0.09
   3   8   9    0.37    0.08
  -3   8  -9    0.16    0.07
   5  -8   9    1.13    0.13
  -5  -8  -9    0.98    0.13
  -5   8  -9    1.06    0.14
   5  -8  -9    1.10    0.12
   5   8   9    0.91    0.13
  -5  -8   9    1.47    0.17
   0  -9  -9    5.29    0.22
   0  -9   9    5.19    0.20
   0  -9   9    5.27    0.22
   0  -9  -9    5.59    0.23
   2  -9   9    8.89    0.31
  -2  -9  -9    8.12    0.30
   2   9   9    8.89    0.29
   2  -9  -9    8.50    0.30
  -2  -9   9    9.08    0.31
   2  -9  -9    8.89    0.29
  -2  -9   9    8.77    0.27
   4  -9   9    2.05    0.18
  -4  -9  -9    1.98    0.17
   4  -9  -9    2.20    0.15
  -4  -9   9    1.62    0.17
   4   9   9    1.98    0.16
  -1 -10  -9    2.72    0.17
   1 -10   9    2.44    0.16
  -1 -10   9    2.65    0.16
   1 -10  -9    2.31    0.16
   1  10   9    2.16    0.15
   1 -10  -9    2.36    0.16
  -1 -10   9    2.44    0.15
   3 -10   9    3.24    0.20
  -3 -10  -9    2.85    0.20
   3  10   9    2.94    0.19
  -3 -10   9    2.98    0.20
   3 -10  -9    3.03    0.17
   3 -10  -9    2.86    0.18
   0 -11  -9    0.25    0.09
   0 -11   9    0.25    0.08
  -2 -11  -9    0.01    0.08
   2 -11   9    0.14    0.09
   2  11   9    0.13    0.08
   2 -11  -9    0.08    0.08
   2 -11  -9   -0.08    0.06
  -2 -11   9   -0.03    0.08
   0   0  10  183.96    3.54
   0   0 -10  183.70    3.50
   0   0 -10  182.90    3.51
   2   0 -10   50.11    1.02
  -2   0 -10   50.19    1.00
   2   0  10   49.62    1.03
  -2   0  10   49.78    0.99
  -2   0  10   51.79    1.04
  -2   0 -10   50.40    1.03
  -4   0 -10   30.79    0.69
   4   0 -10   31.12    0.69
   4   0  10   30.86    0.69
  -4   0  10   30.57    0.70
  -4   0 -10   29.37    0.63
  -6   0 -10    3.35    0.19
  -6   0  10    3.11    0.18
   6   0  10    3.65    0.18
  -8   0 -10    0.28    0.11
  -8   0  10    0.47    0.12
  -8   0  10    0.54    0.12
  -1   1  10  110.96    2.10
  -1  -1 -10  110.64    2.11
   1  -1  10  108.06    2.12
  -1  -1 -10  109.01    2.12
   1   1 -10  108.75    2.12
   1  -1 -10  110.90    2.11
  -1  -1  10  105.59    2.10
  -1   1 -10  109.19    2.10
  -1   1 -10  108.84    2.12
   1  -1 -10  107.77    2.13
   1   1  10  110.53    2.12
  -1  -1  10  110.45    2.13
   3   1 -10   51.25    1.05
  -3  -1 -10   51.03    1.02
   3  -1  10   49.80    1.05
  -3  -1 -10   50.76    1.04
  -3   1  10   50.03    1.05
  -3   1  10   51.13    0.99
  -3  -1  10   51.16    0.98
   3   1  10   51.09    1.05
  -3   1 -10   50.73    0.99
  -3  -1  10   50.30    1.06
   3  -1 -10   50.47    1.04
  -3   1 -10   50.79    1.05
  -5   1  10    9.47    0.30
  -5  -1 -10    9.78    0.26
  -5  -1 -10    9.19    0.30
   5  -1  10    9.34    0.29
  -5   1 -10    9.83    0.31
  -5  -1  10   10.01    0.32
   5   1  10   10.23    0.30
  -7   1  10    2.55    0.18
  -7  -1 -10    2.42    0.18
   7  -1  10    2.31    0.16
  -7  -1  10    2.27    0.19
  -7   1 -10    2.30    0.19
   0  -2 -10   93.94    1.82
   0  -2  10   90.85    1.83
   0   2 -10   95.31    1.84
   0   2  10   94.36    1.83
   0  -2  10   95.48    1.83
   0  -2 -10   94.90    1.84
   2  -2  10   26.41    0.59
  -2  -2 -10   26.08    0.57
  -2   2  10   26.57    0.55
  -2  -2 -10   26.35    0.57
   2   2 -10   26.24    0.58
   2  -2 -10   26.78    0.59
  -2  -2  10   26.77    0.60
   2   2  10   25.95    0.58
   2  -2 -10   26.49    0.58
  -2   2 -10   26.53    0.59
  -2  -2  10   27.80    0.55
  -4   2  10   20.00    0.50
  -4   2  10   20.67    0.44
   4   2 -10   19.90    0.50
   4  -2  10   20.46    0.50
  -4  -2 -10   21.47    0.47
  -4  -2 -10   20.99    0.50
  -4   2 -10   20.35    0.51
   4   2  10   20.63    0.50
  -4  -2  10   20.19    0.52
  -6  -2 -10    4.10    0.21
  -6   2  10    4.25    0.21
   6  -2  10    4.19    0.19
  -6  -2  10    4.07    0.22
   6   2  10    4.59    0.20
  -6   2 -10    4.47    0.22
   1  -3  10   50.14    0.97
   1  -3  10   47.87    1.00
  -1   3  10   48.24    0.98
   1   3 -10   49.29    0.99
  -1  -3 -10   47.90    0.99
  -1  -3 -10   48.28    0.97
   1  -3 -10   49.31    0.97
   1  -3 -10   47.95    1.00
  -1  -3  10   48.79    1.00
  -1  -3  10   48.99    0.97
   1   3  10   46.58    0.98
  -1   3 -10   49.24    1.00
   3  -3  10   27.70    0.63
  -3  -3 -10   28.28    0.61
  -3   3  10   27.98    0.59
  -3  -3 -10   27.09    0.61
   3   3 -10   27.18    0.62
   3   3  10   27.84    0.62
  -3  -3  10   27.56    0.55
   3  -3 -10   28.53    0.62
   3  -3 -10   27.94    0.62
  -3  -3  10   27.72    0.64
  -3   3 -10   27.01    0.63
  -5  -3 -10    6.04    0.23
  -5   3  10    6.07    0.23
  -5  -3 -10    6.37    0.21
   5  -3  10    6.12    0.23
   5   3  10    6.03    0.23
  -5   3 -10    5.85    0.24
  -5  -3  10    5.75    0.25
  -7   3  10    2.73    0.18
   7  -3  10    2.28    0.16
  -7  -3 -10    2.45    0.19
  -7   3 -10    2.42    0.20
  -7  -3  10    2.32    0.20
   0   4 -10   71.75    1.44
   0  -4 -10   71.54    1.40
   0  -4  10   71.25    1.43
   0  -4  10   74.52    1.43
   0  -4 -10   72.03    1.45
   0   4  10   72.07    1.43
   2   4 -10   20.51    0.47
   2  -4  10   20.68    0.49
  -2  -4 -10   20.32    0.45
  -2  -4 -10   20.16    0.48
   2  -4  10   20.41    0.42
  -2   4  10   20.38    0.46
  -2  -4  10   20.68    0.44
  -2   4 -10   20.16    0.49
   2   4  10   19.88    0.47
  -2  -4  10   20.26    0.50
   2  -4 -10   20.87    0.46
   2  -4 -10   19.95    0.48
  -4  -4 -10   10.63    0.30
  -4  -4 -10   10.40    0.30
   4  -4  10   10.10    0.32
   4   4 -10   10.73    0.31
   4   4  10   10.92    0.31
  -4   4 -10   10.97    0.33
  -4  -4  10   10.67    0.34
  -6   4  10    2.43    0.16
  -6  -4 -10    2.36    0.16
   6  -4  10    2.27    0.15
  -6  -4 -10    2.06    0.14
   6   4  10    2.33    0.16
  -6  -4  10    2.24    0.19
  -6   4 -10    2.35    0.18
  -1  -5 -10   64.82    1.30
   1  -5  10   63.18    1.29
  -1   5  10   63.74    1.28
   1  -5  10   63.47    1.26
   1   5 -10   61.77    1.28
  -1  -5 -10   63.60    1.24
  -1   5 -10   63.12    1.29
  -1  -5  10   63.84    1.27
  -1  -5  10   64.14    1.30
   1  -5 -10   64.04    1.30
   1   5  10   62.49    1.29
   1  -5 -10   64.83    1.25
   3  -5  10   29.37    0.68
  -3  -5 -10   29.41    0.63
  -3  -5 -10   29.64    0.67
   3   5 -10   29.24    0.66
   3  -5 -10   29.85    0.67
   3  -5 -10   29.40    0.65
  -3  -5  10   30.95    0.70
  -3   5 -10   29.76    0.68
   3   5  10   29.84    0.66
  -5  -5 -10    6.34    0.24
   5  -5  10    6.36    0.25
  -5  -5 -10    6.65    0.23
  -5   5  10    6.65    0.24
   5   5  10    6.51    0.24
  -5   5 -10    6.09    0.26
  -5  -5  10    6.32    0.27
   5  -5 -10    6.39    0.21
  -7   5  10    1.84    0.17
   7  -5  10    1.59    0.15
  -7  -5 -10    2.69    0.17
  -7  -5  10    2.04    0.20
  -7   5 -10    2.10    0.20
   0   6 -10   25.99    0.58
   0  -6 -10   26.67    0.61
   0  -6  10   25.58    0.59
   0  -6 -10   26.04    0.53
   0  -6  10   25.53    0.58
   0   6  10   26.30    0.59
  -2  -6 -10    7.51    0.25
   2  -6  10    7.26    0.25
   2   6 -10    8.00    0.24
   2   6  10    7.95    0.25
   2  -6 -10    7.79    0.24
  -2  -6  10    7.81    0.22
   2  -6 -10    7.53    0.25
  -2  -6  10    8.08    0.27
  -2   6 -10    7.76    0.25
   4  -6  10    5.60    0.23
  -4  -6 -10    5.72    0.23
   4   6 -10    5.91    0.22
   4  -6 -10    5.99    0.21
   4   6  10    5.92    0.23
  -4   6 -10    6.43    0.25
  -4  -6  10    6.40    0.27
   4  -6 -10    5.87    0.22
  -6   6  10    1.15    0.13
   6  -6  10    1.07    0.13
  -6  -6 -10    0.96    0.12
  -6   6 -10    0.84    0.14
  -6  -6  10    1.17    0.16
   1  -7  10    7.24    0.24
   1  -7  10    7.11    0.20
  -1  -7 -10    7.05    0.25
   1   7 -10    7.21    0.22
  -1  -7  10    6.92    0.22
   1   7  10    6.87    0.24
  -1  -7  10    7.07    0.24
   1  -7 -10    7.14    0.24
  -1   7 -10    6.69    0.23
   1  -7 -10    7.10    0.24
  -3  -7 -10    6.27    0.24
   3   7 -10    6.15    0.21
   3  -7  10    6.15    0.24
   3   7  10    6.21    0.23
   3  -7 -10    5.81    0.22
  -3  -7  10    6.12    0.26
  -3   7 -10    6.02    0.23
   3  -7 -10    6.11    0.23
  -5  -7 -10    1.47    0.14
   5  -7  10    1.73    0.15
  -5   7  10    1.78    0.13
   5  -7 -10    1.65    0.13
  -5   7 -10    1.52    0.16
   5   7  10    1.87    0.15
  -5  -7  10    1.32    0.16
   0   8  10    3.66    0.17
   0  -8 -10    3.73    0.18
   0  -8  10    3.44    0.16
   0   8 -10    3.97    0.16
   0  -8  10    3.44    0.17
  -2  -8 -10    0.85    0.11
   2  -8  10    0.68    0.10
   2  -8 -10    0.75    0.10
   2  -8 -10    0.78    0.10
  -2   8 -10    0.80    0.10
   2   8  10    0.79    0.10
  -4  -8 -10    1.30    0.14
   4  -8  10    1.36    0.14
  -4  -8  10    1.32    0.16
   4   8  10    1.63    0.14
  -4   8 -10    1.92    0.16
   4  -8 -10    1.62    0.14
   4  -8 -10    1.70    0.14
   1  -9  10    6.66    0.26
  -1  -9 -10    7.24    0.27
  -1  -9  10    7.06    0.24
  -1  -9  10    6.89    0.25
   1  -9 -10    6.91    0.26
   1   9  10    6.94    0.26
   1  -9 -10    6.41    0.26
   3  -9  10    4.95    0.24
  -3  -9 -10    5.57    0.24
   3   9  10    5.56    0.23
   3  -9 -10    5.21    0.23
   3  -9 -10    5.61    0.23
  -3  -9  10    5.59    0.25
  -5  -9 -10    1.17    0.15
   5  -9  10    1.15    0.15
  -5   9 -10    1.12    0.14
  -5  -9  10    1.27    0.17
   5  -9 -10    1.02    0.12
   0 -10  10    3.48    0.19
   0 -10 -10    3.67    0.20
   0  10  10    3.56    0.19
   2 -10  10    1.46    0.15
  -2 -10 -10    1.78    0.16
   2 -10 -10    1.39    0.15
   2 -10 -10    1.60    0.15
   2  10  10    1.37    0.14
  -2 -10  10    1.67    0.16
  -4 -10 -10    0.75    0.13
   4 -10  10    0.81    0.13
  -4 -10  10    0.89    0.15
   4 -10 -10    0.77    0.12
   4  10  10    0.77    0.13
  -1 -11 -10    0.43    0.10
   1 -11  10    0.41    0.10
   1 -11 -10    0.52    0.11
   1 -11 -10    0.43    0.10
   1  11  10    0.52    0.10
  -1 -11  10    0.48    0.09
  -1   0  11    5.18    0.16
   1   0 -11    5.42    0.18
  -1   0 -11    5.38    0.16
   1   0 -11    5.25    0.17
   1   0  11    5.33    0.18
  -1   0 -11    5.35    0.18
  -3   0 -11    0.35    0.05
  -3   0 -11    0.34    0.08
   3   0 -11    0.44    0.07
  -3   0  11    0.36    0.07
   3   0  11    0.46    0.09
  -3   0  11    0.43    0.05
  -5   0 -11    1.75    0.15
  -5   0  11    2.27    0.16
   5   0  11    2.11    0.14
   7   0  11    0.22    0.08
  -7   0 -11    0.08    0.10
  -7   0  11    0.11    0.10
   0  -1 -11   24.48    0.54
   0   1 -11   25.33    0.54
   0   1 -11   24.83    0.55
   0  -1  11   24.20    0.54
   0   1  11   25.15    0.54
   0  -1 -11   24.54    0.54
   2  -1  11   24.49    0.55
   2   1 -11   24.30    0.55
  -2  -1 -11   23.91    0.54
  -2   1  11   24.13    0.51
  -2  -1 -11   24.12    0.53
   2  -1 -11   24.64    0.54
   2  -1 -11   24.73    0.55
  -2   1 -11   24.65    0.51
   2   1  11   25.01    0.55
  -2  -1  11   23.84    0.55
  -2   1 -11   23.71    0.55
  -2  -1  11   24.71    0.51
   4   1 -11    7.34    0.25
  -4  -1 -11    7.49    0.25
   4  -1  11    7.68    0.26
  -4   1  11    7.49    0.26
  -4  -1 -11    7.64    0.21
  -4  -1  11    7.62    0.26
   4  -1 -11    7.72    0.25
   4   1  11    8.04    0.26
  -4   1 -11    7.69    0.26
  -6  -1 -11    6.02    0.25
  -6   1  11    5.50    0.24
   6  -1  11    6.36    0.24
  -6   1 -11    6.22    0.26
   6   1  11    5.88    0.23
  -6  -1  11    5.97    0.26
   1  -2  11    0.03    0.04
  -1   2  11    0.07    0.04
  -1  -2 -11   -0.05    0.04
   1   2 -11    0.01    0.04
   1  -2  11    0.00    0.06
  -1  -2 -11   -0.03    0.04
   1  -2 -11    0.07    0.04
  -1  -2  11    0.00    0.05
  -1   2 -11   -0.06    0.05
   1   2  11    0.01    0.05
  -1  -2  11   -0.01    0.05
   1  -2 -11    0.05    0.04
  -3  -2 -11    0.29    0.06
   3  -2  11    0.34    0.08
  -3   2  11    0.27    0.05
  -3  -2 -11    0.40    0.07
   3   2 -11    0.26    0.07
   3   2  11    0.30    0.08
  -3  -2  11    0.37    0.08
  -3   2 -11    0.34    0.08
  -3   2 -11    0.35    0.04
  -3  -2  11    0.38    0.05
   3  -2 -11    0.39    0.07
   5  -2  11    5.85    0.22
  -5  -2 -11    5.97    0.23
  -5  -2 -11    5.72    0.19
  -5   2  11    5.80    0.23
  -5  -2  11    5.36    0.24
   5   2  11    5.68    0.22
  -5   2 -11    5.79    0.24
  -7   2  11    0.62    0.12
   7  -2  11    0.83    0.11
  -7  -2 -11    0.73    0.13
  -7   2 -11    0.51    0.13
  -7  -2  11    0.59    0.13
   0  -3  11    0.05    0.05
   0  -3 -11    0.11    0.04
   0  -3 -11    0.04    0.04
   0   3  11    0.01    0.04
   0  -3  11    0.06    0.05
   0   3 -11    0.07    0.05
  -2   3  11    1.22    0.09
   2  -3  11    1.04    0.07
   2  -3  11    0.96    0.10
  -2  -3 -11    1.02    0.09
   2   3 -11    0.93    0.09
  -2  -3 -11    0.89    0.08
  -2  -3  11    0.85    0.10
   2  -3 -11    1.09    0.10
  -2   3 -11    0.86    0.10
  -2  -3  11    0.97    0.08
   2  -3 -11    0.98    0.08
   2   3  11    1.05    0.10
   4  -3  11    1.78    0.13
  -4   3  11    1.77    0.12
   4   3 -11    1.72    0.12
  -4   3  11    1.69    0.09
  -4  -3 -11    1.71    0.12
   4   3  11    1.59    0.13
  -4   3 -11    1.65    0.14
  -4  -3  11    1.55    0.14
  -6  -3 -11    3.11    0.19
  -6  -3 -11    3.34    0.16
   6  -3  11    3.16    0.18
  -6   3  11    3.21    0.18
  -6  -3  11    3.30    0.22
  -6   3 -11    3.19    0.20
   6   3  11    3.00    0.18
  -1  -4 -11    1.87    0.10
   1   4 -11    1.61    0.11
   1  -4  11    1.72    0.10
   1  -4  11    1.68    0.12
  -1  -4 -11    1.80    0.11
  -1   4  11    1.69    0.11
  -1  -4  11    1.75    0.12
  -1   4 -11    1.77    0.12
   1  -4 -11    1.62    0.11
   1  -4 -11    1.83    0.09
   1   4  11    1.73    0.11
  -1  -4  11    1.89    0.11
  -3   4  11    0.02    0.04
   3  -4  11    0.11    0.07
   3   4 -11    0.06    0.06
  -3  -4 -11    0.04    0.05
  -3  -4 -11    0.08    0.05
   3   4  11    0.04    0.07
  -3   4 -11   -0.07    0.06
  -3  -4  11    0.00    0.08
   3  -4 -11    0.04    0.06
  -5  -4 -11    1.89    0.13
  -5  -4 -11    1.63    0.14
  -5   4  11    1.64    0.13
   5  -4  11    1.96    0.15
   5   4  11    1.79    0.14
  -5   4 -11    1.63    0.15
  -5  -4  11    1.81    0.17
  -7   4  11    0.06    0.07
   7  -4  11    0.05    0.07
  -7  -4 -11   -0.01    0.09
  -7   4 -11    0.09    0.11
  -7  -4  11   -0.10    0.10
   0  -5 -11   22.60    0.53
   0  -5 -11   22.03    0.48
   0  -5  11   22.18    0.51
   0   5 -11   21.78    0.52
   0  -5  11   22.57    0.51
   0   5  11   22.58    0.52
   2  -5  11   17.01    0.44
  -2  -5 -11   17.21    0.39
   2   5 -11   16.80    0.42
  -2   5  11   17.32    0.42
  -2  -5 -11   17.56    0.44
   2  -5 -11   17.14    0.41
   2   5  11   17.70    0.43
   2  -5 -11   17.18    0.43
  -2  -5  11   17.69    0.40
  -2  -5  11   18.10    0.46
  -2   5 -11   17.48    0.44
  -4  -5 -11    4.20    0.19
   4   5 -11    4.67    0.19
  -4  -5 -11    4.60    0.18
   4  -5  11    4.47    0.20
   4   5  11    5.01    0.20
  -4  -5  11    4.47    0.22
  -4   5 -11    4.44    0.21
   4  -5 -11    4.71    0.20
   6  -5  11    2.25    0.16
  -6  -5 -11    2.54    0.16
  -6   5 -11    2.05    0.18
  -6  -5  11    2.44    0.21
   1  -6  11    4.90    0.19
   1   6 -11    4.57    0.17
  -1  -6 -11    4.54    0.19
  -1   6  11    4.62    0.18
   1  -6  11    4.50    0.16
  -1  -6  11    4.40    0.19
   1  -6 -11    4.48    0.15
   1   6  11    4.48    0.18
  -1  -6  11    4.50    0.17
   1  -6 -11    4.46    0.18
  -1   6 -11    4.46    0.18
  -3  -6 -11    0.54    0.08
   3  -6  11    0.65    0.10
   3   6 -11    0.52    0.08
   3  -6 -11    0.62    0.09
   3   6  11    0.55    0.09
  -3  -6  11    0.36    0.10
   3  -6 -11    0.73    0.09
  -3   6 -11    0.55    0.10
  -5  -6 -11    2.55    0.16
  -5   6  11    2.70    0.15
   5  -6  11    2.40    0.16
   5  -6 -11    2.49    0.14
   5   6  11    2.56    0.17
  -5  -6  11    2.55    0.19
  -5   6 -11    2.53    0.19
   0  -7 -11    0.99    0.11
   0   7  11    0.92    0.10
   0  -7  11    1.10    0.10
   0   7 -11    0.85    0.09
   0  -7  11    1.05    0.10
  -2  -7 -11    0.07    0.06
   2   7 -11    0.11    0.05
   2  -7  11    0.14    0.07
   2   7  11    0.18    0.07
  -2  -7  11    0.15    0.05
   2  -7 -11    0.17    0.06
  -2  -7  11    0.17    0.09
   2  -7 -11    0.04    0.06
  -2   7 -11    0.18    0.07
   4   7 -11    0.04    0.06
  -4  -7 -11   -0.03    0.06
   4  -7  11   -0.01    0.07
   4  -7 -11   -0.10    0.06
  -4   7 -11    0.00    0.07
   4  -7 -11   -0.08    0.06
  -4  -7  11   -0.14    0.08
   4   7  11    0.02    0.07
  -6   7  11    0.75    0.11
  -6  -7 -11    0.54    0.11
   6  -7  11    0.67    0.11
  -6  -7  11    0.67    0.14
  -6   7 -11    0.81    0.14
  -1  -8 -11    0.29    0.08
   1   8 -11    0.25    0.07
   1  -8  11    0.30    0.08
  -1   8  11    0.23    0.07
  -1  -8  11    0.34    0.08
  -1   8 -11    0.16    0.07
   1  -8 -11    0.30    0.07
  -1  -8  11    0.21    0.06
   1   8  11    0.29    0.08
   3  -8  11    0.55    0.10
  -3  -8 -11    0.60    0.10
   3  -8 -11    0.48    0.09
  -3  -8  11    0.54    0.11
   3  -8 -11    0.44    0.09
  -3   8 -11    0.54    0.10
   3   8  11    0.42    0.09
  -5  -8 -11    0.62    0.11
   5  -8  11    0.51    0.11
   5  -8 -11    0.50    0.10
  -5  -8  11    0.63    0.14
   5   8  11    0.65    0.12
  -5   8 -11    0.67    0.12
   0  -9 -11    2.70    0.17
   0   9  11    2.97    0.17
   0  -9  11    2.99    0.17
   2  -9  11    2.79    0.17
  -2  -9 -11    2.64    0.17
  -2  -9  11    3.13    0.18
   2  -9 -11    2.70    0.17
   2  -9 -11    2.50    0.16
   2   9  11    2.43    0.17
  -4  -9 -11    1.13    0.14
   4  -9  11    0.97    0.13
   4  -9 -11    1.15    0.13
  -4  -9  11    1.18    0.16
  -4   9 -11    0.99    0.13
   4   9  11    1.07    0.13
  -1 -10 -11    1.29    0.14
  -1  10  11    1.48    0.14
   1 -10  11    1.55    0.15
   1 -10 -11    1.62    0.15
   1  10  11    1.48    0.15
  -1 -10  11    1.68    0.14
  -1 -10  11    1.45    0.13
   3 -10  11    0.32    0.10
  -3 -10 -11    0.27    0.09
   3  10  11    0.20    0.09
   3 -10 -11    0.22    0.08
   3 -10 -11   -0.04    0.07
  -3 -10  11    0.25    0.10
   0  11  11    0.03    0.07
   0 -11 -11    0.01    0.08
   0 -11  11   -0.07    0.06
   2 -11  11   -0.02    0.07
  -2 -11 -11    0.01    0.08
   2 -11 -11   -0.09    0.07
  -2 -11  11    0.02    0.08
   2  11  11   -0.01    0.08
   2 -11 -11    0.07    0.07
   0   0  12  263.25    5.01
   0   0 -12  264.80    4.98
   0   0 -12  255.73    5.04
   2   0 -12   44.45    0.93
  -2   0  12   44.08    0.89
  -2   0 -12   43.49    0.93
  -2   0 -12   45.03    0.90
  -2   0  12   43.98    0.93
   2   0  12   44.24    0.93
  -4   0  12   23.94    0.58
  -4   0 -12   23.91    0.58
   4   0  12   23.95    0.58
  -4   0 -12   23.82    0.51
   4   0 -12   23.53    0.57
   6   0  12    5.49    0.23
  -6   0  12    5.18    0.24
  -6   0 -12    5.11    0.24
  -1   1  12   46.23    0.95
  -1  -1 -12   47.30    0.97
   1   1 -12   46.52    0.97
   1  -1  12   46.54    0.97
  -1  -1 -12   46.09    0.96
  -1   1 -12   46.75    0.95
   1  -1 -12   47.77    0.97
  -1   1 -12   46.50    0.97
   1  -1 -12   47.64    0.98
  -1  -1  12   47.23    0.97
   1   1  12   48.05    0.97
  -1  -1  12   46.54    0.95
  -3  -1 -12    2.68    0.15
   3  -1  12    2.87    0.15
  -3   1  12    2.79    0.11
  -3  -1 -12    2.90    0.12
   3   1 -12    2.79    0.14
  -3   1  12    2.73    0.15
   3   1  12    2.66    0.16
  -3   1 -12    2.70    0.16
  -3  -1  12    2.93    0.11
  -3  -1  12    2.99    0.16
  -3   1 -12    2.72    0.10
   3  -1 -12    2.83    0.14
   5  -1  12    5.71    0.23
  -5  -1 -12    5.97    0.23
  -5   1  12    5.57    0.24
   5   1  12    5.44    0.23
  -5   1 -12    5.64    0.24
  -5  -1  12    5.37    0.24
  -7   1  12    0.08    0.10
   7  -1  12    0.11    0.08
  -7  -1 -12   -0.03    0.08
  -7  -1  12    0.15    0.11
  -7   1 -12   -0.05    0.09
   0  -2  12    5.38    0.17
   0  -2 -12    5.15    0.18
   0   2 -12    4.98    0.18
   0  -2 -12    4.99    0.17
   0   2  12    5.04    0.17
   0  -2  12    5.43    0.18
  -2   2  12   12.96    0.31
  -2  -2 -12   12.67    0.33
   2  -2  12   13.33    0.36
  -2  -2 -12   13.20    0.34
   2   2 -12   13.11    0.35
   2  -2 -12   12.70    0.33
  -2  -2  12   13.05    0.35
  -2  -2  12   13.47    0.31
   2   2  12   13.62    0.35
   2  -2 -12   13.03    0.35
  -2   2 -12   12.79    0.35
  -4  -2 -12    0.29    0.06
  -4  -2 -12    0.26    0.07
   4  -2  12    0.11    0.08
  -4   2  12    0.22    0.07
   4   2 -12    0.25    0.07
  -4   2  12    0.20    0.05
  -4   2 -12    0.25    0.08
  -4  -2  12    0.29    0.09
   4   2  12    0.13    0.08
  -6  -2 -12    0.05    0.08
  -6   2  12   -0.07    0.08
   6  -2  12    0.04    0.08
  -6   2 -12    0.07    0.08
   6   2  12    0.17    0.09
  -6  -2  12    0.03    0.09
   1  -3  12   10.98    0.31
  -1  -3 -12   11.84    0.31
  -1  -3 -12   11.45    0.30
   1  -3  12   11.22    0.28
  -1   3  12   11.76    0.30
   1   3 -12   11.31    0.31
  -1   3 -12   10.73    0.31
  -1  -3  12   11.27    0.29
   1  -3 -12   11.83    0.29
   1   3  12   11.66    0.31
  -1  -3  12   11.85    0.31
   1  -3 -12   11.61    0.31
  -3   3  12    0.00    0.04
  -3  -3 -12    0.04    0.06
   3  -3  12   -0.02    0.07
   3   3 -12    0.08    0.06
  -3  -3 -12    0.01    0.05
  -3   3 -12   -0.02    0.07
   3  -3 -12   -0.04    0.06
   3   3  12   -0.03    0.07
  -3  -3  12    0.08    0.08
   3  -3 -12    0.03    0.05
  -5  -3 -12    3.92    0.19
   5  -3  12    3.47    0.19
  -5   3  12    3.26    0.18
  -5  -3 -12    3.81    0.16
  -5  -3  12    3.52    0.21
  -5   3 -12    3.84    0.21
   5   3  12    3.70    0.19
   7  -3  12    0.10    0.07
  -7  -3 -12    0.10    0.10
  -7   3  12   -0.08    0.08
  -7   3 -12   -0.04    0.10
  -7  -3  12    0.09    0.12
   0   4  12   73.22    1.47
   0   4 -12   73.25    1.48
   0  -4 -12   74.22    1.49
   0  -4  12   73.21    1.47
   0  -4  12   73.05    1.47
   0  -4 -12   73.50    1.44
  -2   4  12    6.22    0.20
   2  -4  12    5.59    0.22
   2   4 -12    5.81    0.21
  -2  -4 -12    6.45    0.22
  -2  -4 -12    6.10    0.20
   2  -4  12    6.35    0.17
  -2  -4  12    6.15    0.18
   2   4  12    6.03    0.21
  -2   4 -12    6.12    0.23
   2  -4 -12    6.46    0.22
  -2  -4  12    5.99    0.23
   2  -4 -12    6.14    0.20
   4  -4  12    5.73    0.23
  -4  -4 -12    5.54    0.21
  -4   4  12    6.19    0.19
   4   4 -12    5.79    0.23
  -4  -4 -12    6.01    0.21
  -4  -4  12    5.80    0.25
  -4   4 -12    5.74    0.24
   4   4  12    6.11    0.23
  -6  -4 -12    2.25    0.14
  -6   4  12    2.06    0.16
  -6  -4 -12    2.38    0.17
   6  -4  12    2.29    0.16
   6   4  12    2.43    0.17
  -6  -4  12    2.40    0.20
  -6   4 -12    2.45    0.20
  -1   5  12   32.05    0.71
  -1  -5 -12   33.13    0.73
  -1  -5 -12   32.58    0.68
   1  -5  12   31.81    0.68
   1  -5  12   31.56    0.72
   1   5 -12   32.05    0.71
  -1   5 -12   31.87    0.72
   1   5  12   32.85    0.72
   1  -5 -12   32.93    0.68
  -1  -5  12   33.12    0.70
  -1  -5  12   33.16    0.73
   1  -5 -12   32.49    0.73
  -3  -5 -12    5.41    0.20
  -3  -5 -12    4.83    0.18
   3  -5  12    4.81    0.21
  -3   5  12    4.87    0.18
   3   5 -12    4.89    0.19
  -3   5 -12    5.16    0.22
  -3  -5  12    5.05    0.22
   3   5  12    5.10    0.21
   3  -5 -12    4.88    0.20
   5  -5  12    3.20    0.19
  -5  -5 -12    3.48    0.17
  -5   5  12    3.03    0.17
   5   5  12    3.32    0.19
  -5   5 -12    3.59    0.20
  -5  -5  12    2.99    0.21
  -7   5  12   -0.02    0.08
   0  -6 -12    6.30    0.18
   0  -6  12    6.13    0.21
   0   6 -12    6.03    0.21
   0  -6  12    6.00    0.21
   0  -6 -12    6.00    0.22
   0   6  12    5.99    0.22
  -2   6  12    0.47    0.07
   2  -6  12    0.45    0.09
   2   6 -12    0.57    0.08
  -2  -6 -12    0.47    0.08
   2   6  12    0.48    0.08
  -2  -6  12    0.41    0.06
  -2  -6  12    0.43    0.10
  -2   6 -12    0.37    0.09
   2  -6 -12    0.43    0.08
  -4  -6 -12   -0.03    0.05
   4   6 -12   -0.05    0.05
  -4   6  12   -0.08    0.04
   4  -6  12    0.09    0.07
  -4  -6  12   -0.03    0.09
  -4   6 -12   -0.04    0.07
   4  -6 -12   -0.03    0.06
   4   6  12   -0.03    0.07
  -6  -6 -12    0.11    0.08
  -6   6  12    0.10    0.07
   6  -6  12    0.13    0.08
  -6   6 -12    0.03    0.09
  -6  -6  12    0.05    0.11
  -1  -7 -12    0.94    0.11
   1  -7  12    0.78    0.10
   1   7 -12    0.65    0.09
  -1   7  12    0.62    0.09
  -1  -7  12    0.83    0.09
   1   7  12    0.95    0.11
   1  -7 -12    0.60    0.09
  -1  -7  12    0.73    0.10
  -1   7 -12    0.75    0.09
  -3  -7 -12    0.16    0.07
   3   7 -12    0.13    0.06
  -3   7  12    0.16    0.06
   3  -7  12    0.14    0.07
   3   7  12    0.13    0.08
  -3   7 -12    0.24    0.09
   3  -7 -12    0.19    0.07
  -3  -7  12    0.28    0.10
  -5   7  12    0.60    0.10
   5  -7  12    0.62    0.11
  -5  -7 -12    0.63    0.11
  -5   7  12    0.72    0.10
  -5  -7  12    0.52    0.13
   5   7  12    0.61    0.12
  -5   7 -12    0.88    0.14
   0   8 -12    0.13    0.06
   0   8  12    0.15    0.07
   0  -8  12    0.16    0.07
   0  -8  12    0.06    0.06
   0  -8 -12    0.04    0.07
  -2  -8 -12    1.19    0.13
   2  -8  12    1.28    0.13
  -2   8  12    1.35    0.12
   2  -8 -12    1.25    0.13
   2   8  12    1.17    0.13
  -2   8 -12    1.16    0.12
  -2  -8  12    1.45    0.14
   4  -8  12   -0.08    0.07
  -4  -8 -12   -0.09    0.06
  -4   8 -12    0.28    0.09
  -4  -8  12   -0.04    0.09
   4   8  12   -0.08    0.08
   4  -8 -12    0.10    0.07
  -1  -9 -12    0.81    0.12
  -1   9  12    0.88    0.11
   1  -9  12    0.80    0.11
   1  -9 -12    0.79    0.11
   1   9  12    0.57    0.10
  -1  -9  12    0.83    0.11
  -1  -9  12    0.87    0.10
  -3  -9 -12   -0.02    0.07
   3  -9  12    0.01    0.07
   3  -9 -12   -0.05    0.07
   3   9  12   -0.05    0.08
  -3  -9  12    0.07    0.09
   0 -10 -12    2.58    0.18
   0 -10  12    2.48    0.16
   0  10  12    2.58    0.17
   2 -10  12    0.13    0.08
  -2 -10 -12    0.14    0.09
  -2  10  12    0.11    0.08
   2  10  12    0.26    0.10
   2 -10 -12    0.07    0.08
  -2 -10  12    0.02    0.08
   1 -11  12    0.31    0.09
  -1 -11 -12    0.45    0.11
  -1  11  12    0.46    0.10
  -1 -11  12    0.25    0.08
   1  11  12    0.18    0.10
   1 -11 -12    0.38    0.10
  -1   0 -13   61.93    1.24
  -1   0  13   61.78    1.24
   1   0 -13   61.10    1.26
   1   0  13   62.55    1.26
   1   0 -13   63.29    1.26
  -1   0 -13   62.02    1.26
   3   0  13   45.87    0.99
  -3   0 -13   46.28    0.93
  -3   0 -13   45.89    0.98
  -3   0  13   45.29    0.99
  -3   0  13   46.16    0.92
   3   0 -13   46.15    0.98
  -5   0 -13   12.00    0.38
   5   0  13   12.86    0.38
  -5   0  13   13.07    0.39
   7   0  13    5.46    0.24
  -7   0 -13    5.44    0.27
  -7   0  13    5.28    0.27
   0  -1 -13   63.04    1.27
   0   1 -13   62.75    1.27
   0   1  13   62.32    1.26
   0  -1  13   61.83    1.26
   0  -1 -13   63.15    1.27
  -2  -1 -13   27.65    0.63
   2   1 -13   27.70    0.64
  -2  -1 -13   28.07    0.61
   2  -1  13   28.41    0.64
  -2   1  13   28.37    0.60
   2   1  13   28.26    0.64
  -2  -1  13   28.30    0.64
  -2   1 -13   27.71    0.64
   2  -1 -13   28.52    0.64
  -2  -1  13   28.39    0.60
   2  -1 -13   27.68    0.63
  -2   1 -13   28.86    0.60
   4  -1  13   17.48    0.48
   4   1 -13   18.21    0.48
  -4  -1 -13   18.84    0.43
  -4  -1 -13   18.81    0.48
  -4   1  13   18.73    0.48
  -4   1 -13   18.51    0.48
   4   1  13   18.35    0.48
   4  -1 -13   18.74    0.48
  -4  -1  13   18.80    0.49
  -6  -1 -13    4.07    0.22
   6  -1  13    4.30    0.20
  -6   1  13    4.59    0.23
  -6  -1  13    4.37    0.24
   6   1  13    3.71    0.20
  -6   1 -13    3.82    0.22
  -1   2  13   38.01    0.80
   1  -2  13   36.73    0.82
   1   2 -13   38.50    0.82
  -1  -2 -13   38.84    0.81
   1  -2  13   38.99    0.79
  -1  -2 -13   38.32    0.81
   1   2  13   37.62    0.81
  -1   2 -13   38.60    0.83
  -1  -2  13   38.15    0.82
  -1  -2  13   38.07    0.80
   1  -2 -13   38.54    0.81
   1  -2 -13   38.71    0.82
  -3   2  13   21.97    0.54
   3   2 -13   22.19    0.53
  -3  -2 -13   22.55    0.53
   3  -2  13   22.06    0.55
  -3  -2 -13   22.09    0.51
  -3   2  13   22.31    0.49
   3  -2 -13   21.91    0.53
  -3  -2  13   21.96    0.55
  -3   2 -13   21.72    0.54
   3   2  13   22.30    0.54
  -5  -2 -13    4.20    0.17
  -5   2  13    4.72    0.21
   5  -2  13    4.39    0.20
  -5  -2 -13    4.28    0.20
  -5  -2  13    4.36    0.22
   5   2  13    4.48    0.21
  -5   2 -13    4.12    0.22
  -7   2  13    1.44    0.17
   7  -2  13    1.91    0.16
  -7  -2 -13    1.64    0.17
  -7  -2  13    1.41    0.18
  -7   2 -13    1.77    0.19
   0   3  13   57.83    1.16
   0  -3 -13   57.60    1.18
   0   3 -13   56.41    1.18
   0  -3  13   55.46    1.16
   0  -3 -13   58.04    1.16
   0  -3  13   57.30    1.16
   2  -3  13   22.27    0.47
  -2  -3 -13   22.18    0.51
  -2  -3 -13   22.14    0.52
   2   3 -13   22.51    0.53
  -2   3  13   21.28    0.50
   2  -3  13   22.47    0.54
   2  -3 -13   22.48    0.51
  -2   3 -13   22.17    0.54
  -2  -3  13   22.77    0.49
   2  -3 -13   21.91    0.53
   2   3  13   21.21    0.52
  -2  -3  13   21.69    0.53
   4   3 -13   12.07    0.35
  -4  -3 -13   12.08    0.33
  -4   3  13   11.99    0.30
   4  -3  13   12.32    0.36
  -4   3  13   11.65    0.35
  -4  -3 -13   11.81    0.34
   4   3  13   11.72    0.35
  -4  -3  13   12.31    0.38
  -4   3 -13   12.13    0.37
  -6  -3 -13    2.54    0.18
   6  -3  13    2.32    0.17
  -6   3  13    2.88    0.19
  -6  -3  13    2.80    0.21
  -6   3 -13    2.75    0.20
   6   3  13    2.61    0.18
  -1  -4 -13   26.49    0.62
  -1  -4 -13   26.76    0.59
   1  -4  13   27.64    0.59
  -1   4  13   27.16    0.61
   1  -4  13   27.14    0.62
   1   4 -13   26.66    0.62
   1  -4 -13   26.70    0.62
   1  -4 -13   27.47    0.59
  -1  -4  13   27.62    0.60
  -1   4 -13   26.98    0.63
   1   4  13   27.06    0.61
  -1  -4  13   27.29    0.62
  -3  -4 -13   18.56    0.46
   3   4 -13   18.26    0.47
  -3  -4 -13   18.49    0.47
   3  -4  13   18.83    0.49
  -3   4  13   19.34    0.45
  -3  -4  13   19.25    0.50
  -3   4 -13   19.80    0.50
   3   4  13   19.16    0.48
   3  -4 -13   19.18    0.48
   3  -4 -13   18.75    0.46
   5  -4  13    5.88    0.25
  -5   4  13    6.12    0.25
  -5  -4 -13    5.95    0.22
  -5  -4 -13    5.99    0.24
  -5   4 -13    5.89    0.26
   5   4  13    6.31    0.25
  -5  -4  13    5.81    0.27
   7  -4  13    2.52    0.18
  -7   4 -13    2.26    0.21
  -7  -4  13    1.97    0.21
   0  -5  13   22.89    0.53
   0  -5  13   22.84    0.53
   0   5 -13   22.30    0.54
   0   5  13   22.33    0.54
   0  -5 -13   23.56    0.50
   0  -5 -13   22.86    0.55
   2   5 -13   12.08    0.34
  -2  -5 -13   11.90    0.34
  -2  -5 -13   11.71    0.31
   2  -5  13   12.21    0.35
  -2   5  13   12.04    0.33
   2   5  13   12.34    0.34
  -2  -5  13   12.30    0.36
  -2  -5  13   12.65    0.31
  -2   5 -13   12.12    0.35
   2  -5 -13   11.96    0.32
   2  -5 -13   12.23    0.35
  -4  -5 -13   11.03    0.33
   4   5 -13   10.57    0.33
   4  -5  13   11.45    0.35
  -4  -5 -13   11.09    0.31
  -4   5  13   10.57    0.30
  -4   5 -13   10.68    0.35
   4   5  13   11.11    0.34
  -4  -5  13   10.89    0.37
   4  -5 -13   10.66    0.34
  -6   5  13    3.26    0.20
   6  -5  13    3.61    0.20
  -6  -5 -13    3.38    0.18
  -6   5 -13    3.95    0.24
   6   5  13    3.52    0.21
  -6  -5  13    3.10    0.23
   1   6 -13    7.16    0.24
  -1  -6 -13    7.04    0.25
   1  -6  13    7.23    0.21
   1  -6  13    7.32    0.25
  -1   6  13    7.35    0.24
   1  -6 -13    7.43    0.21
   1   6  13    7.38    0.25
  -1   6 -13    7.32    0.25
  -1  -6  13    6.99    0.24
   1  -6 -13    7.38    0.26
  -1  -6  13    7.10    0.23
   3   6 -13    6.83    0.24
   3  -6  13    6.60    0.26
  -3  -6 -13    7.04    0.25
  -3   6  13    6.77    0.23
  -3   6 -13    6.77    0.26
   3   6  13    7.09    0.26
   3  -6 -13    6.77    0.25
  -3  -6  13    6.77    0.27
  -5   6  13    1.73    0.15
   5  -6  13    1.96    0.17
  -5  -6 -13    1.83    0.15
  -5  -6  13    1.71    0.18
  -5   6 -13    1.69    0.17
   5   6  13    1.93    0.17
   0  -7  13   11.68    0.33
   0  -7 -13   11.17    0.35
   0  -7  13   11.80    0.32
   0   7  13   11.12    0.34
   0   7 -13   11.87    0.33
  -2   7  13    6.05    0.23
  -2  -7 -13    6.05    0.24
   2  -7  13    6.38    0.25
   2   7 -13    6.27    0.22
  -2   7 -13    6.35    0.24
   2  -7 -13    6.12    0.24
   2   7  13    6.24    0.24
  -2  -7  13    6.15    0.25
  -2  -7  13    6.52    0.21
  -4  -7 -13    3.58    0.19
  -4   7  13    3.74    0.18
   4   7 -13    3.89    0.19
   4  -7  13    3.87    0.21
   4  -7 -13    3.68    0.20
   4   7  13    3.67    0.21
  -4  -7  13    3.93    0.23
  -4   7 -13    4.06    0.21
  -1   8  13    3.47    0.18
   1   8 -13    3.91    0.17
  -1  -8 -13    3.44    0.19
   1  -8  13    3.82    0.19
   1  -8 -13    3.57    0.19
   1   8  13    4.00    0.20
  -1   8 -13    3.97    0.18
  -1  -8  13    3.94    0.19
  -1  -8  13    3.75    0.17
  -3   8  13    2.65    0.16
   3  -8  13    2.83    0.18
  -3  -8 -13    2.94    0.18
  -3   8 -13    2.61    0.18
   3   8  13    2.60    0.17
  -3  -8  13    3.02    0.21
   3  -8 -13    2.38    0.17
   5  -8  13    0.23    0.09
  -5   8  13    0.30    0.09
  -5  -8 -13    0.34    0.09
   5   8  13    0.20    0.11
  -5   8 -13    0.22    0.11
  -5  -8  13    0.16    0.11
   0  -9  13    3.64    0.18
   0  -9 -13    3.20    0.19
   0   9  13    3.29    0.19
   2  -9  13    1.30    0.14
  -2   9  13    1.48    0.14
  -2  -9 -13    1.45    0.15
   2   9  13    1.55    0.15
   2  -9 -13    1.50    0.15
  -2  -9  13    1.16    0.14
  -4   9  13    1.20    0.13
   4  -9  13    1.00    0.14
  -4  -9 -13    1.26    0.15
   4  -9 -13    1.53    0.16
  -4  -9  13    1.09    0.15
   4   9  13    1.23    0.14
  -4   9 -13    1.20    0.14
  -1 -10 -13    0.64    0.12
  -1  10  13    0.35    0.10
   1 -10  13    0.57    0.11
  -1 -10  13    0.52    0.10
   1  10  13    0.58    0.11
   1 -10 -13    0.53    0.11
  -3  10  13    0.73    0.11
  -3 -10 -13    0.75    0.13
   3 -10  13    0.63    0.12
  -3 -10  13    0.88    0.14
   3  10  13    0.54    0.12
   3 -10 -13    0.56    0.12
   0  11  13    0.22    0.10
   0 -11  13    0.51    0.11
   0 -11 -13    0.56    0.12
   0   0 -14   65.82    1.35
   0   0 -14   67.24    1.36
   0   0  14   68.48    1.36
  -2   0  14    0.27    0.07
  -2   0  14    0.28    0.07
   2   0  14    0.22    0.09
  -2   0 -14    0.27    0.08
   2   0 -14    0.24    0.07
  -2   0 -14    0.33    0.06
   4   0  14   12.07    0.36
  -4   0  14   12.05    0.36
   4   0 -14   11.83    0.36
  -4   0 -14   12.37    0.37
  -6   0  14    1.57    0.16
   6   0  14    1.81    0.16
  -6   0 -14    1.73    0.17
  -1   1  14   30.78    0.66
  -1  -1 -14   30.49    0.68
   1   1 -14   30.16    0.68
   1  -1  14   30.64    0.68
  -1  -1 -14   31.05    0.67
  -1  -1  14   30.31    0.68
   1   1  14   30.55    0.68
   1  -1 -14   29.94    0.68
  -1   1 -14   31.03    0.66
  -1  -1  14   30.72    0.66
   1  -1 -14   30.75    0.68
  -1   1 -14   30.80    0.69
  -3   1  14    0.07    0.05
  -3  -1 -14    0.03    0.07
   3  -1  14    0.08    0.08
  -3   1  14    0.05    0.07
   3   1 -14    0.01    0.05
  -3  -1 -14    0.03    0.04
  -3  -1  14    0.08    0.05
  -3   1 -14    0.15    0.05
   3  -1 -14    0.05    0.05
  -3   1 -14    0.17    0.08
   3   1  14    0.03    0.08
  -3  -1  14    0.08    0.07
   5  -1  14   19.10    0.51
  -5  -1 -14   18.97    0.51
  -5   1  14   19.52    0.52
   5   1  14   17.90    0.50
  -5   1 -14   19.10    0.52
  -5  -1  14   18.69    0.52
  -7   1  14    0.11    0.11
   7  -1  14    0.15    0.09
  -7  -1 -14    0.43    0.12
   7   1  14    0.29    0.10
  -7   1 -14    0.21    0.12
  -7  -1  14    0.32    0.13
   0  -2 -14   23.52    0.54
   0  -2  14   22.88    0.54
   0   2 -14   23.32    0.55
   0  -2 -14   23.64    0.54
   0   2  14   24.34    0.54
   0  -2  14   23.41    0.53
  -2  -2 -14    6.19    0.22
  -2   2  14    6.69    0.20
   2  -2  14    6.75    0.24
  -2  -2 -14    6.22    0.21
   2   2 -14    6.09    0.22
   2  -2  14    6.03    0.18
  -2   2 -14    6.36    0.24
  -2  -2  14    6.54    0.20
   2   2  14    6.47    0.23
  -2  -2  14    6.07    0.23
   2  -2 -14    6.18    0.21
   2  -2 -14    6.29    0.22
   4  -2  14    1.96    0.15
  -4  -2 -14    1.87    0.11
  -4  -2 -14    1.70    0.14
  -4   2  14    2.04    0.14
   4   2 -14    1.85    0.14
  -4  -2  14    1.88    0.16
  -4   2 -14    2.06    0.16
   4   2  14    1.97    0.15
   4  -2 -14    1.89    0.13
  -6   2  14    0.11    0.09
  -6  -2 -14   -0.07    0.07
   6  -2  14    0.10    0.08
   6   2  14    0.01    0.09
  -6  -2  14    0.05    0.10
  -6   2 -14    0.13    0.09
  -1  -3 -14   19.76    0.47
  -1  -3 -14   19.94    0.48
   1  -3  14   19.96    0.45
   1   3 -14   20.77    0.49
   1  -3  14   19.44    0.49
  -1   3  14   20.08    0.47
   1   3  14   20.69    0.49
  -1   3 -14   19.69    0.50
   1  -3 -14   20.17    0.49
  -1  -3  14   20.41    0.47
   1  -3 -14   19.94    0.47
  -1  -3  14   19.66    0.48
   3  -3  14    0.03    0.07
   3   3 -14    0.05    0.06
  -3  -3 -14    0.18    0.06
  -3   3  14    0.13    0.05
  -3  -3 -14    0.11    0.06
  -3   3 -14    0.00    0.07
  -3  -3  14    0.06    0.08
   3   3  14    0.04    0.07
   3  -3 -14    0.12    0.07
   3  -3 -14    0.18    0.06
   5  -3  14   11.15    0.35
  -5  -3 -14   10.63    0.31
  -5  -3 -14   10.64    0.34
  -5   3  14   10.96    0.35
   5   3 -14   10.12    0.34
  -5  -3  14   10.68    0.37
   5   3  14   10.35    0.35
  -5   3 -14   11.33    0.37
  -7  -3 -14    0.17    0.10
  -7   3  14    0.32    0.11
   7  -3  14    0.40    0.10
  -7   3 -14    0.16    0.11
  -7  -3  14    0.29    0.13
   0   4  14   33.04    0.71
   0  -4 -14   31.74    0.69
   0  -4  14   31.72    0.70
   0  -4  14   31.67    0.70
   0   4 -14   31.54    0.72
   0  -4 -14   31.70    0.72
  -2  -4 -14    0.16    0.06
  -2   4  14    0.12    0.06
  -2  -4 -14    0.14    0.05
   2  -4  14    0.14    0.07
   2   4 -14    0.18    0.07
   2  -4 -14    0.23    0.07
  -2   4 -14    0.09    0.07
   2   4  14    0.23    0.07
  -2  -4  14    0.23    0.06
  -2  -4  14    0.23    0.09
   2  -4 -14    0.18    0.06
  -4   4  14    7.22    0.22
   4   4 -14    6.83    0.26
  -4  -4 -14    6.88    0.24
  -4   4  14    6.90    0.25
   4  -4  14    6.99    0.27
  -4  -4 -14    7.21    0.25
   4   4  14    7.02    0.26
  -4   4 -14    7.17    0.28
  -4  -4  14    6.58    0.28
   6  -4  14    0.84    0.13
  -6  -4 -14    0.51    0.11
  -6   4  14    0.86    0.13
  -6  -4  14    0.53    0.14
  -6   4 -14    0.75    0.14
   6   4  14    0.84    0.14
   1   5 -14    7.24    0.24
  -1  -5 -14    6.62    0.21
  -1  -5 -14    7.14    0.25
  -1   5  14    6.92    0.23
   1  -5  14    7.13    0.25
   1  -5  14    6.88    0.21
   1  -5 -14    6.94    0.25
   1   5  14    6.87    0.24
  -1   5 -14    6.83    0.24
   1  -5 -14    6.83    0.21
  -1  -5  14    6.87    0.22
  -1  -5  14    7.02    0.24
   3   5 -14    0.03    0.06
  -3  -5 -14    0.10    0.06
  -3   5  14    0.07    0.05
  -3  -5 -14    0.03    0.06
   3  -5  14   -0.08    0.07
   3  -5 -14    0.02    0.06
   3   5  14   -0.07    0.07
  -3   5 -14    0.06    0.08
  -3  -5  14   -0.09    0.08
  -5   5  14    5.61    0.24
   5  -5  14    6.10    0.26
  -5  -5 -14    5.66    0.23
  -5  -5  14    5.38    0.28
  -5   5 -14    5.93    0.27
   5   5  14    5.81    0.25
   0   6  14    7.34    0.25
   0   6 -14    7.13    0.25
   0  -6 -14    7.34    0.26
   0  -6  14    7.26    0.24
   0  -6  14    7.24    0.24
  -2   6  14    0.41    0.08
  -2  -6 -14    0.40    0.08
   2  -6  14    0.51    0.09
   2   6 -14    0.41    0.08
   2  -6 -14    0.36    0.06
  -2  -6  14    0.42    0.10
  -2  -6  14    0.49    0.07
   2  -6 -14    0.25    0.08
   2   6  14    0.61    0.10
  -2   6 -14    0.47    0.10
  -4   6  14    1.28    0.11
   4  -6  14    1.18    0.13
   4   6 -14    1.09    0.12
  -4  -6 -14    1.25    0.13
   4  -6 -14    1.23    0.13
   4   6  14    1.29    0.14
  -4  -6  14    1.11    0.15
  -4   6 -14    1.12    0.14
   6  -6  14    0.05    0.08
  -6  -6 -14    0.13    0.08
  -6  -6  14   -0.08    0.10
  -6   6 -14    0.06    0.10
   6   6  14    0.07    0.10
  -1   7  14    4.66    0.20
  -1  -7 -14    4.46    0.20
   1  -7  14    4.08    0.19
   1   7 -14    4.33    0.19
  -1   7 -14    4.53    0.20
  -1  -7  14    4.63    0.18
   1   7  14    4.00    0.20
   1  -7 -14    4.12    0.20
  -1  -7  14    4.40    0.20
   3   7 -14    0.03    0.06
  -3  -7 -14   -0.03    0.06
   3  -7  14    0.05    0.07
  -3   7  14    0.04    0.06
   3   7  14    0.01    0.08
   3  -7 -14    0.02    0.07
  -3   7 -14    0.09    0.07
  -3  -7  14   -0.14    0.08
  -5   7  14    2.57    0.17
  -5  -7 -14    3.14    0.19
   5  -7  14    2.93    0.19
  -5  -7  14    2.36    0.22
   5   7  14    2.65    0.20
  -5   7 -14    3.12    0.22
   0   8 -14    4.36    0.19
   0  -8  14    4.06    0.19
   0   8  14    4.09    0.20
   0  -8 -14    4.27    0.21
  -2  -8 -14   -0.08    0.07
  -2   8  14    0.05    0.07
   2  -8  14    0.02    0.07
   2   8 -14    0.14    0.07
   2  -8 -14   -0.05    0.06
   2   8  14    0.09    0.08
  -2   8 -14   -0.01    0.07
  -2  -8  14   -0.04    0.08
   4  -8  14    0.80    0.12
  -4  -8 -14    0.62    0.11
  -4   8  14    0.82    0.11
   4   8  14    0.78    0.14
   4  -8 -14    0.88    0.13
  -4  -8  14    0.90    0.15
  -4   8 -14    1.00    0.14
  -1  -9 -14    0.61    0.11
   1  -9  14    0.59    0.11
  -1   9  14    0.51    0.10
  -1  -9  14    0.52    0.10
   1   9  14    0.67    0.11
   1  -9 -14    0.67    0.11
  -1  -9  14    0.55    0.09
   3  -9  14   -0.10    0.07
  -3  -9 -14    0.12    0.09
  -3   9  14   -0.07    0.06
  -3   9 -14    0.09    0.08
   3   9  14    0.01    0.08
   3  -9 -14    0.15    0.08
  -3  -9  14    0.23    0.10
   0  10  14    0.19    0.09
   0 -10 -14    0.24    0.09
   0 -10  14    0.28    0.09
  -2 -10 -14   -0.06    0.07
  -2  10  14    0.03    0.08
   2 -10  14   -0.01    0.08
  -2 -10  14    0.03    0.09
   2  10  14    0.04    0.09
   2 -10 -14    0.05    0.08
   1   0 -15    0.03    0.05
  -1   0  15    0.07    0.07
  -1   0 -15    0.00    0.06
  -1   0 -15    0.02    0.05
   1   0 -15   -0.03    0.06
   1   0  15    0.13    0.08
   3   0 -15    3.40    0.17
  -3   0  15    3.57    0.18
  -3   0 -15    3.52    0.14
  -3   0 -15    3.36    0.18
  -3   0  15    3.36    0.14
   3   0  15    3.73    0.19
   5   0  15    1.58    0.15
  -5   0 -15    1.62    0.16
  -5   0  15    1.75    0.16
  -7   0 -15    1.47    0.18
  -7   0  15    1.54    0.18
   7   0  15    1.66    0.16
   0  -1  15   29.38    0.65
   0  -1 -15   29.75    0.66
   0  -1  15   30.18    0.67
   0   1  15   29.90    0.66
   0   1 -15   29.54    0.68
   0  -1 -15   29.69    0.67
  -2  -1 -15    6.34    0.23
  -2   1  15    6.20    0.20
   2   1 -15    6.55    0.23
  -2  -1 -15    6.39    0.21
   2  -1  15    6.75    0.25
   2  -1 -15    6.47    0.23
  -2   1 -15    6.34    0.24
  -2  -1  15    6.18    0.23
  -2   1 -15    6.62    0.20
  -2  -1  15    6.32    0.20
   2   1  15    6.25    0.24
  -4  -1 -15    4.42    0.21
  -4  -1 -15    4.57    0.17
  -4   1  15    4.55    0.21
   4  -1  15    4.94    0.22
   4   1 -15    4.59    0.21
  -4   1 -15    4.53    0.22
  -4  -1  15    4.27    0.21
   4   1  15    4.53    0.22
   4  -1 -15    4.24    0.20
  -6  -1 -15    0.18    0.09
   6  -1  15    0.12    0.09
  -6   1  15    0.03    0.10
  -6   1 -15    0.00    0.09
  -6  -1  15    0.00    0.09
  -1   2  15    0.95    0.10
   1  -2  15    1.12    0.09
  -1  -2 -15    0.97    0.10
   1   2 -15    1.14    0.11
   1  -2  15    1.06    0.12
  -1  -2 -15    0.92    0.09
   1   2  15    0.94    0.11
  -1  -2  15    1.08    0.11
   1  -2 -15    1.07    0.10
  -1   2 -15    0.96    0.11
   1  -2 -15    0.98    0.11
  -1  -2  15    1.02    0.10
   3   2 -15    2.42    0.15
  -3  -2 -15    2.58    0.13
  -3   2  15    2.40    0.13
  -3   2  15    2.47    0.15
   3  -2  15    2.74    0.17
  -3  -2 -15    2.93    0.16
  -3   2 -15    2.69    0.17
  -3  -2  15    2.44    0.16
   3   2  15    2.33    0.16
   3  -2 -15    2.54    0.14
   5  -2  15    1.82    0.16
   5   2 -15    1.12    0.13
  -5  -2 -15    1.46    0.14
  -5   2  15    1.53    0.15
   5   2  15    1.20    0.14
  -5  -2  15    1.34    0.16
  -5   2 -15    1.39    0.15
   7  -2  15    1.57    0.16
  -7   2  15    1.57    0.18
  -7  -2 -15    1.61    0.18
  -7   2 -15    1.65    0.19
   7   2  15    1.52    0.16
  -7  -2  15    1.76    0.20
   0  -3  15   10.57    0.29
   0   3  15   10.18    0.30
   0   3 -15    9.90    0.31
   0  -3 -15   10.58    0.30
   0  -3 -15   10.19    0.29
   0  -3  15   10.07    0.30
  -2  -3 -15   12.23    0.33
   2   3 -15   12.16    0.35
  -2  -3 -15   11.89    0.34
  -2   3  15   12.24    0.32
   2  -3  15   12.51    0.36
   2  -3  15   12.40    0.30
  -2  -3  15   12.14    0.31
   2   3  15   11.95    0.35
  -2   3 -15   12.26    0.36
  -2  -3  15   12.23    0.35
   2  -3 -15   12.68    0.34
   2  -3 -15   11.81    0.35
   4  -3  15    0.40    0.10
   4   3 -15    0.50    0.09
  -4  -3 -15    0.61    0.09
  -4   3  15    0.57    0.10
  -4  -3 -15    0.65    0.10
  -4  -3  15    0.59    0.11
   4   3  15    0.66    0.11
   4  -3 -15    0.46    0.09
  -4   3 -15    0.64    0.11
   6  -3  15    0.69    0.12
  -6   3  15    0.60    0.12
  -6  -3 -15    0.71    0.12
  -6   3 -15    0.54    0.13
   6   3  15    0.58    0.12
  -6  -3  15    0.54    0.14
   1  -4  15    1.11    0.09
   1  -4  15    1.09    0.11
  -1  -4 -15    1.31    0.10
   1   4 -15    1.20    0.11
  -1  -4 -15    1.33    0.12
  -1   4  15    1.04    0.10
  -1  -4  15    1.14    0.11
  -1   4 -15    1.03    0.11
   1   4  15    1.00    0.11
  -1  -4  15    1.21    0.11
   1  -4 -15    1.13    0.11
   1  -4 -15    1.09    0.09
  -3  -4 -15    4.56    0.19
   3  -4  15    4.79    0.22
  -3  -4 -15    4.71    0.20
  -3   4  15    5.06    0.18
   3   4 -15    5.16    0.21
   3  -4 -15    4.59    0.19
   3  -4 -15    5.01    0.22
  -3   4 -15    4.66    0.22
  -3  -4  15    4.80    0.22
   3   4  15    4.40    0.21
   5   4 -15    0.02    0.07
  -5   4  15    0.02    0.08
  -5  -4 -15    0.10    0.08
  -5  -4 -15    0.01    0.06
   5  -4  15    0.16    0.09
  -5   4 -15   -0.03    0.09
   5   4  15    0.24    0.10
  -5  -4  15    0.04    0.10
   0  -5  15   16.18    0.42
   0  -5 -15   16.43    0.44
   0   5  15   16.61    0.43
   0  -5 -15   16.24    0.39
   0   5 -15   16.10    0.43
   0  -5  15   16.36    0.41
  -2  -5 -15    0.34    0.08
  -2  -5 -15    0.11    0.05
   2  -5  15    0.09    0.07
  -2   5  15    0.18    0.07
   2   5 -15    0.06    0.06
   2  -5 -15    0.08    0.05
  -2   5 -15    0.17    0.08
   2  -5 -15    0.23    0.08
  -2  -5  15    0.05    0.08
   2   5  15    0.12    0.08
  -2  -5  15    0.16    0.05
  -4  -5 -15    4.78    0.21
  -4   5  15    4.94    0.19
   4  -5  15    4.66    0.22
   4   5 -15    5.03    0.22
  -4   5 -15    5.00    0.24
   4   5  15    4.41    0.22
   4  -5 -15    4.48    0.22
  -4  -5  15    4.81    0.24
  -6  -5 -15    0.19    0.08
  -6   5  15    0.23    0.10
   6  -5  15    0.09    0.09
   6   5  15    0.16    0.11
  -6  -5  15    0.12    0.13
  -6   5 -15    0.21    0.11
  -1  -6 -15   -0.01    0.06
   1  -6  15    0.25    0.08
  -1   6  15   -0.07    0.06
   1   6 -15    0.10    0.06
  -1   6 -15    0.05    0.07
  -1  -6  15    0.05    0.05
  -1  -6  15   -0.02    0.07
   1   6  15    0.01    0.06
   1  -6 -15   -0.01    0.04
   1  -6 -15   -0.11    0.05
  -3   6  15    0.28    0.07
  -3  -6 -15    0.35    0.08
   3  -6  15    0.20    0.09
   3   6 -15    0.29    0.08
  -3   6 -15    0.40    0.10
  -3  -6  15    0.38    0.11
   3   6  15    0.29    0.09
   3  -6 -15    0.29    0.09
  -5   6  15    0.09    0.08
   5  -6  15    0.11    0.09
  -5  -6 -15    0.16    0.08
  -5  -6  15    0.01    0.12
  -5   6 -15    0.14    0.11
   5   6  15   -0.06    0.09
   0   7  15    0.06    0.07
   0  -7  15    0.22    0.07
   0  -7 -15    0.10    0.07
   0  -7  15    0.08    0.07
   0   7 -15    0.09    0.07
   2  -7  15    3.68    0.19
   2   7 -15    3.23    0.17
  -2   7  15    3.62    0.18
  -2  -7 -15    3.68    0.20
   2   7  15    3.71    0.19
  -2  -7  15    3.53    0.21
   2  -7 -15    3.40    0.19
  -2   7 -15    3.74    0.19
  -4  -7 -15    0.07    0.08
  -4   7  15    0.08    0.07
   4  -7  15    0.19    0.09
   4   7 -15    0.05    0.07
  -4   7 -15   -0.02    0.09
  -4  -7  15    0.02    0.10
   4   7  15    0.11    0.10
   4  -7 -15   -0.05    0.07
  -1   8  15    1.96    0.15
  -1  -8 -15    2.27    0.16
   1  -8  15    2.25    0.16
   1   8 -15    2.18    0.15
  -1   8 -15    2.04    0.15
  -1  -8  15    2.10    0.14
   1  -8 -15    2.22    0.17
   1   8  15    2.20    0.16
  -1  -8  15    2.44    0.16
  -3   8  15    2.75    0.17
   3  -8  15    2.78    0.19
  -3  -8 -15    2.47    0.18
  -3  -8  15    2.67    0.20
   3   8  15    2.44    0.19
   3  -8 -15    2.66    0.18
  -3   8 -15    2.68    0.19
   0  -9  15    1.91    0.15
   0   9  15    1.99    0.17
   0  -9 -15    2.20    0.17
   2  -9  15    0.02    0.07
  -2  -9 -15    0.12    0.08
  -2   9  15   -0.05    0.07
   2  -9 -15    0.03    0.08
   2   9  15    0.00    0.09
  -2  -9  15    0.04    0.09
   1 -10  15    0.05    0.08
  -1  10  15    0.00    0.08
  -1 -10 -15    0.06    0.08
   1 -10 -15    0.02    0.08
   1  10  15    0.08    0.09
   0   0 -16   53.99    1.13
   0   0  16   55.05    1.14
   0   0 -16   54.98    1.15
  -2   0  16   34.69    0.74
  -2   0 -16   34.30    0.78
  -2   0 -16   34.66    0.74
   2   0 -16   34.74    0.78
  -2   0  16   34.48    0.78
   2   0  16   34.72    0.78
   4   0 -16   21.24    0.54
  -4   0 -16   20.84    0.55
   4   0  16   20.38    0.55
  -4   0  16   20.94    0.55
  -6   0 -16    4.17    0.25
   6   0  16    4.77    0.25
  -6   0  16    4.57    0.25
   1   1 -16   22.52    0.55
  -1   1  16   21.88    0.52
   1  -1  16   21.77    0.54
  -1  -1 -16   22.68    0.54
  -1  -1 -16   22.40    0.52
   1  -1 -16   22.36    0.54
  -1  -1  16   22.82    0.54
   1  -1 -16   23.09    0.54
  -1  -1  16   21.99    0.52
   1   1  16   22.53    0.54
  -1   1 -16   22.44    0.52
  -1   1 -16   22.47    0.55
  -3  -1 -16   18.42    0.44
  -3  -1 -16   18.91    0.49
   3  -1  16   18.16    0.49
  -3   1  16   18.58    0.43
   3   1 -16   18.46    0.48
  -3   1  16   18.84    0.49
  -3   1 -16   18.30    0.43
  -3  -1  16   18.22    0.49
   3   1  16   19.56    0.49
  -3   1 -16   18.10    0.49
   3  -1 -16   18.22    0.48
  -5   1  16    4.70    0.24
  -5  -1 -16    5.47    0.25
   5   1 -16    4.52    0.23
   5  -1  16    5.13    0.24
  -5   1 -16    5.16    0.25
   5   1  16    5.01    0.24
  -5  -1  16    6.01    0.26
   0  -2 -16   24.68    0.57
   0   2 -16   24.48    0.58
   0  -2  16   24.22    0.56
   0  -2  16   23.97    0.57
   0   2  16   24.22    0.57
   0  -2 -16   23.54    0.57
   2  -2  16   13.46    0.38
  -2   2  16   13.97    0.35
   2  -2  16   13.69    0.33
  -2  -2 -16   13.42    0.36
  -2  -2 -16   13.65    0.38
   2   2 -16   13.29    0.38
  -2  -2  16   13.92    0.35
  -2   2 -16   13.01    0.39
   2  -2 -16   13.09    0.38
   2   2  16   13.55    0.38
  -2  -2  16   13.89    0.38
   2  -2 -16   13.41    0.37
  -4   2  16   13.79    0.41
   4   2 -16   13.92    0.40
  -4  -2 -16   13.70    0.40
   4  -2  16   12.91    0.40
  -4  -2 -16   13.49    0.36
   4   2  16   13.76    0.41
   4  -2 -16   13.32    0.40
  -4   2 -16   13.78    0.42
  -4  -2  16   12.98    0.41
   6  -2  16    4.23    0.23
  -6  -2 -16    4.44    0.24
  -6   2  16    4.27    0.25
  -6   2 -16    4.37    0.25
   6   2  16    4.30    0.23
  -6  -2  16    4.21    0.27
  -1  -3 -16    8.74    0.27
  -1  -3 -16    8.58    0.26
   1  -3  16    8.52    0.28
   1  -3  16    8.71    0.25
  -1   3  16    8.81    0.26
   1   3 -16    8.84    0.28
   1  -3 -16    8.57    0.26
   1  -3 -16    7.97    0.27
  -1   3 -16    8.56    0.28
  -1  -3  16    8.16    0.25
  -1  -3  16    8.37    0.27
   1   3  16    8.18    0.27
   3  -3  16    8.32    0.30
   3   3 -16    8.69    0.29
  -3  -3 -16    8.38    0.28
  -3  -3 -16    8.57    0.27
  -3   3  16    8.21    0.25
   3   3  16    8.46    0.30
  -3  -3  16    8.25    0.29
  -3   3 -16    8.63    0.31
   3  -3 -16    8.71    0.30
   3  -3 -16    7.92    0.27
   5  -3  16    4.25    0.22
  -5  -3 -16    3.72    0.20
   5   3 -16    4.32    0.22
  -5   3  16    4.10    0.22
  -5  -3 -16    3.87    0.18
   5   3  16    3.96    0.22
  -5   3 -16    3.98    0.24
  -5  -3  16    4.23    0.25
   0   4 -16   26.45    0.62
   0  -4 -16   25.86    0.59
   0   4  16   26.74    0.61
   0  -4  16   25.05    0.60
   0  -4  16   25.42    0.59
   0  -4 -16   25.34    0.62
  -2   4  16   13.20    0.35
  -2  -4 -16   13.01    0.35
   2   4 -16   12.97    0.38
  -2  -4 -16   12.86    0.36
   2  -4  16   13.03    0.38
  -2  -4  16   13.26    0.33
   2  -4 -16   12.59    0.35
  -2   4 -16   12.17    0.38
  -2  -4  16   13.43    0.39
   2   4  16   12.40    0.37
   2  -4 -16   12.88    0.38
  -4  -4 -16   10.19    0.32
  -4  -4 -16   10.08    0.32
   4   4 -16   10.03    0.33
  -4   4  16    9.12    0.32
   4  -4  16   10.02    0.34
   4   4  16    9.85    0.34
  -4  -4  16    9.82    0.36
  -4   4 -16   10.92    0.36
  -6  -4 -16    2.36    0.18
   6  -4  16    2.30    0.19
  -6   4  16    2.69    0.21
  -6   4 -16    2.54    0.22
   6   4  16    2.64    0.20
  -6  -4  16    2.76    0.23
  -1  -5 -16   17.55    0.47
   1  -5  16   18.05    0.43
   1   5 -16   16.84    0.46
   1  -5  16   17.64    0.46
  -1   5  16   17.74    0.45
  -1  -5 -16   17.87    0.43
  -1  -5  16   17.98    0.44
  -1  -5  16   16.92    0.46
   1  -5 -16   17.69    0.47
  -1   5 -16   17.37    0.47
   1   5  16   16.60    0.46
   1  -5 -16   17.66    0.43
   3  -5  16   12.63    0.39
   3   5 -16   12.73    0.38
  -3   5  16   12.40    0.35
  -3  -5 -16   12.45    0.35
  -3  -5 -16   12.46    0.37
  -3   5 -16   12.27    0.40
   3   5  16   12.29    0.38
   3  -5 -16   12.10    0.35
   3  -5 -16   12.22    0.38
  -3  -5  16   12.43    0.39
   5   5 -16    3.47    0.20
  -5   5  16    3.28    0.20
   5  -5  16    3.83    0.22
  -5  -5 -16    3.56    0.19
  -5  -5  16    3.37    0.23
   5   5  16    3.96    0.23
  -5   5 -16    3.37    0.23
   0  -6  16    9.84    0.29
   0   6  16    9.35    0.31
   0  -6 -16    9.31    0.32
   0   6 -16    9.01    0.30
   0  -6  16    9.67    0.30
  -2  -6 -16    5.45    0.23
   2   6 -16    5.51    0.23
   2  -6  16    5.42    0.23
  -2   6  16    5.46    0.22
   2   6  16    5.08    0.23
   2  -6 -16    5.57    0.24
   2  -6 -16    5.74    0.21
  -2   6 -16    5.88    0.24
  -2  -6  16    5.75    0.25
  -4   6  16    4.21    0.20
  -4  -6 -16    4.36    0.21
   4  -6  16    4.56    0.23
   4   6 -16    4.04    0.21
  -4  -6  16    4.09    0.24
   4  -6 -16    4.23    0.23
   4   6  16    4.93    0.24
  -4   6 -16    3.87    0.23
   1  -7  16    1.03    0.12
   1   7 -16    0.95    0.11
  -1  -7 -16    0.81    0.11
  -1   7  16    1.05    0.12
  -1   7 -16    1.11    0.12
  -1  -7  16    1.13    0.13
   1   7  16    1.06    0.13
   1  -7 -16    1.05    0.13
  -1  -7  16    1.32    0.12
   3   7 -16    1.72    0.15
  -3   7  16    1.83    0.15
  -3  -7 -16    2.11    0.16
   3  -7  16    1.76    0.17
  -3   7 -16    2.17    0.18
   3  -7 -16    1.71    0.16
  -3  -7  16    2.14    0.18
   3   7  16    1.96    0.17
  -5   7  16    0.55    0.11
   5  -7  16    0.72    0.13
  -5  -7 -16    0.55    0.11
  -5  -7  16    0.42    0.14
   5   7  16    0.47    0.13
  -5   7 -16    0.51    0.14
   0  -8  16    1.55    0.13
   0  -8 -16    1.50    0.15
   0   8  16    1.10    0.13
   0   8 -16    1.52    0.14
   2   8 -16    0.87    0.11
   2  -8  16    0.70    0.12
  -2  -8 -16    0.84    0.12
  -2   8  16    0.60    0.11
   2   8  16    0.59    0.12
  -2   8 -16    0.75    0.11
   2  -8 -16    0.67    0.12
  -2  -8  16    0.54    0.12
   4  -8  16    0.87    0.14
  -4   8  16    0.95    0.12
  -4  -8 -16    1.18    0.14
  -4   8 -16    1.13    0.15
   4  -8 -16    0.99    0.14
   4   8  16    0.81    0.14
  -4  -8  16    0.89    0.15
   1  -9  16    2.13    0.16
  -1   9  16    1.75    0.17
  -1  -9 -16    2.06    0.18
  -1  -9  16    1.91    0.14
   1  -9 -16    2.41    0.19
   1   9  16    2.10    0.19
  -3   9  16    1.39    0.15
   3  -9  16    1.44    0.16
  -3  -9 -16    1.39    0.16
   3   9  16    1.43    0.17
   3  -9 -16    1.49    0.16
  -3  -9  16    1.51    0.17
  -3   9 -16    1.42    0.16
   0  10  16    2.08    0.19
   0 -10 -16    2.59    0.20
   0 -10  16    2.36    0.17
  -1   0 -17    2.80    0.16
   1   0  17    2.47    0.16
   1   0 -17    2.69    0.15
  -1   0  17    2.60    0.14
  -1   0  17    2.77    0.15
  -1   0 -17    2.56    0.14
  -3   0  17    0.10    0.07
  -3   0 -17   -0.02    0.07
   3   0  17    0.03    0.08
  -3   0 -17    0.06    0.05
   3   0 -17   -0.04    0.06
   5   0 -17    0.35    0.09
  -5   0 -17    0.18    0.10
   5   0  17    0.27    0.10
  -5   0  17    0.34    0.11
   0  -1 -17   13.21    0.37
   0   1 -17   12.33    0.36
   0  -1  17   13.29    0.35
   0  -1  17   12.89    0.36
   0   1  17   12.72    0.36
   0  -1 -17   12.91    0.35
  -2   1  17    0.80    0.09
  -2   1  17    0.88    0.11
   2  -1  17    0.81    0.12
   2   1 -17    1.01    0.11
  -2  -1 -17    0.99    0.10
  -2  -1 -17    0.91    0.11
  -2  -1  17    0.97    0.10
   2   1  17    0.90    0.12
  -2   1 -17    0.89    0.11
   2  -1 -17    0.77    0.10
  -2  -1  17    0.86    0.11
  -2   1 -17    1.01    0.09
   4  -1  17    4.22    0.22
  -4   1  17    4.23    0.21
  -4  -1 -17    3.90    0.21
   4   1 -17    4.24    0.21
  -4   1 -17    4.52    0.23
  -4  -1  17    4.30    0.22
   4   1  17    4.31    0.22
   4  -1 -17    4.41    0.21
  -6  -1 -17   -0.06    0.08
   6  -1  17    0.11    0.10
  -6   1  17    0.16    0.10
  -6  -1  17    0.02    0.11
   6   1  17    0.24    0.10
  -6   1 -17    0.09    0.10
   1  -2  17    0.63    0.08
   1   2 -17    0.38    0.08
  -1  -2 -17    0.34    0.07
  -1  -2 -17    0.45    0.08
  -1   2  17    0.60    0.09
   1  -2  17    0.54    0.10
   1  -2 -17    0.44    0.08
   1   2  17    0.31    0.09
  -1   2 -17    0.44    0.09
   1  -2 -17    0.34    0.07
  -1  -2  17    0.39    0.08
  -1  -2  17    0.57    0.09
   3  -2  17    0.13    0.09
  -3  -2 -17    0.01    0.05
  -3   2  17    0.06    0.07
  -3  -2 -17   -0.01    0.07
   3   2 -17    0.02    0.06
  -3   2  17   -0.02    0.06
  -3  -2  17    0.12    0.08
   3   2  17   -0.02    0.08
  -3   2 -17   -0.13    0.07
   3  -2 -17    0.04    0.06
  -5   2  17    1.16    0.14
  -5  -2 -17    1.19    0.14
   5   2 -17    1.09    0.14
   5  -2  17    0.91    0.13
  -5   2 -17    1.13    0.14
  -5  -2  17    0.89    0.15
   5   2  17    1.28    0.15
   0  -3 -17    0.63    0.09
   0   3 -17    0.55    0.09
   0  -3  17    0.77    0.09
   0  -3 -17    0.56    0.08
   0  -3  17    0.75    0.10
   0   3  17    0.55    0.09
   2   3 -17    0.26    0.07
   2  -3  17    0.33    0.09
  -2  -3 -17    0.27    0.07
  -2   3  17    0.22    0.07
  -2  -3 -17    0.27    0.07
   2  -3 -17    0.35    0.07
  -2  -3  17    0.33    0.09
  -2  -3  17    0.22    0.06
   2   3  17    0.34    0.09
  -2   3 -17    0.24    0.08
   2  -3 -17    0.27    0.08
  -4  -3 -17    1.15    0.13
   4  -3  17    0.98    0.13
  -4  -3 -17    1.13    0.11
   4   3 -17    0.93    0.12
  -4   3  17    1.32    0.14
  -4   3 -17    0.83    0.13
   4  -3 -17    0.93    0.11
   4   3  17    1.03    0.14
  -4  -3  17    1.03    0.14
  -6   3  17   -0.03    0.10
  -6  -3 -17    0.33    0.11
   6  -3  17    0.15    0.10
  -6  -3  17    0.07    0.12
  -6   3 -17    0.34    0.12
   6   3  17    0.14    0.11
   1  -4  17    0.61    0.10
  -1  -4 -17    0.79    0.10
  -1   4  17    0.47    0.09
  -1  -4 -17    0.58    0.08
   1  -4  17    0.77    0.09
   1   4 -17    0.64    0.10
   1  -4 -17    0.73    0.10
   1   4  17    0.75    0.11
  -1   4 -17    0.65    0.10
   1  -4 -17    0.59    0.08
  -1  -4  17    0.67    0.09
  -1  -4  17    0.67    0.10
  -3  -4 -17    0.05    0.06
   3   4 -17    0.11    0.07
  -3  -4 -17    0.03    0.06
  -3   4  17    0.02    0.06
   3  -4  17    0.04    0.07
   3  -4 -17   -0.12    0.06
  -3   4 -17    0.00    0.08
   3   4  17   -0.12    0.08
  -3  -4  17    0.00    0.08
   3  -4 -17    0.02    0.06
   5   4 -17    0.13    0.08
  -5  -4 -17    0.19    0.09
  -5   4  17    0.11    0.09
   5  -4  17    0.09    0.09
  -5  -4 -17    0.12    0.07
  -5   4 -17    0.14    0.10
   5   4  17    0.10    0.10
  -5  -4  17    0.04    0.11
   0  -5 -17    7.33    0.24
   0   5 -17    7.22    0.27
   0  -5  17    7.66    0.26
   0  -5  17    7.53    0.25
   0   5  17    7.49    0.26
   0  -5 -17    7.48    0.27
  -2   5  17    1.65    0.13
   2  -5  17    1.71    0.15
  -2  -5 -17    1.66    0.14
  -2  -5 -17    1.60    0.12
   2   5 -17    1.87    0.14
   2  -5 -17    1.85    0.12
  -2   5 -17    1.64    0.15
   2  -5 -17    1.77    0.15
   2   5  17    1.69    0.15
  -2  -5  17    1.47    0.15
   4   5 -17    1.62    0.15
   4  -5  17    2.08    0.18
  -4  -5 -17    1.87    0.16
   4   5  17    1.94    0.18
  -4   5 -17    1.93    0.18
  -4  -5  17    2.09    0.19
   1  -6  17    1.49    0.14
  -1   6  17    2.06    0.15
   1   6 -17    1.65    0.14
  -1  -6 -17    1.72    0.15
  -1   6 -17    1.60    0.15
   1  -6 -17    1.89    0.15
  -1  -6  17    1.57    0.12
   1   6  17    1.74    0.15
  -1  -6  17    1.75    0.15
  -3   6  17    0.44    0.09
   3  -6  17    0.28    0.09
   3   6 -17    0.46    0.09
  -3  -6 -17    0.46    0.10
  -3   6 -17    0.31    0.11
   3  -6 -17    0.52    0.11
  -3  -6  17    0.46    0.11
   3   6  17    0.38    0.11
  -5  -6 -17    0.41    0.10
   5  -6  17    0.51    0.12
   5   6 -17    0.59    0.11
  -5   6  17    0.84    0.13
  -5   6 -17    0.61    0.13
  -5  -6  17    0.71    0.16
   5   6  17    0.50    0.13
   0  -7  17    0.34    0.08
   0   7  17    0.30    0.09
   0  -7 -17    0.27    0.09
   0   7 -17    0.37    0.09
   2   7 -17    0.93    0.12
  -2   7  17    0.84    0.12
   2  -7  17    1.02    0.13
  -2  -7 -17    0.94    0.13
  -2  -7  17    0.88    0.13
  -2   7 -17    1.02    0.13
   2   7  17    1.12    0.14
   2  -7 -17    0.88    0.13
   4   7 -17   -0.04    0.06
  -4   7  17   -0.12    0.07
  -4  -7 -17   -0.09    0.07
   4  -7  17    0.11    0.08
  -4  -7  17   -0.13    0.10
  -4   7 -17   -0.04    0.09
   4  -7 -17   -0.07    0.07
   4   7  17   -0.11    0.10
   1   8 -17    0.23    0.08
  -1   8  17    0.19    0.09
  -1  -8 -17    0.22    0.09
   1  -8  17    0.11    0.08
   1   8  17    0.31    0.10
  -1  -8  17    0.13    0.07
  -1   8 -17    0.13    0.08
   1  -8 -17    0.17    0.09
  -1  -8  17    0.19    0.09
  -3   8  17    0.02    0.08
  -3  -8 -17    0.29    0.10
   3  -8  17    0.18    0.09
  -3  -8  17    0.12    0.10
  -3   8 -17    0.17    0.09
   3   8  17    0.09    0.10
   3  -8 -17   -0.03    0.08
   0  -9 -17    0.52    0.12
   0  -9  17    0.70    0.11
   0   9  17    0.68    0.12
   2  -9  17    0.40    0.10
  -2   9  17    0.43    0.11
  -2  -9 -17    0.46    0.11
   2   9  17    0.39    0.12
  -2   9 -17    0.31    0.10
   2  -9 -17    0.52    0.11
  -2  -9  17    0.39    0.11
   0   0  18    3.83    0.19
   0   0 -18    4.03    0.19
   0   0 -18    4.25    0.19
  -2   0  18    1.09    0.11
  -2   0 -18    1.03    0.12
  -2   0 -18    1.23    0.10
  -2   0  18    1.03    0.12
   2   0  18    1.30    0.14
   2   0 -18    0.82    0.11
   4   0  18    1.45    0.16
  -4   0 -18    1.55    0.15
   4   0 -18    1.54    0.15
  -4   0  18    1.69    0.16
   6   0  18    0.76    0.14
  -6   0 -18    0.81    0.14
  -6   0  18    0.44    0.13
   1   1 -18    0.16    0.07
  -1  -1 -18    0.18    0.07
  -1   1  18    0.12    0.07
   1  -1  18    0.05    0.08
  -1  -1 -18    0.07    0.06
  -1  -1  18    0.09    0.06
   1  -1 -18    0.11    0.07
   1  -1 -18    0.07    0.07
   1   1  18    0.08    0.09
  -1   1 -18    0.03    0.06
  -1  -1  18    0.15    0.08
  -3  -1 -18    0.60    0.08
  -3   1  18    0.36    0.09
  -3  -1 -18    0.55    0.10
   3   1 -18    0.61    0.10
   3  -1  18    0.54    0.11
  -3   1  18    0.42    0.09
   3  -1 -18    0.39    0.09
  -3   1 -18    0.42    0.10
   3   1  18    0.43    0.11
  -3  -1  18    0.47    0.10
   5   1 -18    0.70    0.12
   5  -1  18    0.95    0.14
  -5   1  18    0.83    0.14
  -5  -1 -18    0.75    0.13
  -5   1 -18    0.90    0.14
   5   1  18    1.04    0.15
  -5  -1  18    0.74    0.14
   0   2  18    7.25    0.25
   0  -2 -18    7.33    0.25
   0  -2  18    7.08    0.24
   0   2 -18    7.24    0.26
   0  -2 -18    7.12    0.25
   0  -2  18    6.85    0.25
   2   2 -18    8.56    0.30
  -2  -2 -18    8.67    0.27
   2  -2  18    8.72    0.30
   2  -2  18    8.42    0.25
  -2   2  18    8.71    0.27
  -2  -2 -18    8.49    0.29
   2  -2 -18    8.55    0.28
  -2  -2  18    8.37    0.26
   2   2  18    8.14    0.30
   2  -2 -18    8.67    0.30
  -2  -2  18    8.08    0.29
  -2   2 -18    8.48    0.30
  -4  -2 -18    0.76    0.12
  -4  -2 -18    1.02    0.11
   4  -2  18    1.11    0.14
   4   2 -18    0.80    0.12
  -4   2  18    1.05    0.13
   4   2  18    0.76    0.13
   4  -2 -18    1.05    0.12
  -4  -2  18    0.96    0.14
  -4   2 -18    1.01    0.14
  -6  -2 -18    2.70    0.20
   6  -2  18    2.84    0.21
  -6   2  18    2.72    0.22
  -6  -2  18    2.88    0.24
   6   2  18    3.02    0.22
  -6   2 -18    2.74    0.23
   1   3 -18    1.12    0.12
   1  -3  18    1.05    0.10
  -1  -3 -18    0.85    0.10
  -1   3  18    1.15    0.12
   1  -3  18    1.23    0.13
  -1  -3 -18    0.94    0.10
   1   3  18    1.05    0.12
  -1  -3  18    0.86    0.11
  -1  -3  18    1.08    0.11
  -1   3 -18    0.92    0.12
   1  -3 -18    1.01    0.11
   1  -3 -18    0.96    0.10
   3  -3  18    0.07    0.09
  -3   3  18   -0.12    0.06
  -3  -3 -18    0.09    0.07
   3   3 -18   -0.12    0.06
  -3  -3 -18   -0.08    0.05
  -3  -3  18    0.02    0.08
   3  -3 -18   -0.04    0.05
   3   3  18   -0.04    0.09
  -3   3 -18   -0.04    0.07
   5   3 -18    0.41    0.11
   5  -3  18    0.36    0.11
  -5  -3 -18    0.23    0.10
  -5   3  18    0.44    0.11
  -5   3 -18    0.59    0.13
   5   3  18    0.44    0.12
  -5  -3  18    0.22    0.13
   0   4 -18    0.44    0.09
   0   4  18    0.41    0.09
   0  -4  18    0.41    0.08
   0  -4  18    0.38    0.09
   0  -4 -18    0.33    0.08
   0  -4 -18    0.46    0.08
  -2   4  18    0.05    0.07
   2  -4  18    0.02    0.08
  -2  -4 -18   -0.04    0.05
  -2  -4 -18    0.43    0.08
   2   4 -18    0.04    0.07
   2   4  18   -0.08    0.08
  -2  -4  18    0.05    0.08
   2  -4 -18    0.01    0.06
  -2   4 -18    0.22    0.08
   2  -4 -18   -0.01    0.06
   4  -4  18    0.20    0.09
   4   4 -18    0.17    0.09
  -4   4  18    0.20    0.09
  -4  -4 -18    0.19    0.08
  -4  -4 -18    0.11    0.07
  -4   4 -18    0.35    0.11
  -4  -4  18   -0.07    0.09
   4   4  18    0.21    0.11
  -1  -5 -18    0.05    0.07
  -1  -5 -18    0.24    0.06
   1   5 -18    0.16    0.07
   1  -5  18    0.06    0.07
  -1   5  18    0.11    0.07
  -1   5 -18    0.17    0.08
  -1  -5  18    0.13    0.07
   1   5  18    0.15    0.09
   1  -5 -18    0.21    0.08
  -1  -5  18    0.19    0.09
   1  -5 -18    0.16    0.06
  -3   5  18    0.39    0.09
   3  -5  18    0.33    0.10
   3   5 -18    0.64    0.10
  -3  -5 -18    0.53    0.10
   3  -5 -18    0.55    0.09
   3  -5 -18    0.53    0.11
  -3  -5  18    0.51    0.12
   3   5  18    0.36    0.11
  -3   5 -18    0.46    0.11
  -5  -5 -18    0.61    0.10
   5  -5  18    0.44    0.11
  -5   5  18    0.51    0.11
   5   5 -18    0.65    0.12
  -5  -5  18    0.46    0.14
  -5   5 -18    0.84    0.15
   5   5  18    0.38    0.12
   0  -6  18    1.71    0.14
   0   6  18    1.43    0.14
   0  -6  18    1.53    0.13
   0   6 -18    1.45    0.14
   0  -6 -18    1.62    0.15
   2  -6  18    1.79    0.16
  -2   6  18    1.80    0.15
   2   6 -18    2.13    0.15
  -2  -6 -18    2.39    0.16
   2  -6 -18    1.66    0.16
   2   6  18    1.95    0.17
  -2   6 -18    2.01    0.17
  -2  -6  18    1.84    0.17
   2  -6 -18    2.13    0.15
  -4  -6 -18    0.73    0.11
   4   6 -18    0.52    0.11
   4  -6  18    0.63    0.12
  -4   6 -18    0.68    0.13
   4   6  18    0.70    0.13
   4  -6 -18    0.79    0.14
  -4  -6  18    0.71    0.15
   1  -7  18    0.48    0.10
  -1  -7 -18    0.47    0.11
  -1   7  18    0.46    0.10
   1   7 -18    0.34    0.09
   1  -7 -18    0.40    0.10
  -1   7 -18    0.46    0.10
  -1  -7  18    0.54    0.09
  -1  -7  18    0.36    0.10
   1   7  18    0.26    0.10
   3  -7  18   -0.03    0.08
  -3   7  18   -0.14    0.06
   3   7 -18    0.06    0.07
  -3  -7 -18   -0.05    0.07
  -3  -7  18    0.04    0.10
   3   7  18   -0.02    0.09
   3  -7 -18    0.08    0.08
  -3   7 -18   -0.12    0.07
   0   8 -18    1.26    0.14
   0  -8 -18    1.62    0.16
   0   8  18    1.21    0.15
   0  -8  18    1.12    0.13
   2   8 -18    1.56    0.15
  -2   8  18    1.63    0.16
  -2  -8 -18    1.26    0.15
   2  -8  18    1.02    0.13
  -2  -8  18    1.28    0.15
   2  -8 -18    1.45    0.16
  -2   8 -18    1.18    0.14
   2   8  18    1.35    0.16
  -1   9  18    0.02    0.09
  -1  -9 -18    0.12    0.09
   1  -9  18    0.13    0.09
   1  -9 -18    0.34    0.11
   1   9  18    0.25    0.11
  -1   0  19   31.95    0.73
  -1   0 -19   31.14    0.71
  -1   0  19   31.39    0.71
   1   0 -19   31.31    0.74
  -1   0 -19   31.21    0.74
   1   0  19   31.30    0.74
  -3   0  19   29.59    0.72
  -3   0 -19   29.79    0.72
   3   0 -19   28.89    0.71
   3   0  19   28.60    0.72
  -3   0 -19   30.03    0.68
   5   0  19    6.46    0.29
  -5   0  19    6.86    0.31
  -5   0 -19    6.47    0.30
   5   0 -19    6.85    0.29
   0   1 -19   16.16    0.45
   0  -1  19   16.59    0.44
   0  -1 -19   17.22    0.44
   0  -1 -19   16.32    0.45
   0   1  19   15.93    0.44
   0  -1  19   16.42    0.43
   2  -1  19   18.11    0.50
  -2  -1 -19   17.95    0.49
   2   1 -19   18.37    0.50
  -2   1  19   17.90    0.49
  -2  -1 -19   18.57    0.46
  -2   1  19   18.34    0.46
  -2   1 -19   17.92    0.50
   2  -1 -19   17.99    0.49
  -2  -1  19   18.66    0.49
   2   1  19   18.32    0.50
  -2   1 -19   18.38    0.45
  -2  -1  19   18.30    0.45
  -4  -1 -19    7.00    0.29
  -4   1  19    7.04    0.29
   4  -1  19    6.79    0.29
   4   1 -19    6.65    0.28
   4  -1 -19    7.15    0.28
  -4  -1  19    7.40    0.30
   4   1  19    7.11    0.29
  -4   1 -19    7.52    0.30
  -6  -1 -19    1.58    0.18
  -6   1  19    1.62    0.19
   6  -1  19    1.44    0.17
   6   1  19    1.89    0.19
  -6   1 -19    1.74    0.19
  -6  -1  19    1.56    0.19
   1  -2  19   22.78    0.54
  -1   2  19   22.78    0.56
  -1  -2 -19   22.91    0.56
   1   2 -19   22.46    0.58
   1  -2  19   23.50    0.58
  -1  -2 -19   23.53    0.58
  -1   2 -19   22.70    0.59
  -1  -2  19   23.26    0.57
   1   2  19   22.55    0.58
   1  -2 -19   22.99    0.57
   1  -2 -19   22.52    0.57
  -1  -2  19   23.33    0.55
   3   2 -19   17.08    0.49
  -3   2  19   17.72    0.50
  -3  -2 -19   17.59    0.46
  -3  -2 -19   17.53    0.49
  -3   2  19   17.38    0.44
   3  -2  19   17.27    0.50
   3  -2 -19   17.94    0.48
  -3   2 -19   18.00    0.51
  -3  -2  19   17.96    0.50
   3   2  19   18.26    0.50
   5   2 -19    2.83    0.20
   5  -2  19    2.95    0.22
  -5   2  19    2.70    0.20
  -5  -2 -19    2.84    0.20
  -5   2 -19    3.13    0.22
  -5  -2  19    2.91    0.22
   5   2  19    2.96    0.21
   0  -3  19   16.41    0.43
   0  -3  19   16.08    0.44
   0  -3 -19   16.55    0.45
   0   3  19   15.88    0.44
   0  -3 -19   16.16    0.44
   0   3 -19   16.68    0.46
  -2  -3 -19   13.52    0.39
  -2   3  19   13.41    0.37
   2   3 -19   13.33    0.41
   2  -3  19   13.72    0.41
  -2  -3 -19   13.10    0.38
  -2  -3  19   12.93    0.40
  -2  -3  19   13.26    0.36
   2  -3 -19   13.41    0.40
   2   3  19   13.27    0.41
  -2   3 -19   13.32    0.41
   2  -3 -19   13.07    0.38
   4   3 -19    4.44    0.23
  -4   3  19    4.33    0.23
   4  -3  19    4.59    0.24
  -4  -3 -19    4.65    0.20
  -4  -3 -19    4.84    0.23
   4  -3 -19    4.50    0.22
  -4   3 -19    5.13    0.27
   4   3  19    4.46    0.24
  -4  -3  19    4.17    0.25
  -1  -4 -19   17.33    0.47
  -1  -4 -19   16.66    0.44
   1  -4  19   16.35    0.45
   1  -4  19   16.83    0.46
   1   4 -19   17.42    0.48
  -1   4  19   16.57    0.45
  -1   4 -19   16.71    0.48
   1  -4 -19   17.33    0.48
  -1  -4  19   16.73    0.44
  -1  -4  19   16.54    0.46
   1   4  19   17.55    0.47
   1  -4 -19   16.96    0.45
  -3  -4 -19   13.36    0.39
  -3   4  19   13.52    0.38
   3  -4  19   13.75    0.42
  -3  -4 -19   13.31    0.39
   3   4 -19   13.17    0.41
   3  -4 -19   13.50    0.42
   3   4  19   13.01    0.42
  -3   4 -19   12.59    0.42
  -3  -4  19   12.92    0.42
   3  -4 -19   13.35    0.39
   5   4 -19    3.14    0.22
   5  -4  19    3.19    0.21
  -5   4  19    2.94    0.21
  -5   4 -19    3.58    0.25
   5   4  19    3.66    0.24
  -5  -4  19    2.85    0.24
   0  -5  19    8.76    0.29
   0   5 -19    8.44    0.31
   0  -5 -19    8.26    0.30
   0  -5  19    8.91    0.29
   0   5  19    9.20    0.31
   0  -5 -19    8.81    0.28
  -2  -5 -19    8.17    0.30
   2  -5  19    8.01    0.30
   2   5 -19    7.96    0.30
  -2   5  19    8.12    0.28
   2  -5 -19    8.14    0.28
   2  -5 -19    8.30    0.31
  -2  -5  19    8.15    0.31
  -2   5 -19    8.20    0.31
   2   5  19    7.98    0.31
   4   5 -19    4.45    0.23
   4  -5  19    4.14    0.24
  -4   5  19    4.37    0.23
  -4  -5 -19    3.75    0.21
  -4  -5  19    3.77    0.24
  -4   5 -19    4.49    0.26
   4   5  19    4.40    0.25
   1   6 -19    5.82    0.25
  -1  -6 -19    6.06    0.26
   1  -6  19    5.51    0.24
  -1   6  19    5.66    0.24
  -1  -6  19    5.90    0.25
   1  -6 -19    5.70    0.26
   1   6  19    5.73    0.26
  -1   6 -19    5.89    0.26
  -1  -6  19    5.88    0.23
  -3  -6 -19    5.45    0.25
   3  -6  19    5.15    0.25
   3   6 -19    5.53    0.25
  -3   6  19    5.93    0.24
  -3   6 -19    5.76    0.27
  -3  -6  19    4.75    0.26
   3   6  19    5.28    0.26
   3  -6 -19    5.23    0.26
   0   7 -19    3.90    0.21
   0  -7 -19    3.45    0.21
   0  -7  19    3.31    0.18
   0   7  19    3.59    0.21
  -2  -7 -19    3.43    0.21
   2  -7  19    3.27    0.20
   2   7 -19    2.86    0.19
  -2   7  19    3.13    0.19
  -2   7 -19    3.31    0.20
   2   7  19    3.28    0.23
  -2  -7  19    2.95    0.21
   2  -7 -19    3.28    0.21
  -1   8  19    2.15    0.19
  -1  -8 -19    2.77    0.20
   1  -8  19    2.45    0.18
   1   8 -19    2.82    0.18
   1  -8 -19    2.49    0.19
  -1   8 -19    2.78    0.19
   1   8  19    2.32    0.20
   0   0  20    7.29    0.27
   0   0 -20    7.43    0.26
   0   0 -20    7.05    0.27
  -2   0 -20    1.48    0.12
  -2   0 -20    1.58    0.15
  -2   0  20    1.64    0.14
   2   0  20    1.69    0.16
   2   0 -20    1.65    0.15
  -2   0  20    1.39    0.14
   4   0 -20    0.11    0.08
  -4   0  20    0.04    0.09
  -4   0 -20    0.11    0.09
   4   0  20    0.06    0.10
   1  -1  20    1.90    0.16
  -1  -1 -20    1.69    0.13
   1  -1  20    1.90    0.13
  -1   1  20    1.57    0.14
   1   1 -20    1.84    0.16
  -1  -1 -20    1.64    0.14
  -1  -1  20    1.89    0.15
   1  -1 -20    2.16    0.15
   1  -1 -20    2.04    0.15
  -1   1 -20    2.29    0.16
   1   1  20    1.75    0.16
  -1  -1  20    1.68    0.14
  -3  -1 -20    0.47    0.08
   3   1 -20    0.50    0.10
  -3   1  20    0.49    0.10
   3  -1  20    0.50    0.12
  -3  -1 -20    0.54    0.10
   3   1  20    0.41    0.11
  -3   1 -20    0.47    0.11
   3  -1 -20    0.39    0.09
  -3  -1  20    0.49    0.11
   5   1 -20    1.71    0.18
  -5  -1 -20    2.08    0.19
   5  -1  20    1.87    0.19
  -5   1  20    1.50    0.18
  -5  -1  20    1.57    0.18
   5   1  20    1.54    0.18
   5  -1 -20    1.89    0.18
  -5   1 -20    1.63    0.18
   0  -2  20   12.55    0.36
   0   2 -20   12.04    0.39
   0  -2  20   12.80    0.37
   0   2  20   12.12    0.37
   0  -2 -20   12.27    0.37
   0  -2 -20   12.51    0.37
  -2  -2 -20    0.11    0.06
  -2   2  20    0.06    0.08
   2  -2  20    0.05    0.09
   2   2 -20   -0.02    0.06
  -2  -2 -20    0.05    0.08
   2   2  20   -0.01    0.09
  -2  -2  20    0.18    0.07
  -2   2 -20    0.15    0.08
   2  -2 -20    0.06    0.07
  -2  -2  20   -0.04    0.07
   4   2 -20    1.69    0.16
  -4  -2 -20    1.87    0.17
   4  -2  20    1.58    0.17
  -4   2  20    1.68    0.17
  -4  -2  20    2.30    0.20
   4   2  20    1.79    0.19
  -4   2 -20    1.77    0.18
   4  -2 -20    1.90    0.17
   1  -3  20    1.23    0.14
   1   3 -20    0.91    0.12
   1  -3  20    1.10    0.11
  -1  -3 -20    1.20    0.12
  -1   3  20    0.91    0.12
  -1  -3 -20    0.98    0.11
  -1   3 -20    1.05    0.13
  -1  -3  20    1.16    0.12
   1   3  20    1.19    0.14
   1  -3 -20    1.05    0.12
  -1  -3  20    1.13    0.13
   1  -3 -20    1.08    0.13
  -3   3  20    0.39    0.10
   3   3 -20    0.43    0.10
  -3  -3 -20    0.47    0.10
   3  -3  20    0.45    0.11
  -3   3  20    0.57    0.11
  -3  -3 -20    0.27    0.08
  -3  -3  20    0.45    0.11
   3   3  20    0.41    0.12
   3  -3 -20    0.54    0.10
  -3   3 -20    0.87    0.13
   5   3 -20    1.48    0.17
  -5  -3 -20    1.72    0.17
  -5   3  20    1.84    0.19
  -5  -3  20    1.77    0.20
  -5   3 -20    1.61    0.19
   5   3  20    1.76    0.19
   0   4 -20    3.72    0.20
   0  -4  20    3.40    0.18
   0   4  20    3.64    0.20
   0  -4 -20    3.30    0.17
   0  -4 -20    3.72    0.20
   0  -4  20    3.59    0.18
  -2  -4 -20    1.53    0.13
   2  -4  20    1.29    0.14
  -2   4  20    1.62    0.14
   2   4 -20    1.56    0.15
  -2  -4 -20    1.41    0.14
   2  -4 -20    1.47    0.15
  -2  -4  20    1.60    0.16
  -2   4 -20    1.67    0.16
   2   4  20    1.57    0.16
   2  -4 -20    1.51    0.14
  -4  -4 -20    0.18    0.08
   4  -4  20    0.01    0.09
   4   4 -20    0.09    0.08
  -4  -4 -20    0.21    0.09
  -4   4  20   -0.01    0.09
   4  -4 -20    0.04    0.07
  -4  -4  20    0.02    0.11
  -4   4 -20    0.07    0.12
   4   4  20    0.10    0.12
  -1  -5 -20    2.48    0.18
  -1   5  20    2.25    0.17
   1   5 -20    2.22    0.17
  -1  -5 -20    2.44    0.14
   1  -5  20    2.24    0.17
  -1   5 -20    2.35    0.17
  -1  -5  20    2.33    0.17
   1   5  20    2.34    0.18
   1  -5 -20    2.35    0.17
  -1  -5  20    2.27    0.15
   1  -5 -20    2.32    0.14
   3   5 -20    0.01    0.07
   3  -5  20    0.04    0.09
  -3  -5 -20   -0.03    0.07
  -3   5  20   -0.05    0.08
  -3  -5  20    0.07    0.11
   3   5  20   -0.03    0.10
   3  -5 -20   -0.02    0.06
   3  -5 -20    0.05    0.08
  -3   5 -20    0.05    0.10
   0   6 -20    3.89    0.22
   0   6  20    3.64    0.21
   0  -6 -20    3.96    0.22
   0  -6  20    4.08    0.20
   2  -6  20    0.05    0.09
  -2   6  20    0.08    0.08
  -2  -6 -20    0.00    0.08
   2   6 -20   -0.04    0.06
  -2   6 -20   -0.05    0.08
   2   6  20   -0.05    0.09
  -2  -6  20    0.05    0.10
   2  -6 -20    0.01    0.08
  -1   7  20    0.30    0.10
  -1  -7 -20    0.41    0.11
   1  -7  20    0.52    0.10
   1   7 -20    0.42    0.10
  -1   7 -20    0.67    0.12
  -1  -7  20    0.64    0.12
   1  -7 -20    0.40    0.11
   1   7  20    0.51    0.12
   3  -7  20    0.07    0.08
   3   7 -20    0.03    0.08
  -3   7  20   -0.02    0.09
  -3  -7 -20    0.00    0.08
  -3   7 -20    0.03    0.09
   3   7  20    0.06    0.12
  -3  -7  20   -0.11    0.10
   3  -7 -20    0.12    0.10
   0   8  20    0.63    0.13
   0   8 -20    0.41    0.10
   0  -8  20    0.36    0.10
   0  -8 -20    0.35    0.11
  -1   0  21    4.00    0.20
  -1   0 -21    3.68    0.18
  -1   0 -21    3.85    0.20
  -1   0  21    4.10    0.19
   1   0  21    3.67    0.21
   1   0 -21    3.96    0.20
  -3   0  21    0.05    0.09
   3   0 -21   -0.07    0.06
  -3   0 -21   -0.03    0.08
   3   0  21    0.03    0.10
   5   0 -21    4.92    0.26
  -5   0  21    4.54    0.27
   5   0  21    4.53    0.26
  -5   0 -21    3.85    0.25
   0  -1 -21    3.20    0.19
   0  -1  21    3.56    0.18
   0  -1  21    2.93    0.18
   0  -1 -21    3.45    0.19
   0   1  21    3.44    0.19
   0   1 -21    3.38    0.19
   2  -1  21    0.33    0.11
  -2  -1 -21    0.12    0.07
  -2  -1 -21    0.16    0.08
   2   1 -21    0.06    0.07
  -2   1  21   -0.10    0.06
  -2   1  21    0.17    0.08
   2  -1  21    0.23    0.06
  -2  -1  21    0.11    0.08
  -2  -1  21    0.23    0.09
  -2   1 -21    0.16    0.08
   2  -1 -21    0.06    0.07
   2   1  21    0.19    0.11
  -4  -1 -21    1.32    0.15
   4   1 -21    1.11    0.15
   4  -1  21    1.65    0.18
  -4   1  21    1.49    0.17
   4   1  21    1.44    0.17
  -4   1 -21    1.36    0.16
  -4  -1  21    1.29    0.16
   4  -1 -21    1.49    0.16
  -1  -2 -21    0.31    0.08
  -1   2  21    0.34    0.09
  -1  -2 -21    0.37    0.08
   1   2 -21    0.31    0.09
   1  -2  21    0.34    0.08
   1  -2  21    0.38    0.10
  -1   2 -21    0.36    0.10
  -1  -2  21    0.21    0.09
  -1  -2  21    0.39    0.09
   1   2  21    0.30    0.10
   1  -2 -21    0.43    0.09
   1  -2 -21    0.33    0.09
  -3  -2 -21    0.17    0.08
  -3  -2 -21    0.28    0.08
   3   2 -21    0.11    0.08
  -3   2  21    0.19    0.09
   3  -2  21    0.15    0.10
  -3   2 -21    0.27    0.10
  -3  -2  21    0.16    0.10
   3  -2 -21    0.27    0.09
   3   2  21    0.08    0.10
  -5   2  21    3.44    0.24
  -5  -2 -21    3.09    0.22
   5   2 -21    3.19    0.22
   5  -2  21    3.44    0.24
  -5  -2  21    3.33    0.24
  -5   2 -21    3.44    0.25
   5   2  21    3.38    0.23
   0  -3  21    2.46    0.17
   0   3  21    2.16    0.17
   0  -3  21    2.43    0.16
   0  -3 -21    2.15    0.17
   0   3 -21    2.11    0.17
   0  -3 -21    2.44    0.16
  -2  -3 -21   -0.04    0.07
   2   3 -21    0.07    0.08
   2  -3  21   -0.01    0.09
  -2  -3 -21   -0.05    0.06
  -2   3  21   -0.09    0.08
  -2  -3  21    0.06    0.08
   2   3  21    0.06    0.10
  -2   3 -21    0.01    0.08
   2  -3 -21    0.25    0.08
   2  -3 -21    0.01    0.08
   4   3 -21    1.80    0.18
  -4  -3 -21    1.87    0.17
  -4   3  21    1.67    0.18
   4  -3  21    2.06    0.19
   4  -3 -21    2.03    0.18
  -4   3 -21    2.05    0.20
  -4  -3  21    2.14    0.20
   4   3  21    2.03    0.20
  -1   4  21    2.93    0.18
   1  -4  21    2.66    0.18
   1   4 -21    2.27    0.19
  -1  -4 -21    2.76    0.16
  -1  -4 -21    2.69    0.17
   1   4  21    2.65    0.19
  -1  -4  21    2.64    0.18
   1  -4 -21    2.48    0.17
   1  -4 -21    2.53    0.16
  -1  -4  21    2.71    0.16
  -1   4 -21    2.70    0.19
  -3  -4 -21    0.27    0.09
   3  -4  21    0.51    0.12
  -3   4  21    0.09    0.09
  -3  -4 -21    0.34    0.09
   3   4 -21    0.41    0.11
  -3  -4  21    0.27    0.11
   3   4  21    0.29    0.13
  -3   4 -21    0.49    0.12
   3  -4 -21    0.50    0.10
   0  -5 -21    0.62    0.09
   0  -5  21    0.64    0.11
   0   5  21    0.58    0.12
   0   5 -21    0.58    0.11
   0  -5 -21    0.45    0.10
   0  -5  21    0.65    0.11
  -2   5  21    0.18    0.10
  -2  -5 -21    0.04    0.08
   2  -5  21    0.10    0.09
   2   5 -21    0.07    0.08
  -2  -5  21    0.11    0.10
   2  -5 -21    0.02    0.08
   2  -5 -21    0.13    0.07
  -2   5 -21    0.14    0.09
   2   5  21    0.19    0.11
   4   5 -21    0.06    0.09
   4   5  21    0.25    0.13
  -4   5 -21    0.21    0.11
   1   6 -21    0.55    0.11
   1  -6  21    0.71    0.12
  -1  -6 -21    0.62    0.12
  -1   6  21    0.71    0.13
  -1   6 -21    0.63    0.12
   1   6  21    0.78    0.14
  -1  -6  21    0.61    0.12
   1  -6 -21    0.49    0.12
  -3  -6 -21    0.05    0.08
   3   6 -21    0.17    0.09
  -3   6  21    0.02    0.09
   3  -6  21   -0.06    0.08
  -3  -6  21   -0.12    0.10
   3  -6 -21   -0.03    0.09
  -3   6 -21    0.06    0.10
   3   6  21   -0.01    0.11
   0  -7  21    1.16    0.13
   0   7  21    0.92    0.14
   0  -7 -21    1.23    0.15
   0   7 -21    0.87    0.13
  -2  -7 -21    0.07    0.09
   2   7 -21    0.25    0.09
   2  -7  21    0.24    0.09
  -2   7  21    0.04    0.09
   2  -7 -21    0.06    0.10
   2   7  21    0.08    0.11
  -2  -7  21    0.31    0.12
  -2   7 -21    0.10    0.09
   0   0  22   18.39    0.49
   0   0 -22   18.45    0.51
   0   0  22   18.13    0.50
   2   0 -22   22.09    0.59
  -2   0 -22   22.01    0.59
   2   0  22   21.11    0.58
  -2   0  22   21.68    0.54
  -2   0 -22   21.37    0.55
  -2   0  22   22.13    0.59
  -4   0  22    4.71    0.27
  -4   0 -22    4.98    0.27
   4   0  22    4.82    0.28
   4   0 -22    4.69    0.25
   1   1 -22    8.44    0.32
   1  -1  22    8.80    0.29
  -1   1  22    8.52    0.30
  -1  -1 -22    8.46    0.31
   1  -1  22    8.59    0.32
  -1  -1 -22    8.54    0.29
  -1   1  22    8.91    0.31
   1  -1 -22    8.34    0.31
  -1   1 -22    8.62    0.32
  -1  -1  22    8.73    0.30
   1   1  22    9.24    0.32
  -1  -1  22    8.16    0.31
   3   1 -22    6.93    0.30
   3  -1  22    7.06    0.32
  -3  -1 -22    7.28    0.29
  -3   1  22    7.40    0.30
   3  -1 -22    7.02    0.29
   3   1  22    7.08    0.32
  -3  -1  22    7.53    0.31
  -3   1 -22    7.04    0.31
   0  -2  22    7.02    0.26
   0  -2 -22    7.13    0.28
   0  -2 -22    7.32    0.28
   0   2  22    7.10    0.29
   0   2 -22    6.85    0.28
   0  -2  22    6.93    0.28
   2  -2  22   10.48    0.37
  -2   2  22   10.86    0.36
   2   2 -22    9.93    0.36
  -2   2  22   10.47    0.33
  -2  -2 -22    9.96    0.33
  -2  -2 -22   10.62    0.35
  -2   2 -22   10.19    0.37
   2  -2 -22   10.82    0.35
  -2  -2  22    9.91    0.35
   2   2  22    9.62    0.36
  -4  -2 -22    2.48    0.19
  -4   2  22    2.38    0.21
   4  -2  22    2.62    0.22
   4   2 -22    2.26    0.20
  -4   2 -22    2.39    0.21
   4   2  22    2.57    0.22
  -4  -2  22    2.31    0.21
   4  -2 -22    2.10    0.19
  -1  -3 -22    3.52    0.20
  -1  -3 -22    3.67    0.20
   1   3 -22    3.31    0.20
   1  -3  22    4.09    0.22
  -1   3  22    3.76    0.20
  -1   3 -22    3.92    0.22
   1  -3 -22    3.74    0.21
   1  -3 -22    3.78    0.20
  -1  -3  22    3.34    0.20
  -1  -3  22    3.51    0.18
   1   3  22    3.65    0.22
  -3  -3 -22    4.01    0.22
  -3   3  22    3.42    0.21
   3  -3  22    3.82    0.23
  -3  -3 -22    3.69    0.20
   3   3 -22    3.46    0.21
   3   3  22    3.39    0.25
  -3   3 -22    3.44    0.23
   3  -3 -22    3.90    0.21
  -3  -3  22    3.48    0.22
   0   4 -22    8.34    0.32
   0  -4 -22    8.18    0.29
   0  -4  22    7.86    0.29
   0  -4  22    8.05    0.29
   0   4  22    8.31    0.31
   0  -4 -22    7.97    0.31
   2   4 -22    9.39    0.34
  -2   4  22    8.73    0.32
   2  -4  22    9.34    0.34
  -2  -4 -22    8.55    0.32
  -2  -4 -22    8.73    0.31
   2  -4 -22    8.83    0.32
   2   4  22    8.99    0.35
   2  -4 -22    8.78    0.34
  -2   4 -22    9.44    0.35
  -2  -4  22    9.02    0.34
  -1   5  22    6.50    0.27
   1  -5  22    6.15    0.27
  -1  -5 -22    6.10    0.27
   1   5 -22    6.70    0.29
  -1  -5  22    5.98    0.27
  -1  -5  22    6.56    0.26
   1  -5 -22    6.18    0.29
   1  -5 -22    6.52    0.25
  -1   5 -22    6.30    0.28
   1   5  22    6.71    0.29
   3  -5  22    4.09    0.25
  -3   5  22    3.90    0.22
   3   5 -22    4.15    0.23
  -3  -5 -22    4.73    0.23
  -3   5 -22    4.70    0.27
   3   5  22    4.15    0.26
   3  -5 -22    4.20    0.25
  -3  -5  22    4.04    0.24
   3  -5 -22    4.30    0.22
   0  -6  22    3.16    0.19
   0   6 -22    3.13    0.20
   0   6  22    3.21    0.23
   0  -6 -22    3.28    0.22
   2   6 -22    3.92    0.22
  -2  -6 -22    3.61    0.23
   2  -6  22    3.70    0.23
  -2   6  22    3.74    0.22
   2  -6 -22    3.56    0.23
  -2   6 -22    3.87    0.24
  -2  -6  22    3.69    0.24
   2   6  22    3.43    0.25
  -1   0  23    0.80    0.12
   1   0  23    0.94    0.14
  -1   0 -23    0.71    0.12
   1   0 -23    0.68    0.11
  -1   0  23    0.54    0.12
   3   0 -23    0.01    0.08
   3   0  23    0.20    0.12
  -3   0 -23    0.07    0.09
  -3   0  23   -0.03    0.09
   0  -1 -23    4.28    0.22
   0   1  23    4.21    0.22
   0  -1  23    4.44    0.23
   0  -1 -23    4.36    0.22
   0  -1  23    4.57    0.22
   0   1 -23    4.31    0.23
  -2  -1 -23    0.37    0.09
  -2   1  23    0.32    0.10
  -2  -1 -23    0.20    0.09
   2  -1  23    0.54    0.13
  -2   1  23    0.36    0.11
   2   1 -23    0.39    0.10
  -2   1 -23    0.45    0.11
  -2  -1  23    0.28    0.10
   2   1  23    0.47    0.13
   2  -1 -23    0.36    0.10
  -4  -1 -23    2.35    0.21
  -4   1  23    2.13    0.20
   4  -1  23    1.91    0.20
   4   1 -23    1.64    0.18
  -4  -1  23    2.15    0.21
   4  -1 -23    1.85    0.18
   4   1  23    2.22    0.21
  -4   1 -23    2.02    0.20
  -1  -2 -23    0.92    0.13
   1  -2  23    0.82    0.14
   1  -2  23    0.88    0.11
   1   2 -23    1.28    0.14
  -1   2  23    0.88    0.13
  -1  -2 -23    0.74    0.11
  -1   2 -23    0.83    0.13
  -1  -2  23    0.82    0.12
   1  -2 -23    0.80    0.13
  -1  -2  23    0.71    0.12
   1  -2 -23    0.85    0.12
   1   2  23    0.80    0.14
   3   2 -23    0.06    0.08
  -3  -2 -23   -0.07    0.07
  -3  -2 -23   -0.10    0.06
  -3   2  23   -0.07    0.08
   3  -2  23   -0.08    0.09
   3  -2 -23   -0.02    0.08
  -3  -2  23    0.01    0.10
   3   2  23    0.00    0.11
  -3   2 -23    0.05    0.10
   0  -3  23    8.14    0.30
   0  -3  23    8.13    0.30
   0   3 -23    8.38    0.33
   0  -3 -23    8.26    0.32
   0   3  23    8.23    0.32
   0  -3 -23    8.16    0.30
  -2  -3 -23    0.05    0.07
  -2   3  23   -0.06    0.09
   2   3 -23    0.01    0.08
   2  -3  23    0.07    0.11
  -2  -3 -23    0.03    0.08
   2   3  23   -0.10    0.11
   2  -3 -23    0.03    0.06
  -2   3 -23    0.03    0.09
  -2  -3  23    0.12    0.10
   1   4 -23    0.72    0.12
  -1   4  23    0.41    0.12
  -1  -4 -23    0.76    0.12
  -1  -4 -23    0.59    0.10
   1  -4  23    0.57    0.11
   1  -4 -23    0.59    0.12
   1   4  23    0.58    0.14
  -1   4 -23    0.76    0.13
  -1  -4  23    0.90    0.12
   1  -4 -23    0.75    0.11
  -1  -4  23    0.79    0.12
  -3  -4 -23    0.16    0.08
   3  -4  23    0.28    0.11
   3   4 -23    0.12    0.09
  -3  -4 -23   -0.03    0.07
  -3   4  23    0.22    0.09
   3  -4 -23    0.12    0.08
  -3  -4  23   -0.04    0.10
   3   4  23    0.15    0.13
  -3   4 -23    0.11    0.10
   0  -5  23    1.19    0.14
   0   5  23    1.32    0.16
   0  -5 -23    1.37    0.16
   0   5 -23    1.57    0.16
   2   5 -23    0.16    0.09
  -2  -5 -23    0.22    0.09
   2  -5  23    0.39    0.11
  -2   5  23    0.17    0.10
   2   5  23    0.32    0.13
  -2  -5  23    0.30    0.12
   2  -5 -23    0.21    0.10
  -2   5 -23    0.22    0.11
   2  -5 -23    0.12    0.07
  -1   6  23    0.04    0.10
   1  -6  23   -0.01    0.08
   1   6 -23    0.08    0.08
  -1   6 -23    0.07    0.09
   1   6  23    0.07    0.11
   0   0 -24    0.96    0.13
   0   0  24    0.93    0.14
   0   0  24    1.02    0.13
  -2   0 -24    0.18    0.10
   2   0  24    0.23    0.12
  -2   0  24    0.06    0.10
   2   0 -24    0.18    0.09
  -1   1  24    2.80    0.19
  -1  -1 -24    2.68    0.19
   1   1 -24    2.59    0.19
   1  -1  24    3.08    0.18
  -1   1  24    3.12    0.20
  -1  -1 -24    2.74    0.18
   1  -1  24    2.87    0.21
  -1  -1  24    2.84    0.19
  -1  -1  24    3.11    0.20
   1  -1 -24    3.11    0.20
   1   1  24    2.53    0.21
  -1   1 -24    3.04    0.20
   3  -1  24    2.25    0.21
  -3   1  24    2.27    0.20
  -3  -1 -24    1.79    0.18
   3   1 -24    1.87    0.18
  -3  -1  24    1.94    0.19
  -3   1 -24    1.84    0.19
   3  -1 -24    1.83    0.18
   3   1  24    1.69    0.19
   0  -2 -24    7.14    0.29
   0  -2  24    6.71    0.28
   0   2  24    6.60    0.29
   0   2 -24    6.89    0.30
   0  -2 -24    6.67    0.28
   0  -2  24    6.45    0.27
  -2  -2 -24    2.77    0.18
  -2  -2 -24    3.03    0.20
  -2   2  24    3.35    0.21
   2  -2  24    3.49    0.23
   2   2 -24    3.33    0.21
  -2   2  24    3.28    0.20
   2  -2 -24    2.92    0.19
  -2   2 -24    3.43    0.22
   2   2  24    3.50    0.24
  -2  -2  24    3.00    0.21
   1  -3  24    3.07    0.21
   1   3 -24    3.01    0.20
  -1   3  24    2.93    0.21
  -1  -3 -24    3.22    0.19
  -1  -3 -24    3.26    0.19
   1  -3 -24    2.99    0.22
   1   3  24    3.23    0.23
  -1  -3  24    2.56    0.19
  -1  -3  24    3.31    0.19
   1  -3 -24    2.79    0.18
  -1   3 -24    2.83    0.21
   0  -4 -24    1.08    0.13
   0  -4  24    1.08    0.14
   0   4  24    1.26    0.17
   0   4 -24    1.26    0.16
   0  -4 -24    1.14    0.15
  -2  -4 -24    0.64    0.11
  -2   4  24    0.59    0.12
   2  -4  24    0.84    0.13
  -2  -4 -24    0.47    0.11
   2   4 -24    0.59    0.12
   2  -4 -24    0.53    0.13
  -2   4 -24    0.69    0.14
  -2  -4  24    0.57    0.13
   2   4  24    0.72    0.15
   2  -4 -24    0.53    0.11
   1   5 -24    1.05    0.15
  -1   5  24    0.98    0.15
   1  -5  24    1.09    0.14
  -1   5 -24    1.26    0.16
   1   5  24    0.70    0.15
   1   0  25    3.35    0.19
  -1   0 -25    3.45    0.21
  -1   0  25    3.12    0.21
   1   0 -25    3.67    0.22
  -1   0  25    3.27    0.21
   1   0  25    3.24    0.22
   0   1  25    1.78    0.18
   0  -1  25    1.63    0.16
   0  -1 -25    1.71    0.17
   0   1  25    1.95    0.17
   0  -1  25    1.75    0.18
   0   1 -25    1.83    0.18
  -2   1  25    1.08    0.15
   2  -1  25    1.12    0.16
   2   1 -25    0.99    0.14
  -2  -1 -25    0.92    0.14
  -2  -1 -25    1.01    0.13
  -2   1 -25    0.80    0.14
  -2  -1  25    0.87    0.15
   2   1  25    0.93    0.16
   2  -1 -25    0.92    0.13
   1  -2  25    2.72    0.21
  -1   2  25    2.63    0.21
  -1  -2 -25    2.49    0.18
   1   2 -25    2.70    0.20
  -1   2  25    2.89    0.20
  -1  -2 -25    2.78    0.19
  -1  -2  25    2.83    0.20
   1   2  25    2.78    0.22
  -1   2 -25    2.90    0.21
   1  -2 -25    2.62    0.19
  -1  -2  25    2.75    0.19
   0  -3  25    1.71    0.17
   0   3 -25    1.72    0.18
   0  -3 -25    1.65    0.16
   0  -3 -25    1.44    0.16
   0   3  25    1.55    0.18
   0  -3  25    1.55    0.16
   0   0  26    0.13    0.11
   0   0  26   -0.02    0.07
   0   0 -26    0.00    0.08
  -1   1  26    0.60    0.13
  -1   1  26    0.44    0.11
  -1  -1 -26    0.72    0.12
   1  -1  26    0.60    0.13
   1   1 -26    0.54    0.12
   1   1  26    0.60    0.15
   1  -1 -26    0.37    0.11
  -1   1 -26    0.76    0.13
  -1  -1  26    0.50    0.12
  -1  -1  26    0.68    0.13
   0   0   0    0.00    0.00
;
_shelx_hkl_checksum              71297
_publcif_info_exptl_table_max_cols 5
_publcif_info_exptl_table_use_headnotes n
_publcif_funding_html
;
;
loop_
_space_group_symop_operation_xyz
'x, y, z'
'-x, -y, z'
'-x, y, -z'
'x, -y, -z'
'x+1/2, y+1/2, z+1/2'
'-x+1/2, -y+1/2, z+1/2'
'-x+1/2, y+1/2, -z+1/2'
'x+1/2, -y+1/2, -z+1/2'
loop_
_atom_site_label
_atom_site_type_symbol
_atom_site_fract_x
_atom_site_fract_y
_atom_site_fract_z
_atom_site_U_iso_or_equiv
_atom_site_adp_type
_atom_site_occupancy
_atom_site_site_symmetry_order
_atom_site_calc_flag
_atom_site_refinement_flags_posn
_atom_site_refinement_flags_adp
_atom_site_refinement_flags_occupancy
V1 V 0.0087(2) 0.01860(7) 0.31481(3) 0.02969(15) Uani 0.5 1 d . . P
F1 F -0.0004(9) 0.79650(14) 0.32561(10) 0.0597(5) Uani 1 1 d . . .
F2 F 0.2090(2) 0.0009(7) 0.25701(8) 0.0561(4) Uani 1 1 d . . .
F3 F 0.2106(2) 0.9989(5) 0.39686(7) 0.0500(4) Uani 1 1 d . . .
V2 V 0.02741(16) 0.02114(9) 0.00513(9) 0.0243(3) Uani 0.25 1 d . . P
F4 F 0.0000 0.0000 0.09907(19) 0.0490(12) Uani 0.5 2 d S T P
F5 F 0.7038(5) 0.0000 0.0000 0.0398(8) Uani 0.5 2 d S T P
F6 F 0.0000 0.2051(3) 0.0000 0.0377(8) Uani 0.5 2 d S T P
F7 F 0.1872(13) 0.1413(10) -0.0322(7) 0.096(4) Uani 0.25 1 d . . P
F8 F 0.7995(11) 0.1405(7) -0.0188(5) 0.054(3) Uani 0.25 1 d . . P
F9 F 0.099(2) 0.020(2) 0.0898(5) 0.124(4) Uani 0.25 1 d . . P
N1 N 0.0015(10) 0.2701(2) 0.17012(11) 0.0394(4) Uani 1 1 d . . .
N2 N 0.0000 0.5000 0.36480(16) 0.0436(6) Uani 1 2 d S T P
N3 N 0.5000 0.0720(5) 0.5000 0.0400(12) Uani 0.5 2 d S T P
N4 N 0.0603(5) 0.2010(3) 0.5003(6) 0.0357(8) Uani 0.5 1 d . . P
loop_
_atom_site_aniso_label
_atom_site_aniso_U_11
_atom_site_aniso_U_22
_atom_site_aniso_U_33
_atom_site_aniso_U_23
_atom_site_aniso_U_13
_atom_site_aniso_U_12
V1 0.0392(3) 0.0251(3) 0.0248(2) 0.0052(2) 0.0108(4) -0.0083(7)
F1 0.0860(12) 0.0220(5) 0.0710(9) 0.0041(6) 0.013(2) -0.0001(15)
F2 0.0425(7) 0.0836(10) 0.0421(7) 0.005(2) 0.0165(6) 0.007(2)
F3 0.0419(6) 0.0727(9) 0.0355(6) 0.0048(19) -0.0196(5) -0.0043(19)
V2 0.0221(6) 0.0208(7) 0.0301(5) -0.0073(7) -0.0075(8) -0.0041(4)
F4 0.097(3) 0.0353(16) 0.0144(12) 0.000 0.000 -0.008(5)
F5 0.0217(12) 0.0381(15) 0.060(2) 0.010(4) 0.000 0.000
F6 0.0330(14) 0.0215(12) 0.059(2) 0.000 0.005(5) 0.000
F7 0.039(4) 0.072(4) 0.177(10) 0.070(5) 0.040(4) -0.005(3)
F8 0.044(3) 0.032(3) 0.084(7) -0.015(3) -0.004(4) 0.022(2)
F9 0.152(10) 0.168(10) 0.053(4) -0.058(6) -0.046(5) 0.055(11)
N1 0.0381(8) 0.0354(8) 0.0447(8) -0.0007(7) -0.003(2) -0.0010(17)
N2 0.0502(14) 0.0406(12) 0.0399(12) 0.000 0.000 0.000(3)
N3 0.046(3) 0.035(2) 0.038(2) 0.000 0.006(7) 0.000
N4 0.046(2) 0.0315(13) 0.0297(13) -0.003(4) -0.005(6) -0.0071(11)
loop_
_atom_type_symbol
_atom_type_description
_atom_type_scat_dispersion_real
_atom_type_scat_dispersion_imag
_atom_type_scat_source
N N 0.0061 0.0033 'International Tables Vol C Tables 4.2.6.8 and 6.1.1.4'
H H 0.0000 0.0000 'International Tables Vol C Tables 4.2.6.8 and 6.1.1.4'
O O 0.0106 0.0060 'International Tables Vol C Tables 4.2.6.8 and 6.1.1.4'
F F 0.0171 0.0103 'International Tables Vol C Tables 4.2.6.8 and 6.1.1.4'
V V 0.3005 0.5294 'International Tables Vol C Tables 4.2.6.8 and 6.1.1.4'
loop_
_geom_angle_atom_site_label_1
_geom_angle_atom_site_label_2
_geom_angle_atom_site_label_3
_geom_angle
_geom_angle_site_symmetry_1
_geom_angle_site_symmetry_3
V1 V1 F2 98.0(4) 2 .
V1 V1 F1 159.3(5) 2 2_565
F2 V1 F1 101.4(3) . 2_565
V1 V1 F2 70.4(4) 2 2
F2 V1 F2 99.85(11) . 2
F1 V1 F2 98.7(3) 2_565 2
V1 V1 F3 96.2(3) 2 1_545
F2 V1 F3 91.08(10) . 1_545
F1 V1 F3 90.94(19) 2_565 1_545
F2 V1 F3 163.66(18) 2 1_545
V1 V1 F1 17.2(5) 2 1_545
F2 V1 F1 89.4(3) . 1_545
F1 V1 F1 166.97(12) 2_565 1_545
F2 V1 F1 86.5(3) 2 1_545
F3 V1 F1 81.47(18) 1_545 1_545
loop_
_geom_bond_atom_site_label_1
_geom_bond_atom_site_label_2
_geom_bond_distance
_geom_bond_site_symmetry_2
V1 V1 0.3573(15) 2
V1 F2 1.6708(19) .
V1 F1 1.7027(15) 2_565
V1 F2 1.756(2) 2
V1 F3 2.0067(18) 1_545
V1 F1 2.0407(14) 1_545
V1 F3 2.0759(17) 2_565
F1 F2 2.610(6) 2_565
F1 F2 2.624(6) 1_565
F1 F3 2.641(5) .
F1 F3 2.653(5) 2_575
F1 N2 2.8085(16) .
F1 N1 2.992(3) 2_565
F1 N1 3.141(9) 7
F1 N1 3.154(9) 7_455
F2 V1 1.756(2) 2
F2 F1 2.610(6) 2_565
F2 F2 2.623(3) 2
F2 F1 2.624(6) 1_545
F2 F3 2.635(2) 1_545
F2 N2 2.933(3) 7_545
F2 N1 3.103(6) 8
F2 N1 3.104(6) 7_545
F2 N1 3.229(6) .
F3 V1 2.0067(18) 1_565
F3 V1 2.0759(17) 2_565
F3 F2 2.635(2) 1_565
F3 F3 2.643(3) 2_575
F3 F1 2.653(5) 2_575
F3 N3 2.737(2) 2_665
F3 N3 2.742(2) 1_565
F3 N4 2.824(8) 4_566
F3 N4 2.847(9) 1_565
V2 V2 0.394(2) 3
V2 V2 0.432(2) 4
V2 V2 0.5174(18) 2
V2 F8 1.561(7) 3_655
V2 F7 1.644(9) .
V2 F9 1.659(10) .
V2 F6 1.692(3) .
V2 F5 1.700(3) 2_655
V2 F4 1.789(4) .
V2 F7 1.810(8) 3
F4 F9 0.673(14) 2
F4 F9 0.673(14) .
F4 V2 1.789(4) 2
F4 V2 1.980(4) 4
F4 V2 1.980(4) 3
F4 F7 2.153(12) 4
F4 F7 2.153(12) 3
F4 F8 2.349(8) 4_455
F4 F8 2.349(8) 3_655
F5 F8 1.461(7) .
F5 F8 1.461(7) 4
F5 F7 1.582(9) 3_655
F5 F7 1.582(9) 2_655
F5 V2 1.700(3) 3_655
F5 V2 1.700(3) 2_655
F5 V2 2.042(3) 1_655
F5 V2 2.042(3) 4_655
F5 F9 2.103(11) 2_655
F5 F9 2.103(11) 3_655
F6 F8 1.434(7) 1_455
F6 F8 1.434(7) 3_655
F6 F7 1.444(10) .
F6 F7 1.444(10) 3
F6 V2 1.692(3) 3
F6 N3 2.038(6) 6_554
F6 V2 2.077(3) 2
F6 V2 2.077(3) 4
F6 F9 2.471(16) 3
F7 F8 0.965(14) 3_655
F7 F5 1.582(9) 2_655
F7 V2 1.810(8) 3
F7 V2 1.862(8) 4
F7 F9 1.91(2) 4
F7 V2 2.124(8) 2
F7 F4 2.153(12) 3
F7 N4 2.228(11) 6_554
F8 F7 0.965(14) 3_655
F8 F6 1.434(7) 1_655
F8 V2 1.561(7) 3_655
F8 F9 1.844(18) 3_655
F8 V2 1.855(7) 1_655
F8 V2 1.889(7) 2_655
F8 V2 2.073(6) 4_655
F8 N4 2.114(7) 8
F8 F4 2.349(8) 3_655
F9 F9 1.30(3) 2
F9 V2 1.823(10) 2
F9 F8 1.844(18) 3_655
F9 V2 1.884(10) 4
F9 F7 1.91(2) 4
F9 V2 1.958(10) 3
F9 F5 2.103(11) 2_655
F9 F7 2.374(17) 3
N1 F1 2.992(3) 2_565
N1 F3 3.038(5) 7_545
N1 F3 3.063(5) 8_465
N1 F7 3.089(13) 3
N1 F2 3.103(6) 8_455
N1 F2 3.104(6) 7
N1 F9 3.119(19) 2
N1 F1 3.141(9) 7_545
N2 F9 2.661(12) 7
N2 F9 2.661(12) 8_455
N2 F1 2.8085(16) 2_565
N2 F5 2.850(3) 5_455
N2 F5 2.850(3) 6
N2 F2 2.933(3) 8_455
N2 F2 2.933(3) 7
N2 F7 3.048(11) 6
N2 F7 3.048(11) 5_455
N3 N3 1.316(10) 2_655
N3 F6 2.037(6) 6
N3 F3 2.737(2) 2_665
N3 F3 2.737(2) 4_566
N3 F3 2.742(2) 1_545
N3 F3 2.742(2) 3_646
N3 F8 2.934(8) 6_655
N3 F8 2.934(8) 8_455
N3 F7 2.935(11) 8
N3 F7 2.935(11) 6
N4 N4 0.756(6) 3_556
N4 F8 2.114(7) 8_455
N4 F7 2.228(11) 6
N4 F8 2.706(7) 6
N4 F7 2.814(10) 8_455
N4 F3 2.824(8) 4_566
N4 F3 2.846(9) 1_545
N4 F5 2.877(3) 5_455
N4 F6 2.889(3) 6
loop_
_refine_ls_abs_structure_Flack
0.45(10)
loop_
_publcif_info_datablock.id
_publcif_info_datablock.publ_exptl
_publcif_info_datablock.publ_geom
_publcif_info_datablock.structure
{410a2a7e-b3c0-45de-9aea-b13c40919f03} y y y
{5289dab8-52ce-4d7a-a231-5b09c1863dee} y y y
{7d3a8feb-6ada-411e-8a65-8654a304d21a} y y y
{f4f18b50-dcc6-464f-b903-9e9b47837c6b} ? ? ?
loop_
_publcif_info_exptl_table_extra_item
Specimen_density
sin_theta_over_lambda_max
loop_
_publcif_info_exptl_table_header_item
Datablock_name
loop_
_publcif_info_cif.paper_type
CB
loop_
_publcif_info_tables.block_id
_publcif_info_tables.reference_item
{f4f18b50-dcc6-464f-b903-9e9b47837c6b} '_publcif_info_datablock.publ_exptl'
{410a2a7e-b3c0-45de-9aea-b13c40919f03} '_geom_bond_atom_site_label_1'
{5289dab8-52ce-4d7a-a231-5b09c1863dee} '_geom_bond_atom_site_label_1'
