#------------------------------------------------------------------------------
#$Date: 2018-10-25 05:49:15 +0300 (Thu, 25 Oct 2018) $
#$Revision: 211630 $
#$URL: file:///home/coder/svn-repositories/cod/cif/2/02/13/2021316.cif $
#------------------------------------------------------------------------------
#
# This file is available in the Crystallography Open Database (COD),
# http://www.crystallography.net/. The original data for this entry
# were provided by IUCr Journals, http://journals.iucr.org/.
#
# The file may be used within the scientific community so long as
# proper attribution is given to the journal article from which the
# data were obtained.
#
data_2021316
loop_
_publ_author_name
'Marek, Paulina H.'
'Urban, Mateusz'
'Madura, Izabela D.'
_publ_section_title
;
 The study of interactions with a halogen atom: influence of NH~2~ group
 insertion on the crystal structures of <i>meta</i>-bromonitrobenzene
 derivatives
;
_journal_coeditor_code           YP3165
_journal_issue                   11
_journal_name_full               'Acta Crystallographica Section C'
_journal_page_first
;
;
_journal_paper_doi               10.1107/S2053229618013608
_journal_volume                  74
_journal_year                    2018
_chemical_absolute_configuration ad
_chemical_formula_iupac          'C6 H5 Br N2 O2'
_chemical_formula_moiety         'C6 H5 Br N2 O2'
_chemical_formula_sum            'C6 H5 Br N2 O2'
_chemical_formula_weight         217.03
_chemical_name_common            4-bromo-2-nitroaniline
_chemical_name_systematic        4-Bromo-2-nitroaniline
_space_group_crystal_system      monoclinic
_space_group_IT_number           7
_space_group_name_Hall           'P -2yc'
_space_group_name_H-M_alt        'P 1 c 1'
_symmetry_space_group_name_Hall  'P -2yc'
_symmetry_space_group_name_H-M   'P 1 c 1'
_atom_sites_solution_hydrogens   mixed
_atom_sites_solution_primary     dual
_audit_creation_method
;
Olex2 1.2-beta
(compiled 2018.05.29 svn.r3508 for OlexSys, GUI svn.r5506)
;
_cell_angle_alpha                90
_cell_angle_beta                 98.662(3)
_cell_angle_gamma                90
_cell_formula_units_Z            4
_cell_length_a                   11.1643(11)
_cell_length_b                   3.8275(4)
_cell_length_c                   17.2764(16)
_cell_measurement_reflns_used    3126
_cell_measurement_temperature    130.0
_cell_measurement_theta_max      27.63
_cell_measurement_theta_min      2.39
_cell_volume                     729.82(12)
_computing_cell_refinement
;
SAINT (Bruker, 2016)
;
_computing_data_collection
;
APEX3 (Bruker, 2016)
;
_computing_data_reduction
;
SAINT (Bruker, 2016)
;
_computing_molecular_graphics
;
<i>Mercury CSD</i> (Macrae <i>et al.</i>, 2008) and
<i>ORTEP-3 for Windows</i> (Farrugia, 2012)
;
_computing_publication_material
;
OLEX2 (Dolomanov <i>et al.</i>,  2009) and publCIF (Westrip,
2010)
;
_computing_structure_refinement
;
SHELXL (Sheldrick, 2015<i>a</i>)
;
_computing_structure_solution
;
<i>SHELXT</i> (Sheldrick, 2015<i>b</i>)
;
_diffrn_ambient_temperature      130.0
_diffrn_measured_fraction_theta_full 0.999
_diffrn_measured_fraction_theta_max 1.000
_diffrn_measurement_device_type  'Bruker D8 Venture Photon II'
_diffrn_measurement_method       '\f and \w scans'
_diffrn_radiation_type           MoK\a
_diffrn_radiation_wavelength     0.71073
_diffrn_reflns_av_R_equivalents  0.0586
_diffrn_reflns_av_unetI/netI     0.0810
_diffrn_reflns_limit_h_max       15
_diffrn_reflns_limit_h_min       -15
_diffrn_reflns_limit_k_max       5
_diffrn_reflns_limit_k_min       -5
_diffrn_reflns_limit_l_max       20
_diffrn_reflns_limit_l_min       -23
_diffrn_reflns_number            12367
_diffrn_reflns_theta_full        25.242
_diffrn_reflns_theta_max         29.490
_diffrn_reflns_theta_min         2.385
_diffrn_source
;
TRIUMPH monochromator and  fine focus
 sealed tube
;
_diffrn_standards_number         0
_exptl_absorpt_coefficient_mu    5.577
_exptl_absorpt_correction_T_max  0.7461
_exptl_absorpt_correction_T_min  0.5788
_exptl_absorpt_correction_type   multi-scan
_exptl_absorpt_process_details
;
(SADABS; Krause <i>et al.</i>, 2015)
;
_exptl_crystal_colour            yellow
_exptl_crystal_density_diffrn    1.975
_exptl_crystal_description       needle
_exptl_crystal_F_000             424
_exptl_crystal_size_max          0.60
_exptl_crystal_size_mid          0.42
_exptl_crystal_size_min          0.38
_refine_diff_density_max         0.510
_refine_diff_density_min         -0.773
_refine_ls_abs_structure_details
;
Flack <i>x</i> determined using 1017 quotients [(I+)-(I-)]/[(I+)+(I-)]
(Parsons <i>et al.</i>, 2013)
;
_refine_ls_abs_structure_Flack   0.030(12)
_refine_ls_extinction_method     none
_refine_ls_goodness_of_fit_ref   1.020
_refine_ls_hydrogen_treatment    mixed
_refine_ls_matrix_type           full
_refine_ls_number_parameters     215
_refine_ls_number_reflns         3712
_refine_ls_number_restraints     6
_refine_ls_restrained_S_all      1.019
_refine_ls_R_factor_all          0.0620
_refine_ls_R_factor_gt           0.0410
_refine_ls_shift/su_max          0.000
_refine_ls_shift/su_mean         0.000
_refine_ls_structure_factor_coef Fsqd
_refine_ls_weighting_details     'w=1/[\s^2^(Fo^2^)] where P=(Fo^2^+2Fc^2^)/3'
_refine_ls_weighting_scheme      calc
_refine_ls_wR_factor_gt          0.0738
_refine_ls_wR_factor_ref         0.0800
_reflns_number_gt                2965
_reflns_number_total             3712
_reflns_threshold_expression     'I > 2\s(I)'
_cod_data_source_file            yp3165sup1.cif
_cod_data_source_block           1
_cod_database_code               2021316
_shelx_space_group_comment
;
The symmetry employed for this shelxl refinement is uniquely defined
by the following loop, which should always be used as a source of
symmetry information in preference to the above space-group names.
They are only intended as comments.
;
_shelx_estimated_absorpt_t_min   0.135
_shelx_estimated_absorpt_t_max   0.214
_shelx_hkl_file
;
  -2   0   0 9903.41  745.73
  -2   0   0 9619.54  746.53
   2   0   0 9462.05  746.13
   2   0   0 9743.72  745.43
   2   0   0 9999.00  745.73
   2   0   0 9907.01  746.63
  -2   0   0 9620.74  746.23
  -2   0   0 9709.23  745.43
  -3   0   0   27.30    8.80
  -3   0   0   31.80   11.50
   3   0   0   40.80   11.20
   3   0   0   26.70    7.50
   3   0   0   29.10    8.90
   3   0   0   27.20   12.80
  -3   0   0   46.30    8.30
  -3   0   0   51.49   11.70
   4   0   0 1523.15  124.49
  -4   0   0 1615.44  126.59
   4   0   0 1579.94  123.79
   4   0   0 1563.24  126.39
   4   0   0 1547.65  125.59
  -4   0   0 1657.13  124.49
  -4   0   0 1622.34  126.19
  -4   0   0 1618.94  123.69
  -5   0   0   33.60   15.60
   5   0   0   40.60   15.90
  -5   0   0   44.60   11.10
  -5   0   0   50.39   14.70
   5   0   0   48.90   10.30
  -5   0   0   53.49   10.50
   5   0   0   46.80   11.40
   5   0   0   31.30   13.80
  -6   0   0 2229.78  170.28
  -6   0   0 2328.77  173.48
   6   0   0 2118.09  170.38
  -6   0   0 2281.57  169.48
  -6   0   0 2244.08  173.08
   6   0   0 2083.29  171.78
   6   0   0 2096.49  169.28
   6   0   0 2030.50  172.68
   7   0   0   11.20    9.70
   7   0   0   -0.10   11.10
   7   0   0    5.90   13.50
  -7   0   0    0.80    8.50
  -7   0   0   17.70   16.90
  -7   0   0    4.40    9.20
  -7   0   0  -15.80   17.50
  -7   0   0   12.30   10.60
   7   0   0   13.90   14.20
   8   0   0 1784.42  137.79
  -8   0   0 1722.73  142.99
   8   0   0 1747.13  141.39
  -8   0   0 1652.03  137.09
   8   0   0 1914.51  142.29
  -8   0   0 1684.83  138.59
  -8   0   0 1746.83  143.69
  -8   0   0 1662.73  139.39
   8   0   0 1801.12  142.49
   9   0   0   86.89   24.30
  -9   0   0   50.69   13.70
  -9   0   0   44.70   13.70
  -9   0   0   44.40   23.60
   9   0   0   68.99   20.60
   9   0   0   55.19   17.50
   9   0   0   62.79   15.30
  -9   0   0   38.50   24.40
  -9   0   0   24.80   12.90
 -10   0   0  761.12   62.39
  10   0   0  662.63   68.99
  10   0   0  592.04   62.09
 -10   0   0  935.81   75.19
  10   0   0  630.64   65.39
 -10   0   0  871.51   72.99
 -11   0   0   17.90   15.00
 -11   0   0   28.10   26.50
  11   0   0   22.30   16.40
 -11   0   0   81.49   30.00
  12   0   0  110.29   21.90
 -12   0   0  145.89   38.60
 -12   0   0   82.09   33.90
  13   0   0   20.00   18.70
 -13   0   0   41.80   40.40
 -13   0   0   80.39   36.30
 -14   0   0  170.18   75.99
 -14   0   0  153.88   42.70
  14   0   0  153.98   27.80
 -15   0   0    2.40   35.30
  15   0   0    5.50   20.20
 -15   0   0    3.30   34.10
   0  -1   0  146.29   14.00
   0   1   0  133.69   13.90
   1  -1   0 2664.23  207.68
   1  -1   0 2826.32  209.58
   1  -1   0 2686.03  208.28
  -1  -1   0 2807.12  209.88
  -1  -1   0 2848.31  208.68
   1   1   0 2574.84  208.48
   1   1   0 2622.64  208.68
  -1   1   0 2617.64  208.88
   1   1   0 2639.24  209.68
  -1   1   0 2802.82  208.28
  -2  -1   0 1692.33  131.69
  -2  -1   0 1629.64  132.99
   2  -1   0 1718.63  132.39
   2  -1   0 1725.53  131.39
  -2   1   0 1743.43  131.39
   2   1   0 1613.94  132.69
  -2   1   0 1714.73  132.39
   2   1   0 1694.23  131.79
   2   1   0 1681.03  131.49
   3  -1   0 4891.31  376.76
  -3  -1   0 4964.60  375.36
   3  -1   0 4907.81  377.56
  -3  -1   0 4878.01  378.16
  -3  -1   0 5093.79  376.86
   3  -1   0 4732.33  377.36
  -3  -1   0 4948.00  377.06
  -3   1   0 4908.21  377.66
   3   1   0 4913.21  376.76
  -3   1   0 5001.10  376.76
   3   1   0 4635.84  377.76
   4  -1   0   35.90   11.60
  -4  -1   0   33.20   10.90
  -4  -1   0   18.10   14.50
   4  -1   0   45.10   14.20
  -4  -1   0   45.20   15.70
   4  -1   0   44.90   11.90
  -4  -1   0   28.30    8.30
  -4  -1   0   36.40   10.10
  -4   1   0   45.90   13.30
  -4   1   0   53.99   12.00
   4   1   0   71.09   15.80
  -4   1   0   44.30    7.70
   4   1   0   43.40   10.90
   4   1   0   28.80    9.00
  -5  -1   0 4613.64  350.66
  -5  -1   0 4556.14  353.06
  -5  -1   0 4509.25  352.56
   5  -1   0 4526.85  350.96
   5  -1   0 4341.57  351.86
  -5  -1   0 4597.84  349.57
  -5  -1   0 4513.55  351.46
   5   1   0 4646.64  350.86
   5   1   0 4616.94  349.77
  -5   1   0 4559.74  352.26
  -5   1   0 4537.95  348.87
  -5   1   0 4537.65  350.86
   5   1   0 4497.75  352.36
   6  -1   0  128.99   19.40
  -6  -1   0  154.18   23.80
   6  -1   0  131.79   19.60
  -6  -1   0  124.29   16.00
  -6  -1   0  136.59   17.40
  -6  -1   0  132.39   24.00
   6  -1   0  109.99   18.70
  -6  -1   0  136.19   19.80
  -6   1   0  141.29   23.40
  -6   1   0  159.38   22.20
  -6   1   0  116.89   17.90
   6   1   0  123.69   16.60
   6   1   0  107.59   19.80
   6   1   0  111.79   17.30
  -6   1   0  122.59   14.90
  -7  -1   0 1628.64  127.89
  -7  -1   0 1485.95  118.29
  -7  -1   0 1478.45  119.09
   7  -1   0 1510.15  121.39
   7  -1   0 1481.45  121.99
  -7  -1   0 1418.36  120.59
  -7  -1   0 1585.74  124.49
  -7   1   0 1493.05  119.69
  -7   1   0 1376.36  116.59
   7   1   0 1609.04  119.89
  -7   1   0 1415.66  123.29
   7   1   0 1505.65  122.59
   8  -1   0   38.90   15.60
  -8  -1   0   10.80   22.20
  -8  -1   0   10.00   11.30
   8  -1   0   52.99   18.10
   8  -1   0   39.90   16.30
  -8  -1   0    6.50   13.30
  -8  -1   0   18.60   12.50
  -8  -1   0    6.30   21.60
  -8   1   0    6.80   18.60
   8   1   0   34.70   13.90
  -8   1   0   11.50   14.50
  -8   1   0   16.10    9.40
  -8   1   0   20.60   20.30
   9  -1   0  576.64   54.39
  -9  -1   0  477.05   48.50
  -9  -1   0  511.45   49.20
  -9  -1   0  478.35   58.89
  -9  -1   0  515.65   59.49
   9  -1   0  587.64   52.89
   9   1   0  556.54   56.69
  -9   1   0  512.15   46.10
   9   1   0  635.34   51.39
  -9   1   0  569.74   56.29
  -9   1   0  529.45   60.09
  -9   1   0  546.35   49.99
  10  -1   0   50.19   21.40
 -10  -1   0   43.00   25.40
 -10  -1   0   37.40   15.90
 -10  -1   0   77.29   29.20
  10  -1   0   24.70   19.10
 -10   1   0   32.30   13.60
  10   1   0   32.00   17.90
 -10   1   0   15.90   25.60
 -10   1   0   26.90   11.00
 -10   1   0    5.40   21.70
 -11  -1   0  323.47   47.30
 -11  -1   0  245.38   44.10
 -11   1   0  249.68   41.80
  11   1   0  230.08   32.00
 -11   1   0  198.38   26.00
 -11   1   0  262.37   43.30
 -12  -1   0   32.40   32.40
 -12  -1   0   95.49   32.10
 -12   1   0   49.90   27.30
 -12   1   0   45.10   33.20
  12   1   0   58.79   21.20
 -13  -1   0  150.48   42.80
 -13  -1   0  146.29   38.00
 -13   1   0  118.49   39.00
 -13   1   0  140.69   23.30
 -13   1   0  198.48   38.50
  13   1   0  203.58   29.90
 -14  -1   0  -18.00   29.40
 -14  -1   0    9.20   35.40
 -14   1   0  -30.80   28.60
  14   1   0   -0.40   22.10
 -14   1   0  -20.00   30.30
 -15  -1   0  121.59   42.60
 -15  -1   0   53.99   40.10
 -15   1   0   13.70   32.80
  15   1   0   64.09   23.70
   0  -2   0 2314.67  179.38
   0  -2   0 2309.37  175.88
   0   2   0 2203.98  175.78
   1  -2   0   52.09   14.60
   1  -2   0   49.50    8.70
  -1  -2   0   32.70   14.00
  -1  -2   0   36.00   10.10
  -1   2   0   25.10    8.00
   1   2   0   29.10    8.80
   1   2   0   30.80   10.70
  -1   2   0   29.10    7.50
   2  -2   0 1799.62  134.89
   2  -2   0 1807.12  132.19
  -2  -2   0 1536.45  135.49
  -2  -2   0 1608.84  132.69
  -2   2   0 1572.14  131.79
   2   2   0 1837.92  133.39
   3  -2   0  176.08   22.00
  -3  -2   0  250.77   28.80
  -3  -2   0  147.39   20.60
   3  -2   0  166.98   22.80
   3   2   0  171.68   25.10
  -3   2   0  209.48   26.20
  -3   2   0  189.28   21.30
  -3   2   0  216.98   18.60
   3   2   0  195.58   23.50
  -4  -2   0 1627.84  131.29
   4  -2   0 1673.73  130.69
  -4  -2   0 1667.83  134.89
   4  -2   0 1561.94  132.19
  -4   2   0 1685.83  132.99
  -4   2   0 1615.34  130.49
   4   2   0 1732.63  131.59
   4   2   0 1627.74  133.69
  -4   2   0 1675.53  128.79
   5  -2   0   19.30   14.20
   5  -2   0   19.60   12.50
  -5  -2   0   32.90   19.00
  -5  -2   0    9.40   21.90
  -5  -2   0   28.30   13.80
   5  -2   0   13.30   13.00
  -5   2   0   24.40   10.50
  -5   2   0   12.70   16.30
   5   2   0   29.40   16.50
  -5   2   0    3.30   10.20
   5   2   0   16.30   14.00
   6  -2   0 1015.30   88.29
  -6  -2   0 1086.69   92.99
  -6  -2   0 1020.30   82.19
   6  -2   0 1147.19   88.49
  -6  -2   0  975.00   86.89
   6  -2   0  945.91   90.69
  -6  -2   0 1103.09   90.19
   6   2   0  969.40  101.79
  -6   2   0 1099.29   89.19
   6   2   0 1074.79   86.69
  -6   2   0 1013.60   85.69
  -7  -2   0  178.38   32.60
  -7  -2   0  186.38   27.50
   7  -2   0  212.08   28.40
   7  -2   0  195.78   27.80
  -7  -2   0  136.99   28.60
   7  -2   0  154.68   24.60
  -7   2   0  169.38   25.10
   7   2   0  194.28   25.10
  -7   2   0  203.28   29.60
   7   2   0  148.89   27.50
  -8  -2   0  647.54   69.59
   8  -2   0  809.82   65.89
   8  -2   0  739.93   66.59
  -8  -2   0  801.72   74.99
  -8  -2   0  660.43   59.09
  -8   2   0  611.24   66.49
   8   2   0  744.93   64.69
   9  -2   0   -7.70   18.50
   9  -2   0   13.50   18.80
  -9  -2   0   -9.30   11.00
  -9  -2   0   58.19   25.90
  -9  -2   0  -10.40   28.20
   9   2   0   -3.90   17.80
  -9   2   0   -0.90    9.90
  -9   2   0   -1.50   19.80
 -10  -2   0  324.17   35.90
 -10  -2   0  399.16   53.09
 -10  -2   0  378.96   55.09
 -10   2   0  353.56   38.70
 -10   2   0  390.16   51.29
  10   2   0  360.76   42.50
 -11  -2   0  -37.70   32.00
 -11  -2   0  -16.10   13.80
 -11  -2   0   11.20   30.80
 -11   2   0   14.60   21.90
  11   2   0   -6.90   20.70
 -12  -2   0  261.47   60.79
 -12  -2   0  185.28   55.69
 -12   2   0  195.18   22.20
 -12   2   0  250.67   41.70
 -13  -2   0   20.80   36.00
 -13  -2   0   19.20   35.60
  13   2   0   37.60   23.10
 -13   2   0    3.00   25.00
 -14  -2   0   56.09   33.20
 -14  -2   0  120.39   41.30
 -14   2   0  125.49   41.00
  14   2   0   44.60   24.50
   0  -3   0  285.37   28.10
   0  -3   0  317.07   38.70
   0  -3   0  240.68   32.60
   0   3   0  290.57   30.60
   1  -3   0  906.21   81.89
  -1  -3   0 1066.59   86.39
   1  -3   0  835.02   75.99
   1  -3   0  982.90   85.19
  -1   3   0 1077.09   78.89
   1   3   0  941.51   79.39
   2  -3   0  139.89   27.10
  -2  -3   0  226.98   34.50
  -2  -3   0  188.68   23.40
   2   3   0  180.28   25.00
  -3  -3   0  670.63   66.09
  -3  -3   0  646.64   56.89
  -3   3   0  610.74   54.39
   3   3   0  635.44   57.69
  -4  -3   0   29.00   23.10
  -4  -3   0    5.50   15.90
  -4   3   0   15.20   13.30
   4   3   0   14.80   17.30
  -5  -3   0  649.54   66.49
  -5  -3   0  621.54   69.29
  -5   3   0  561.84   52.89
   5   3   0  539.35   55.39
  -6  -3   0   36.60   29.50
  -6  -3   0   25.30   25.00
  -6  -3   0   14.40   18.00
   6  -3   0    0.00   18.60
   6   3   0   19.20   19.60
  -6   3   0   11.00   15.80
  -7  -3   0  246.18   43.60
   7  -3   0  297.47   39.60
  -7  -3   0  228.18   38.70
   7   3   0  355.66   39.80
  -7   3   0  271.67   37.80
  -8  -3   0   30.80   30.50
  -8  -3   0    3.80   31.80
  -8   3   0   33.10   10.40
  -8   3   0   68.69   16.00
   8   3   0    3.70   18.80
  -8   3   0   45.30   27.80
  -9  -3   0  240.88   47.40
  -9  -3   0  415.06   55.29
  -9   3   0  273.57   31.90
  -9   3   0  440.66   50.89
   9   3   0  431.66   46.20
  -9   3   0  388.56   38.00
 -10  -3   0  -26.90   34.60
 -10  -3   0   25.10   52.19
 -10   3   0    5.00   11.50
 -10   3   0   13.30   19.40
 -10   3   0   37.20   27.70
  10   3   0   -5.60   23.10
 -11  -3   0   83.69   41.00
 -11  -3   0  118.79   42.80
  11   3   0  107.49   31.50
 -11   3   0  168.78   36.90
 -11   3   0  151.38   27.10
 -12  -3   0  -21.20   38.90
 -12  -3   0   72.89   42.40
 -12   3   0    7.10   22.60
  12   3   0  -14.80   24.70
 -12   3   0  -20.20   28.80
 -13  -3   0   81.79   42.00
 -13  -3   0  107.89   48.30
 -13   3   0  115.69   29.20
 -13   3   0   58.29   36.50
  13   3   0  182.08   34.70
   0  -4   0  131.59   35.70
   0   4   0  156.28   26.80
  -1  -4   0   26.70   29.20
   1  -4   0   24.80   29.90
  -1  -4   0  -13.30   14.40
  -1   4   0  -11.70   16.70
   1   4   0    2.70   18.90
   2  -4   0  280.07   45.20
  -2  -4   0  285.07   43.40
  -2  -4   0  256.27   31.90
   2   4   0  242.38   35.00
  -2   4   0  228.18   30.20
  -3  -4   0   35.70   21.50
  -3  -4   0   55.59   33.80
   3  -4   0   70.09   32.20
   3   4   0   76.49   23.70
  -3   4   0   47.80   16.90
  -4  -4   0  282.57   47.50
  -4  -4   0  240.08   37.90
   4   4   0  384.96   42.90
  -4   4   0  305.87   32.10
  -4   4   0  282.87   34.90
  -5  -4   0   48.70   34.40
   5   4   0   58.39   26.80
  -5   4   0    8.40   11.80
  -5   4   0   12.40   18.50
  -6  -4   0  100.89   55.79
   6   4   0  147.49   33.40
  -7  -4   0   37.40   31.90
  -7  -4   0    5.60   39.10
   7   4   0   62.89   26.00
  -8  -4   0   50.99   35.10
  -8  -4   0   93.29   46.00
   8   4   0  104.29   33.50
  -9  -4   0  -47.80   37.50
  -9  -4   0  -38.30   40.20
   9   4   0   27.60   27.90
 -10  -4   0  124.99   47.30
 -10  -4   0   21.80   36.90
  10   4   0   94.79   35.00
   0  -5   0   43.50   39.00
   0   5   0   11.30   24.00
   1  -5   0   41.70   36.30
  -1  -5   0  115.59   46.60
  -1   5   0   78.49   25.20
   1   5   0   90.79   28.10
  -2  -5   0   30.60   41.20
   2  -5   0   34.50   36.80
  -2   5   0   42.40   21.70
   2   5   0  100.59   37.90
   3  -5   0  170.18   42.80
  -3  -5   0   73.59   41.20
   3   5   0   44.20   27.70
  -3   5   0   71.69   21.30
  -4  -5   0   13.50   43.80
   4  -5   0   16.80   36.80
  -4   5   0   11.70   16.20
   4   5   0   43.40   30.20
   5  -5   0   73.49   37.90
  -5  -5   0  -45.80   40.40
  -5   5   0   33.60   13.50
   5   5   0  127.19   34.20
  -6  -5   0   21.30   43.00
   6  -5   0  -25.60   35.20
   6   5   0   28.30   29.70
 -15   0   1  -18.30   34.70
 -15   0   1   41.50   30.60
  15   0  -1  -11.50   17.40
 -14   0   1    3.70   27.90
  14   0  -1   -1.70   17.60
 -13   0   1  -11.30   25.50
 -13   0   1   32.10   33.80
  13   0  -1   12.80   17.00
 -12   0   1   24.00   31.30
 -12   0   1   -6.60   23.10
  12   0  -1   -1.90   15.50
 -11   0   1   13.90   23.10
  11   0  -1  -15.30   20.50
 -11   0   1  -31.30   24.80
 -11   0   1   -6.20   14.00
  11   0  -1   11.40   15.10
 -10   0   1   12.50   11.50
  10   0  -1   18.10   22.00
 -10   0   1  -22.00   20.00
  10   0  -1   -1.00   15.50
  10   0  -1   10.70   13.90
 -10   0   1  -22.10   23.40
   9   0  -1   -0.10   12.20
  -9   0   1    7.80   20.40
  -9   0   1    7.80   11.00
  -9   0   1    2.50   12.80
  -9   0   1   15.60   10.70
   9   0  -1   11.60   16.50
  -9   0   1  -21.10   20.50
   9   0  -1    9.10   17.00
   8   0  -1    2.00   10.30
   8   0  -1   -3.80   13.30
  -8   0   1   14.30   18.90
  -8   0   1   13.90    9.20
  -8   0   1  -18.40   11.10
   8   0  -1  -12.00   14.40
  -8   0   1   22.50   13.00
  -8   0   1    6.90   19.10
   7   0  -1    6.30   13.40
   7   0  -1  -14.50    8.80
  -7   0   1    0.00   15.30
  -7   0   1  -13.40    7.30
  -7   0   1  -10.90   10.40
  -7   0   1   -2.60    9.00
   7   0  -1    8.50   11.30
  -7   0   1   18.20   18.00
   7   0  -1    3.20   14.20
  -6   0   1  -15.10   13.90
   6   0  -1  -10.80   12.60
   6   0  -1   -6.50   13.30
   6   0  -1    1.40    8.60
   6   0  -1   -1.80   10.40
  -6   0   1   -7.30    7.90
  -6   0   1   -2.20    7.60
  -6   0   1   -0.60    8.80
  -6   0   1    0.70   13.70
   5   0  -1   11.30   13.30
  -5   0   1    6.00   14.30
  -5   0   1   -3.70   12.90
   5   0  -1   -5.20    8.60
  -5   0   1  -10.70    9.30
   5   0  -1    1.70    7.70
  -5   0   1   13.20   12.30
  -5   0   1   -3.80    6.80
  -4   0   1    5.90    6.80
   4   0  -1    3.30    8.30
   4   0  -1  -22.30   11.50
   4   0  -1    4.20    6.70
  -4   0   1   -5.40    8.40
  -4   0   1   -0.60   11.70
   4   0  -1   10.50   11.10
  -4   0   1   -1.50   11.70
  -4   0   1    7.80    8.50
  -3   0   1    2.60   10.20
  -3   0   1   -4.10    5.90
   3   0  -1   -8.10    6.30
   3   0  -1   -4.70    9.30
   3   0  -1   -4.50   10.80
  -3   0   1   -8.50   10.20
   3   0  -1   -8.30    7.30
  -3   0   1   -9.10    6.20
  -3   0   1    0.50    6.60
   2   0  -1   -4.40    5.70
   2   0  -1   16.70    8.30
   2   0  -1   -0.60    5.10
   2   0  -1    2.80    4.60
  -2   0   1    5.60    5.70
   2   0  -1   -1.20    7.20
  -2   0   1    7.80    7.60
  -2   0   1    6.20    5.70
  -2   0   1   -1.60    7.20
  -2   0   1    3.90    4.60
  -1   0  -1    5.60    6.00
  -1   0  -1   -4.40    3.90
   1   0   1    1.60    3.50
  -2   0  -1    5.90    7.60
   2   0   1    6.20    7.30
  -2   0  -1    4.80    6.90
   2   0   1    6.70    9.40
  -2   0  -1   -0.30    5.20
  -2   0  -1   -5.40    6.30
   2   0   1    6.70    5.40
  -3   0  -1    2.30    6.70
   3   0   1    1.90    9.20
   3   0   1    3.00   11.00
  -3   0  -1    2.40   10.80
  -3   0  -1   -0.90    9.70
   3   0   1   11.90    6.60
  -3   0  -1   19.20    7.80
   3   0   1  -12.50    8.10
  -4   0  -1   -1.70    6.90
   4   0   1   -6.20    7.10
   4   0   1   -5.20   10.50
  -4   0  -1    2.90   11.50
  -4   0  -1   -2.90   12.50
   4   0   1   -0.50    9.20
   4   0   1    6.20   12.00
  -4   0  -1  -12.10    8.10
   5   0   1    6.00   10.00
   5   0   1   -3.80   11.60
  -5   0  -1    4.10   14.20
   5   0   1   -2.90   12.50
  -5   0  -1    1.50   11.60
   5   0   1    3.30    8.40
  -5   0  -1   -6.20    7.20
  -5   0  -1  -12.80    8.80
   6   0   1   -6.60    8.40
  -6   0  -1   -3.90   14.10
   6   0   1    0.90   12.40
  -6   0  -1   -8.40    8.10
   6   0   1   -9.60   11.80
  -6   0  -1   -4.70    9.30
  -6   0  -1  -12.60   15.90
   6   0   1   -2.80   13.90
  -7   0  -1   -4.80   10.50
   7   0   1   28.90   14.50
  -7   0  -1   -1.60   18.20
  -7   0  -1   12.70   17.10
   7   0   1    9.20   14.80
   7   0   1    3.10   10.10
  -7   0  -1  -19.10    8.70
   7   0   1   -6.90   12.80
   8   0   1   -5.50   16.50
   8   0   1    8.90   11.80
  -8   0  -1    2.30   18.80
  -8   0  -1   -5.40   11.10
  -8   0  -1   -8.70   19.20
  -8   0  -1   -5.60   10.20
   8   0   1   19.50   16.40
   9   0   1   -7.40   16.30
  -9   0  -1  -13.10   11.40
  -9   0  -1  -25.90   19.50
  -9   0  -1   -1.00   12.20
  -9   0  -1    2.30   11.30
  -9   0  -1   13.10   21.80
   9   0   1  -10.10   17.70
 -10   0  -1    2.20   12.90
  10   0   1    9.20   15.20
 -10   0  -1   15.30   26.10
 -10   0  -1    5.60   23.80
  10   0   1  -20.00   18.90
 -11   0  -1   -2.50   28.30
 -11   0  -1    1.60   13.70
 -11   0  -1   -0.60   24.30
  11   0   1   -4.70   16.20
 -12   0  -1   36.80   31.50
  12   0   1   27.50   17.60
 -12   0  -1  -20.60   25.40
 -13   0  -1   -5.80   32.40
  13   0   1   30.00   20.20
 -13   0  -1   78.89   55.39
 -14   0  -1  -10.50   27.30
 -14   0  -1   76.49   42.40
  14   0   1   -6.80   19.70
 -15   0  -1   -3.30   35.40
 -15   0  -1    9.80   29.70
 -15  -1   1   -4.60   27.00
 -15  -1   1   22.00   39.00
  15   1  -1   14.80   21.40
 -15   1   1    2.20   32.60
 -14  -1   1   39.30   28.60
 -14  -1   1   28.60   35.30
 -14   1   1   33.30   28.40
 -14   1   1    2.60   42.70
 -13  -1   1    7.90   35.30
  13   1  -1   14.10   19.90
 -13   1   1   90.89   37.10
 -13   1   1   -3.10   27.10
 -12  -1   1   -8.00   30.90
  12  -1  -1   12.60   21.00
 -12  -1   1    3.10   28.70
 -12   1   1   18.00   13.80
 -12   1   1   -2.40   29.90
 -12   1   1   -2.70   21.80
  12   1  -1   10.50   16.90
 -11  -1   1   65.39   31.50
 -11  -1   1   66.19   28.10
  11  -1  -1   74.19   22.80
  11   1  -1   65.99   21.10
 -11   1   1   59.09   25.60
 -11   1   1   37.70   29.10
 -11   1   1   45.00   13.10
 -10  -1   1   53.59   16.60
  10  -1  -1  117.49   24.90
  10  -1  -1   92.59   23.60
 -10  -1   1   45.50   27.00
 -10  -1   1   48.00   30.60
 -10   1   1   73.29   17.40
 -10   1   1   84.99   24.10
  10   1  -1   59.89   18.80
 -10   1   1   65.69   13.40
 -10   1   1   57.49   28.40
  -9  -1   1   14.40   23.40
  -9  -1   1   15.50   22.10
   9  -1  -1   37.00   16.90
   9  -1  -1   28.20   18.00
  -9  -1   1   22.40   13.70
   9   1  -1    2.00   15.90
   9   1  -1   -7.00   17.10
  -9   1   1   54.49   10.80
  -9   1   1   32.60   21.00
  -9   1   1   44.90   24.40
   9   1  -1   11.10   16.10
   9   1  -1    1.30   20.80
  -9   1   1   24.80   13.30
  -8  -1   1   21.70   11.20
   8  -1  -1   38.60   15.00
  -8  -1   1   20.40   22.50
  -8  -1   1   10.70   22.80
   8  -1  -1   15.90   16.20
   8  -1  -1   63.29   18.80
  -8  -1   1    1.60   13.20
  -8   1   1  -11.30   19.80
  -8   1   1   36.80   13.40
   8   1  -1   32.80   13.90
  -8   1   1   14.40   15.80
  -8   1   1    2.90    9.30
   8   1  -1   34.50   14.10
   7  -1  -1  332.87   38.10
  -7  -1   1  340.17   32.60
  -7  -1   1  324.77   36.20
   7  -1  -1  369.16   37.40
  -7  -1   1  383.96   42.60
  -7  -1   1  424.16   47.70
   7   1  -1  358.56   34.50
   7   1  -1  312.07   38.90
  -7   1   1  371.36   34.60
  -7   1   1  330.47   43.50
  -7   1   1  345.97   30.40
  -7   1   1  361.66   42.90
  -7   1   1  338.27   33.50
   7   1  -1  345.97   34.50
  -6  -1   1   31.70    9.60
  -6  -1   1   30.30   20.00
   6  -1  -1   26.20   12.40
   6  -1  -1   24.40   11.70
   6  -1  -1   48.00   14.90
  -6  -1   1   28.90   11.80
  -6  -1   1   50.89   18.50
   6   1  -1   27.90   10.90
  -6   1   1   42.80   12.30
  -6   1   1   25.90    7.70
   6   1  -1   31.60   12.50
  -6   1   1   40.40   17.80
   6   1  -1   28.80   15.70
  -6   1   1   19.60   15.20
   5  -1  -1  211.88   25.40
  -5  -1   1  277.97   32.50
   5  -1  -1  217.48   26.20
  -5  -1   1  227.58   22.70
  -5  -1   1  328.17   32.60
   5  -1  -1  206.28   27.20
   5   1  -1  223.68   29.40
   5   1  -1  236.58   23.80
   5   1  -1  238.88   25.40
  -5   1   1  285.97   29.00
  -5   1   1  228.48   24.90
   4  -1  -1  327.27   30.00
  -4  -1   1  269.27   31.50
   4  -1  -1  336.17   31.40
   4  -1  -1  276.57   28.20
  -4  -1   1  268.17   25.80
  -4  -1   1  262.67   28.90
  -4  -1   1  288.37   33.80
  -4   1   1  262.77   30.00
   4   1  -1  336.57   28.80
   4   1  -1  344.47   32.50
   4   1  -1  316.47   26.60
  -4   1   1  284.97   28.20
  -3  -1   1  107.29   18.20
   3  -1  -1  156.58   18.40
  -3  -1   1   98.19   13.30
   3  -1  -1  155.68   16.30
  -3  -1   1  118.29   16.30
   3  -1  -1  151.38   19.10
   3   1  -1  125.89   15.10
  -3   1   1  132.39   15.80
   3   1  -1  194.08   20.50
   3   1  -1  141.99   14.10
   3   1  -1  145.19   18.10
  -3   1   1  108.69   15.80
   2  -1  -1  264.77   26.30
  -2  -1   1  300.27   29.00
  -2  -1   1  301.07   25.40
   2  -1  -1  254.27   24.40
   2   1  -1  253.77   27.20
  -2   1   1  301.87   26.80
  -2   1   1  285.47   24.30
   2   1  -1  234.08   24.80
   2   1  -1  233.08   25.10
  -1  -1   1  422.76   35.60
   1  -1  -1  442.76   34.80
   1  -1  -1  458.15   37.10
  -1  -1   1  433.36   37.50
  -1   1   1  407.16   34.80
   1   1  -1  411.26   35.70
   1   1  -1  413.76   37.50
   0  -1   1  410.56   31.00
   0  -1  -1  316.47   29.60
   0  -1  -1  345.17   29.50
   0  -1   1  425.96   33.00
   0   1   1  399.86   30.70
   0   1  -1  365.26   31.00
   0   1  -1  351.26   29.70
   0   1   1  381.46   29.70
  -1  -1  -1 5327.07  413.46
  -1  -1  -1 5287.87  412.36
   1  -1   1 5635.04  413.06
  -1  -1  -1 5243.38  412.16
   1  -1   1 5476.15  411.86
   1   1   1 5453.25  412.36
  -1   1  -1 5409.36  412.06
  -1   1  -1 5350.86  412.96
  -1   1  -1 5197.88  411.86
   2  -1   1   15.50    8.80
  -2  -1  -1   16.90    8.20
  -2  -1  -1   47.60   11.80
  -2  -1  -1   33.30    8.00
   2  -1   1   27.50   10.10
  -2   1  -1   41.90   10.30
  -2   1  -1   35.50    9.60
  -2   1  -1   48.70    8.50
   2   1   1   10.90   12.10
   2   1   1   11.90    8.30
  -3  -1  -1 1101.09   87.69
   3  -1   1 1113.19   87.49
   3  -1   1 1077.49   87.99
   3  -1   1 1044.80   88.29
  -3  -1  -1 1128.79   89.69
  -3  -1  -1 1091.49   87.19
  -3  -1  -1 1107.39   85.89
   3   1   1 1148.39   89.29
  -3   1  -1 1099.89   87.49
  -3   1  -1 1093.99   88.69
   3   1   1 1118.09   87.59
   4  -1   1  221.18   24.80
  -4  -1  -1  223.58   28.40
   4  -1   1  224.58   25.20
  -4  -1  -1  268.77   29.80
   4  -1   1  279.47   26.20
  -4  -1  -1  226.48   22.00
  -4  -1  -1  217.48   24.70
  -4  -1  -1  225.88   23.60
  -4   1  -1  235.38   24.50
   4   1   1  221.28   24.00
  -4   1  -1  241.68   27.20
   4   1   1  204.78   29.70
  -4   1  -1  253.97   21.70
  -5  -1  -1  317.37   27.20
   5  -1   1  269.37   30.10
  -5  -1  -1  303.77   34.30
   5  -1   1  305.67   29.80
  -5  -1  -1  311.07   30.00
  -5  -1  -1  328.67   35.20
  -5  -1  -1  262.37   28.10
   5  -1   1  260.77   30.10
  -5   1  -1  297.97   32.20
  -5   1  -1  291.67   25.90
  -5   1  -1  310.67   29.20
   5   1   1  278.17   32.30
   5   1   1  258.97   28.80
   6  -1   1   13.30   12.70
  -6  -1  -1   17.30    9.70
   6  -1   1   10.50   12.40
  -6  -1  -1   16.30    9.90
   6  -1   1   39.70   13.00
  -6  -1  -1   10.10   16.50
  -6  -1  -1   12.70   17.00
  -6  -1  -1   38.10   13.90
  -6   1  -1   34.50   16.90
  -6   1  -1   35.30   11.10
   6   1   1    3.50   10.70
   6   1   1   15.90   15.70
  -6   1  -1   19.40    8.40
  -6   1  -1   41.10   15.70
   7  -1   1    1.80   14.00
   7  -1   1   19.10   14.60
  -7  -1  -1   23.50   10.70
  -7  -1  -1   17.40   21.60
  -7  -1  -1   19.50   19.80
  -7  -1  -1   -0.80   10.50
  -7  -1  -1   12.70   12.00
   7  -1   1    9.10   15.20
   7   1   1   39.30   17.70
  -7   1  -1   13.10    8.40
   7   1   1   -4.20   12.20
  -7   1  -1   10.90   10.80
  -7   1  -1    2.20   15.30
  -7   1  -1   11.80   17.90
   8  -1   1  165.68   28.10
  -8  -1  -1  174.58   30.30
  -8  -1  -1  100.09   29.00
   8  -1   1  200.38   27.30
   8  -1   1  153.28   23.80
  -8  -1  -1  144.49   24.70
  -8  -1  -1  149.69   21.20
  -8   1  -1  208.58   26.10
  -8   1  -1  178.88   30.00
   8   1   1  193.38   24.20
   8   1   1  206.88   42.80
  -8   1  -1  138.39   29.60
  -8   1  -1  146.79   19.00
  -9  -1  -1   12.40   23.90
  -9  -1  -1    3.80   12.10
  -9  -1  -1   13.50   24.70
  -9  -1  -1   10.00   12.80
   9  -1   1    1.50   17.50
  -9   1  -1   10.70   26.20
   9   1   1    4.80   13.80
   9   1   1   -3.90   16.20
  -9   1  -1   19.80   22.60
  -9   1  -1   22.00    9.90
 -10  -1  -1  114.09   29.80
 -10  -1  -1   72.89   19.10
  10  -1   1  122.19   25.00
 -10  -1  -1   82.49   30.00
 -10   1  -1   52.89   14.00
 -10   1  -1   70.39   28.90
 -10   1  -1   55.89   17.30
 -10   1  -1  111.39   26.60
  10   1   1   53.89   18.00
 -11  -1  -1   32.00   27.90
 -11  -1  -1    3.50   26.00
 -11   1  -1   73.89   31.40
  11   1   1   26.40   18.20
 -11   1  -1   27.20   12.70
 -11   1  -1   -0.10   28.40
 -12  -1  -1   91.79   35.00
 -12  -1  -1  -19.70   30.70
  12   1   1   11.00   20.50
 -12   1  -1   17.60   28.90
 -12   1  -1   16.70   13.00
 -12   1  -1   25.80   31.00
 -13  -1  -1    7.80   32.30
 -13  -1  -1   32.70   34.30
  13   1   1   26.40   21.30
 -13   1  -1   32.20   31.40
 -13   1  -1   19.20   31.90
 -14  -1  -1   15.30   36.70
 -14  -1  -1   -0.20   32.70
 -14   1  -1   13.10   31.40
 -14   1  -1   21.20   29.80
  14   1   1    9.40   21.80
 -15  -1  -1   -5.80   36.70
 -15  -1  -1   37.20   33.80
 -15   1  -1   10.20   30.70
  15   1   1   10.90   22.90
 -14  -2   1  -28.80   33.80
 -14  -2   1   19.90   32.10
  14   2  -1    6.50   25.60
 -14   2   1  -10.60   24.20
 -13  -2   1   34.30   37.70
 -13  -2   1    5.90   33.90
 -13   2   1   23.30   26.90
  13   2  -1   -4.10   22.10
 -12  -2   1  -37.60   50.59
 -12  -2   1   55.59   48.40
  12   2  -1   71.99   26.50
 -12   2   1   54.79   29.70
  11  -2  -1   83.29   23.60
 -11  -2   1   34.10   29.60
 -11  -2   1    8.10   32.80
 -11  -2   1   54.19   16.80
 -11   2   1   55.89   24.70
  11   2  -1   52.39   22.20
 -11   2   1   30.00   14.10
 -10  -2   1  101.49   31.40
 -10  -2   1   73.99   16.80
 -10  -2   1  135.49   33.90
  10  -2  -1   60.69   21.80
 -10   2   1   82.89   28.50
 -10   2   1   59.99   15.20
  10   2  -1  102.49   24.30
  -9  -2   1   45.40   13.80
  -9  -2   1   65.79   32.80
   9  -2  -1   36.00   21.90
   9  -2  -1    7.90   18.80
  -9  -2   1   50.19   30.20
  -9   2   1   92.19   15.60
   9   2  -1   49.99   19.40
  -9   2   1   64.29   24.20
   8  -2  -1   71.49   19.40
  -8  -2   1   34.20   25.80
  -8  -2   1   51.99   29.30
  -8  -2   1   47.40   12.60
   8   2  -1   80.39   20.00
  -8   2   1   20.30   10.40
  -8   2   1   22.70   17.10
  -7  -2   1  185.58   25.30
  -7  -2   1   89.59   24.70
  -7  -2   1  157.68   29.90
   7  -2  -1  110.99   23.30
   7  -2  -1  104.19   21.80
  -7  -2   1  140.59   22.70
   7  -2  -1   80.99   22.10
  -7   2   1  134.39   22.00
   7   2  -1   45.50   21.30
  -7   2   1  130.29   22.70
  -7   2   1  130.99   16.50
   7   2  -1  128.79   21.40
   6  -2  -1  161.38   27.10
   6  -2  -1  170.48   36.70
  -6  -2   1  104.99   24.80
   6  -2  -1  210.08   27.60
  -6  -2   1  211.88   33.20
  -6  -2   1  145.29   23.40
  -6   2   1  157.28   22.90
  -6   2   1  139.19   23.10
   6   2  -1  156.08   22.50
   5  -2  -1  139.09   19.60
  -5  -2   1  124.89   21.90
  -5  -2   1  160.88   20.80
   5  -2  -1  122.59   21.20
   5  -2  -1  123.29   23.30
  -5   2   1  159.08   16.50
   5   2  -1  140.99   24.70
  -5   2   1  117.39   19.10
  -5   2   1  107.59   21.60
   5   2  -1  108.79   21.30
  -4  -2   1  272.37   29.10
   4  -2  -1  251.07   29.60
  -4  -2   1  276.47   36.00
   4  -2  -1  276.97   27.70
   4   2  -1  208.18   27.80
   4   2  -1  237.28   32.10
  -4   2   1  232.68   26.50
  -4   2   1  309.47   31.10
  -3  -2   1  133.79   19.00
   3  -2  -1  124.79   19.40
  -3  -2   1  204.68   26.40
   3  -2  -1  152.98   18.00
   3   2  -1  109.29   17.30
   3   2  -1  141.39   19.20
  -3   2   1  125.89   16.90
   3   2  -1  184.28   24.20
   2  -2  -1  422.66   38.60
  -2  -2   1  523.55   45.20
  -2  -2   1  484.45   40.40
   2  -2  -1  400.16   41.80
   2   2  -1  432.46   40.30
  -2   2   1  512.25   38.80
   2   2  -1  407.76   40.10
  -1  -2   1   -6.70   14.40
   1  -2  -1   36.50    8.20
   1  -2  -1   51.79   13.20
  -1  -2   1   19.70    9.70
  -1   2   1   -2.60    6.90
  -1   2   1   17.20    8.50
   1   2  -1   43.50   10.00
   0  -2   1  575.84   47.70
   0  -2   1  550.14   52.09
   0  -2  -1  573.34   46.90
   0   2  -1  597.74   47.70
   0   2   1  586.64   48.10
  -1  -2  -1  824.72   69.79
   1  -2   1  914.81   69.69
   1  -2   1  919.71   72.79
  -1  -2  -1  838.82   74.79
  -1   2  -1  889.21   69.39
   1   2   1  892.81   70.79
  -1   2  -1  839.72   69.19
   2  -2   1   96.19   18.50
  -2  -2  -1  155.88   22.70
  -2   2  -1  147.89   16.20
  -2   2  -1  127.69   16.00
   2   2   1  155.18   18.90
  -3  -2  -1 1522.45  124.19
  -3  -2  -1 1527.65  120.79
   3  -2   1 1560.44  122.19
  -3   2  -1 1524.95  122.49
  -3   2  -1 1481.35  118.79
   3   2   1 1565.94  121.09
  -3   2  -1 1488.05  119.99
  -4  -2  -1  256.57   30.00
   4  -2   1  302.37   31.60
  -4  -2  -1  267.47   37.20
   4   2   1  317.47   30.90
  -4   2  -1  273.37   29.00
  -4   2  -1  284.57   33.00
   4   2   1  311.87   34.40
  -4   2  -1  279.47   27.60
  -5  -2  -1  124.29   31.20
   5  -2   1   85.39   18.00
   5  -2   1   88.99   18.70
  -5  -2  -1   94.79   24.70
  -5  -2  -1  107.89   19.30
   5   2   1   97.59   17.90
   5   2   1   87.69   22.00
  -5   2  -1   92.19   20.20
  -5   2  -1   98.89   16.60
  -5   2  -1  111.19   16.10
  -6  -2  -1  197.28   33.40
   6  -2   1  260.37   32.60
  -6  -2  -1  212.18   30.70
   6  -2   1  314.97   33.00
  -6  -2  -1  253.37   31.00
  -6   2  -1  204.68   22.90
  -6   2  -1  197.18   30.10
  -6   2  -1  252.47   29.00
   6   2   1  254.47   34.00
  -6   2  -1  266.07   28.40
   6   2   1  319.57   31.10
  -7  -2  -1  241.88   26.00
  -7  -2  -1  246.28   37.10
   7  -2   1  253.37   32.80
  -7  -2  -1  299.87   34.10
   7  -2   1  229.08   32.90
  -7  -2  -1  270.57   35.60
   7   2   1  209.18   33.40
  -7   2  -1  292.17   31.50
  -7   2  -1  343.37   37.90
   7   2   1  242.28   30.70
  -8  -2  -1  199.58   24.80
   8  -2   1  288.57   33.40
  -8  -2  -1  179.28   34.20
  -8  -2  -1  226.78   38.00
   8   2   1  189.48   28.70
  -8   2  -1  208.28   22.20
  -8   2  -1  248.58   37.20
  -9  -2  -1   91.49   33.50
  -9  -2  -1   55.19   26.50
   9  -2   1  112.39   35.10
  -9  -2  -1   78.69   17.00
  -9   2  -1   78.69   26.70
  -9   2  -1   72.09   12.30
   9   2   1   91.09   22.30
 -10  -2  -1    1.50   13.80
 -10  -2  -1  107.09   36.90
 -10  -2  -1   21.10   32.00
  10  -2   1   41.10   19.60
 -10   2  -1   37.30   27.60
 -10   2  -1   27.10   13.90
 -10   2  -1   20.30    8.90
  10   2   1    8.90   20.80
 -11  -2  -1   15.80   34.20
 -11  -2  -1   -6.00   15.20
 -11  -2  -1   35.40   33.90
  11   2   1    3.20   21.30
 -11   2  -1  -11.80   22.40
 -11   2  -1    2.00    9.10
 -12  -2  -1   27.80   37.40
 -12  -2  -1   -8.00   42.70
 -12   2  -1  -32.40   21.40
 -12   2  -1   -9.40   10.00
  12   2   1  -40.20   20.20
 -13  -2  -1  -35.00   33.50
 -13  -2  -1   -0.10   33.00
 -13   2  -1   60.29   34.90
  13   2   1   25.50   24.40
 -13   2  -1  -12.50   18.00
 -14  -2  -1   -5.90   36.00
 -14  -2  -1   57.69   41.90
 -14   2  -1    8.00   26.30
  14   2   1   10.80   23.40
 -13  -3   1   72.09   38.50
 -13  -3   1   85.79   39.80
 -13   3   1   67.49   24.70
  13   3  -1   -1.30   25.30
 -13   3   1   33.40   28.70
 -12  -3   1  -14.50   39.50
 -12  -3   1  -30.90   34.70
 -12   3   1   23.00   21.40
  12   3  -1    9.00   24.20
 -12   3   1   -4.70   30.40
 -11  -3   1   41.00   36.80
 -11  -3   1    6.30   35.00
 -11   3   1   82.19   28.90
  11   3  -1   20.30   24.80
 -11   3   1   52.89   22.10
 -11   3   1   15.50   13.80
 -10  -3   1  146.89   45.70
 -10  -3   1   31.20   30.70
 -10   3   1   47.10   18.70
 -10   3   1   72.39   28.50
  10   3  -1   38.20   24.60
 -10   3   1   34.40   11.70
  -9  -3   1   67.59   35.50
  -9  -3   1   55.29   37.00
  -9   3   1   37.80   11.10
  -9   3   1   70.49   28.70
   9   3  -1   52.09   23.00
  -9   3   1   43.70   16.20
  -8  -3   1   73.29   35.10
  -8  -3   1   24.00   29.20
   8   3  -1   73.99   23.30
  -8   3   1   45.40   26.70
  -7  -3   1  349.87   49.60
   7  -3  -1  347.47   39.20
  -7  -3   1  207.78   38.60
   7   3  -1  267.27   37.00
  -7   3   1  314.57   39.30
   6  -3  -1   68.99   22.50
  -6  -3   1   67.69   20.10
  -6  -3   1   82.19   33.20
   6  -3  -1  131.79   23.00
  -6   3   1   60.89   17.90
   6   3  -1   64.29   22.60
  -5  -3   1  251.07   39.40
   5  -3  -1  253.87   32.30
  -5   3   1  290.87   32.10
   5   3  -1  282.37   35.40
  -4  -3   1   95.19   28.50
   4  -3  -1  113.09   19.40
  -4  -3   1  127.19   22.10
   4   3  -1  117.49   23.30
  -4   3   1  104.69   19.50
  -3  -3   1  244.88   31.00
  -3  -3   1  221.28   36.00
   3  -3  -1  260.97   32.60
   3   3  -1  307.57   32.70
  -3   3   1  250.67   27.50
  -3   3   1  234.58   25.70
  -2  -3   1  405.26   36.40
   2  -3  -1  293.17   38.40
  -2  -3   1  373.06   45.90
  -2   3   1  347.37   32.40
   2   3  -1  327.77   34.90
   2   3  -1  296.77   35.90
  -1  -3   1  504.95   46.90
   1  -3  -1  520.95   50.99
  -1  -3   1  536.65   55.49
   1   3  -1  530.85   46.60
   1   3  -1  614.64   58.79
  -1   3   1  526.45   46.60
   0  -3   1  226.98   23.90
   0  -3  -1  173.28   21.90
   0  -3   1  165.88   26.10
   0  -3  -1  229.38   31.60
   0  -3  -1  174.48   27.50
   0  -3   1  151.48   28.20
   0   3  -1  212.08   23.50
   0   3  -1  251.17   26.30
   0   3   1  192.38   23.90
   1  -3   1  382.76   41.70
   1  -3   1  338.37   34.80
  -1  -3  -1  404.46   47.60
  -1  -3  -1  418.66   36.40
  -1   3  -1  379.46   33.80
  -1   3  -1  368.76   34.70
   1   3   1  407.66   38.20
  -2  -3  -1  224.98   26.60
   2  -3   1  129.89   25.80
  -2  -3  -1  227.58   34.60
  -2   3  -1  208.18   20.90
  -2   3  -1  203.98   23.00
   2   3   1  150.18   24.50
  -3  -3  -1  182.68   23.30
   3  -3   1   98.19   23.50
  -3  -3  -1  147.09   30.00
   3   3   1  153.28   23.20
  -3   3  -1  165.48   20.20
  -4  -3  -1  161.48   22.40
  -4  -3  -1  129.09   29.80
   4   3   1  144.69   24.90
  -4   3  -1  123.99   20.10
  -5  -3  -1  242.18   33.00
  -5  -3  -1  206.68   35.60
   5   3   1  163.08   28.80
  -5   3  -1  249.38   23.70
  -5   3  -1  242.98   29.50
  -6  -3  -1   31.80   28.80
  -6  -3  -1   80.99   21.40
  -6  -3  -1   58.09   24.90
   6   3   1   61.79   20.70
  -6   3  -1   58.59   19.20
  -6   3  -1   72.29   14.20
  -6   3  -1   66.59   22.00
   7  -3   1  103.29   24.80
  -7  -3  -1   78.09   30.20
  -7  -3  -1   86.49   35.70
  -7   3  -1   95.29   25.40
  -7   3  -1  102.19   17.90
   7   3   1  129.89   25.90
  -8  -3  -1   81.99   36.60
  -8  -3  -1   87.69   37.70
   8  -3   1   88.39   28.30
  -8   3  -1  152.78   22.30
  -8   3  -1  121.79   32.70
   8   3   1   74.29   25.20
  -9  -3  -1   11.70   32.60
  -9  -3  -1   10.50   32.90
  -9   3  -1   30.50   11.90
  -9   3  -1   58.49   19.30
   9   3   1   10.70   23.60
  -9   3  -1   47.90   25.90
 -10  -3  -1   65.09   38.90
 -10  -3  -1   -7.00   33.40
  10   3   1   23.10   25.80
 -10   3  -1   52.89   20.60
 -10   3  -1   36.40   13.60
 -10   3  -1   42.50   31.80
 -11  -3  -1   -7.60   34.40
 -11  -3  -1   26.10   36.70
  11   3   1   47.80   25.00
 -11   3  -1    7.10   15.30
 -11   3  -1   28.70   22.20
 -11   3  -1   33.00   30.70
 -12  -3  -1   53.39   42.30
 -12  -3  -1   11.20   41.10
 -12   3  -1   21.80   23.80
 -12   3  -1  -22.60   24.90
  12   3   1  -12.80   26.60
 -13  -3  -1   28.20   40.20
 -13  -3  -1    5.00   42.70
 -13   3  -1  -40.20   31.00
 -13   3  -1   35.20   24.90
  13   3   1   49.40   29.80
 -10  -4   1   15.90   43.00
 -10  -4   1   37.00   35.10
  10   4  -1   37.80   29.30
  -9  -4   1   57.89   44.40
  -9  -4   1   -3.20   40.20
   9   4  -1   35.40   30.50
  -8  -4   1   71.79   34.20
  -8  -4   1   46.10   40.60
   8   4  -1   94.69   30.60
  -7  -4   1   46.80   52.79
  -7  -4   1   67.69   41.90
   7   4  -1   51.49   28.00
  -6  -4   1   90.89   45.60
   6   4  -1   52.99   27.80
  -5  -4   1  187.28   44.00
  -5   4   1  148.99   25.90
   5   4  -1  181.58   32.70
  -4  -4   1   50.89   24.90
  -4  -4   1   34.00   32.30
  -4   4   1   79.79   19.60
   4   4  -1   44.70   26.00
  -4   4   1   57.09   14.90
  -3  -4   1  127.09   25.60
  -3  -4   1   79.99   35.10
   3   4  -1  152.38   29.30
  -3   4   1  134.89   20.90
  -3   4   1  108.99   21.10
  -2  -4   1  177.98   37.20
   2  -4  -1  166.08   38.90
  -2  -4   1  183.68   27.00
  -2   4   1  188.58   25.30
   2   4  -1  159.08   29.20
   1  -4  -1  130.39   36.30
  -1  -4   1  115.09   33.30
  -1  -4   1  148.99   22.50
  -1   4   1  100.39   21.80
   1   4  -1  169.28   27.70
   0  -4   1  177.38   36.50
   0  -4  -1  236.48   40.50
   0  -4   1  154.28   24.00
   0   4   1  213.08   28.00
   0   4  -1  193.98   29.30
  -1  -4  -1  112.39   32.70
   1  -4   1  111.79   34.50
  -1  -4  -1  166.98   22.60
  -1   4  -1  218.68   26.70
   1   4   1  126.99   26.00
  -2  -4  -1  184.38   38.70
  -2  -4  -1  184.58   26.80
   2  -4   1  176.08   36.60
   2   4   1  189.78   30.70
  -2   4  -1  225.78   28.10
  -3  -4  -1  178.28   41.50
  -3  -4  -1   87.39   24.60
   3  -4   1  127.59   32.90
   3   4   1  130.49   27.10
  -3   4  -1  104.49   20.00
  -3   4  -1   54.29   18.70
  -4  -4  -1   98.39   39.90
  -4  -4  -1   95.99   25.40
  -4   4  -1  111.49   21.50
   4   4   1   85.39   28.10
  -5  -4  -1  168.28   43.90
   5   4   1  106.19   30.20
  -5   4  -1  101.69   24.30
   6   4   1  111.49   31.00
  -7  -4  -1   63.09   42.90
  -7  -4  -1   67.59   35.00
   7   4   1   48.10   26.90
  -8  -4  -1  106.79   46.00
  -8  -4  -1   61.09   34.30
   8   4   1  112.49   33.00
  -9  -4  -1   14.30   39.30
  -9  -4  -1   35.60   39.30
   9   4   1   45.40   30.10
 -10  -4  -1   24.80   36.70
 -10  -4  -1   63.69   46.10
  10   4   1   18.50   29.20
  -6  -5   1  -28.60   46.50
   6  -5  -1  -29.80   35.00
   6   5  -1   85.89   35.20
  -5  -5   1   70.19   43.10
   5  -5  -1  -20.80   37.80
   5   5  -1   55.49   34.10
   4  -5  -1   54.19   38.10
  -4  -5   1   58.79   41.90
   4   5  -1   65.99   32.20
  -4   5   1   25.30   15.50
  -3  -5   1   63.29   45.80
   3  -5  -1   79.19   43.00
  -3   5   1   79.29   20.00
   3   5  -1   64.59   30.30
  -2  -5   1  111.29   49.10
   2  -5  -1  111.09   44.40
  -2   5   1   78.59   24.00
   1  -5  -1  111.09   44.10
  -1  -5   1   68.39   43.70
   1   5  -1   35.30   25.40
  -1   5   1   60.69   23.20
   0  -5   1  107.29   40.10
   0  -5  -1  125.19   46.70
   0   5  -1  117.19   27.40
   0   5   1   57.49   25.30
  -1  -5  -1   72.89   41.20
   1  -5   1   45.50   37.40
   1   5   1   50.79   25.50
  -1   5  -1   77.29   24.50
  -2  -5  -1  116.49   44.80
   2  -5   1   69.29   37.40
   2   5   1   95.19   29.40
  -2   5  -1   48.90   22.40
   3  -5   1   81.49   41.40
  -3  -5  -1  166.48   52.19
   3   5   1   67.59   27.80
  -3   5  -1   43.00   20.90
  -4  -5  -1   67.59   46.30
   4  -5   1   40.90   37.40
   4   5   1   44.30   31.50
  -4   5  -1   54.99   18.10
   5  -5   1   88.49   38.40
  -5  -5  -1   35.00   47.70
   5   5   1   80.89   32.00
  -5   5  -1   67.09   17.70
  -6  -5  -1   -1.60   45.10
   6  -5   1  -22.50   30.60
   6   5   1   24.40   28.60
  15   0  -2   64.99   22.00
 -15   0   2  115.59   35.10
 -15   0   2   95.69   41.20
 -14   0   2   41.30   41.90
  14   0  -2   29.40   19.00
 -14   0   2   47.50   29.00
 -13   0   2  254.17   46.10
 -13   0   2  153.98   34.70
  13   0  -2  107.89   28.40
  13   0  -2  157.58   25.90
 -12   0   2   52.79   33.20
 -12   0   2   51.49   25.30
  12   0  -2   82.39   26.80
  12   0  -2   37.00   17.10
  11   0  -2  931.11   78.99
 -11   0   2  820.42   82.79
 -11   0   2  826.12   87.09
  11   0  -2  900.71   74.69
  10   0  -2  304.17   56.99
  10   0  -2  247.08   31.00
 -10   0   2  271.57   40.30
 -10   0   2  248.48   40.70
   9   0  -2 1324.67  101.59
  -9   0   2 1278.97  107.29
  -9   0   2 1261.97  109.99
  -9   0   2 1207.28  102.59
   9   0  -2 1360.16  104.19
  -9   0   2 1195.48  103.59
   9   0  -2 1144.49  106.09
   9   0  -2 1290.17  110.19
  -8   0   2   29.30   14.40
   8   0  -2   86.19   19.50
  -8   0   2   60.39   13.00
  -8   0   2   24.30   13.70
   8   0  -2   57.89   19.00
   8   0  -2   74.79   14.20
  -7   0   2 2109.69  166.48
  -7   0   2 2126.59  164.68
   7   0  -2 2038.60  164.88
   7   0  -2 2082.89  160.88
   7   0  -2 2036.30  164.98
  -7   0   2 2022.90  161.98
  -7   0   2 2016.50  160.58
  -7   0   2 2006.70  162.38
   7   0  -2 2101.79  162.38
  -6   0   2 1202.48   94.59
  -6   0   2 1186.08   96.29
   6   0  -2 1155.48   96.09
   6   0  -2 1173.18   98.39
   6   0  -2 1231.78   94.79
   6   0  -2 1116.49   98.39
  -6   0   2 1207.48   95.89
  -6   0   2 1275.17  100.39
  -6   0   2 1240.98   98.59
   5   0  -2 2558.84  180.08
   5   0  -2 2478.15  181.18
  -5   0   2 2193.88  183.38
   5   0  -2 2661.43  183.88
  -5   0   2 2093.69  180.58
  -5   0   2 2191.08  179.68
  -5   0   2 2104.19  182.08
  -4   0   2 2630.84  198.68
   4   0  -2 2446.56  200.28
  -4   0   2 2702.43  201.18
   4   0  -2 2524.75  197.78
  -4   0   2 2525.55  199.78
   4   0  -2 2508.85  198.68
   4   0  -2 2544.15  200.18
  -4   0   2 2646.34  198.98
   3   0  -2 7635.64  594.24
   3   0  -2 7749.52  594.44
   3   0  -2 7798.52  595.54
  -3   0   2 7924.51  594.24
  -3   0   2 7938.51  595.74
   3   0  -2 7680.53  593.54
  -3   0   2 7825.72  594.44
   3   0  -2 7505.15  595.04
  -3   0   2 7723.53  594.74
  -2   0   2 1418.86  116.49
  -2   0   2 1449.46  116.49
   2   0  -2 1575.14  116.69
  -2   0   2 1445.46  117.69
   2   0  -2 1522.05  116.49
   2   0  -2 1580.94  116.89
   2   0  -2 1601.34  117.79
  -2   0   2 1437.96  116.39
  -1   0   2  354.06   28.10
  -1   0   2  345.37   28.20
  -1   0   2  336.17   29.30
  -1   0   2  348.67   27.40
   0   0  -2  142.59   13.20
   0   0  -2  147.59   12.30
  -1   0  -2  474.45   39.10
  -1   0  -2  419.26   40.00
   1   0   2  543.45   38.70
   1   0   2  553.34   39.50
   1   0   2  546.85   40.30
  -1   0  -2  410.66   39.20
  -2   0  -2 1231.78  101.69
  -2   0  -2 1307.67  101.69
  -2   0  -2 1214.08  103.29
   2   0   2 1356.06  101.79
   2   0   2 1369.76  103.39
   2   0   2 1363.96  101.69
   3   0   2 8096.69  623.94
   3   0   2 8161.18  622.74
  -3   0  -2 8174.08  622.54
  -3   0  -2 8142.08  622.94
   3   0   2 8119.29  622.54
  -3   0  -2 8084.49  624.24
  -3   0  -2 8083.09  622.64
  -4   0  -2 1822.52  145.49
  -4   0  -2 1907.41  142.99
  -4   0  -2 1869.31  143.79
   4   0   2 1760.52  142.49
  -4   0  -2 1882.41  142.49
   4   0   2 1807.62  145.09
   4   0   2 1761.72  143.29
  -5   0  -2 3198.88  248.38
  -5   0  -2 3056.79  250.87
  -5   0  -2 3127.29  248.88
   5   0   2 3302.77  248.08
  -5   0  -2 3170.18  249.58
   5   0   2 3232.58  250.67
   5   0   2 3338.87  249.18
  -6   0  -2  741.93   66.09
  -6   0  -2  818.22   68.59
  -6   0  -2  766.72   62.39
  -6   0  -2  787.92   63.49
   6   0   2  779.32   65.19
   6   0   2  720.53   62.69
   6   0   2  725.43   66.59
   7   0   2 1920.61  151.58
  -7   0  -2 1812.72  147.99
  -7   0  -2 1888.51  150.98
  -7   0  -2 1834.52  147.19
   7   0   2 1870.31  147.59
  -7   0  -2 1908.31  152.78
   7   0   2 1889.21  149.79
  -8   0  -2   16.60   11.70
   8   0   2   56.69   14.20
  -8   0  -2    9.00   19.20
  -8   0  -2   15.10   19.80
   8   0   2   45.40   33.80
  -8   0  -2    3.70   11.60
   9   0   2  442.06   40.80
  -9   0  -2  438.06   50.19
  -9   0  -2  371.56   46.20
  -9   0  -2  365.66   40.10
  -9   0  -2  374.66   38.50
   9   0   2  430.06   45.30
   9   0   2  460.35   50.79
 -10   0  -2   92.69   26.10
 -10   0  -2   25.80   25.10
  10   0   2   41.80   17.80
  10   0   2   40.40   21.00
 -10   0  -2   29.70   13.90
 -11   0  -2  479.55   61.69
  11   0   2  607.04   53.19
 -11   0  -2  498.65   63.29
  12   0   2   -9.40   18.80
 -12   0  -2   38.60   30.80
 -12   0  -2  -11.60   28.30
 -13   0  -2  491.15   61.79
  13   0   2  272.17   40.00
 -13   0  -2  383.66   58.69
  14   0   2   10.70   21.30
 -14   0  -2   25.90   34.70
 -14   0  -2   18.90   35.40
 -15   0  -2   42.80   38.50
  15   0   2   60.79   23.90
 -15   0  -2  101.89   36.80
 -15  -1   2   10.80   30.10
 -15  -1   2    0.10   36.20
 -15   1   2   -1.40   23.90
  15   1  -2   26.60   21.80
 -14  -1   2   32.00   29.30
 -14  -1   2   49.00   39.50
  14   1  -2   75.19   22.90
 -14   1   2   48.90   29.50
 -14   1   2  102.29   65.09
 -13  -1   2    7.40   30.50
 -13  -1   2   36.30   40.50
  13  -1  -2   45.40   27.30
 -13   1   2   56.49   53.29
 -13   1   2   22.10   32.50
  13   1  -2   58.79   22.60
 -12  -1   2  487.55   60.49
 -12  -1   2  497.45   66.39
  12  -1  -2  429.46   53.09
 -12   1   2  552.44   65.19
 -12   1   2  440.46   55.89
  12   1  -2  421.26   48.50
  11  -1  -2  103.39   25.30
 -11  -1   2   55.49   30.40
 -11  -1   2   57.99   27.00
  11   1  -2   70.19   20.80
  11   1  -2  106.09   22.90
 -11   1   2   52.99   31.40
 -11   1   2  104.09   29.00
 -10  -1   2  637.74   68.59
  10  -1  -2  572.54   52.49
 -10  -1   2  588.94   64.49
  10  -1  -2  558.24   57.89
  10  -1  -2  629.74   72.39
 -10  -1   2  591.54   54.39
  10   1  -2  611.94   56.89
 -10   1   2  596.34   66.99
  10   1  -2  561.14   55.69
 -10   1   2  583.44   54.49
 -10   1   2  674.33   51.69
 -10   1   2  618.14   61.09
   9  -1  -2  148.89   24.40
   9  -1  -2  134.19   24.00
  -9  -1   2  157.58   31.00
   9  -1  -2  226.98   34.00
  -9  -1   2  197.88   31.10
  -9  -1   2  187.88   23.10
   9  -1  -2  183.08   21.30
   9   1  -2  100.69   26.00
  -9   1   2  202.18   35.10
  -9   1   2  210.78   23.90
   9   1  -2  104.59   25.80
  -9   1   2  165.28   18.90
   9   1  -2  141.89   27.30
   9   1  -2  137.09   23.30
  -9   1   2  215.88   29.40
  -8  -1   2  670.73   64.09
  -8  -1   2  604.34   58.69
   8  -1  -2  639.24   53.99
  -8  -1   2  712.03   65.59
  -8  -1   2  621.64   55.49
   8  -1  -2  637.84   58.39
   8  -1  -2  635.44   60.79
   8   1  -2  719.03   70.19
  -8   1   2  618.24   57.09
  -8   1   2  629.04   60.39
  -8   1   2  660.03   52.89
  -8   1   2  651.53   56.29
   8   1  -2  653.13   56.89
   8   1  -2  713.43   57.39
  -7  -1   2  108.79   24.70
  -7  -1   2   94.69   19.80
   7  -1  -2  186.48   25.50
  -7  -1   2  103.29   16.40
   7  -1  -2  145.79   21.30
   7   1  -2  163.98   20.10
   7   1  -2  122.29   22.60
  -7   1   2  149.49   21.60
  -7   1   2  111.89   18.20
  -7   1   2  109.69   25.50
   7   1  -2  138.69   18.50
  -7   1   2  131.19   23.10
  -7   1   2  122.49   14.00
  -6  -1   2 1703.93  143.29
   6  -1  -2 1794.22  141.49
  -6  -1   2 1720.63  142.59
  -6  -1   2 1725.83  138.69
  -6  -1   2 1772.32  140.99
   6  -1  -2 1821.82  140.49
   6  -1  -2 1820.12  142.59
  -6   1   2 1763.72  141.69
  -6   1   2 1750.12  143.89
  -6   1   2 1695.63  139.99
   6   1  -2 1859.31  139.19
   6   1  -2 1802.42  139.89
   6   1  -2 1797.02  142.69
  -5  -1   2   34.40   11.90
   5  -1  -2   20.50   14.20
  -5  -1   2   37.40    8.90
   5  -1  -2    7.90   10.10
  -5  -1   2   30.40   16.30
   5  -1  -2   30.80   11.80
  -5  -1   2   45.00   17.00
   5   1  -2   40.90   11.20
  -5   1   2   29.90   12.70
   5   1  -2   19.20   13.60
   5   1  -2    4.30    8.90
   5   1  -2   15.50   11.70
  -5   1   2   16.10    8.80
  -5   1   2   47.80   10.00
   4  -1  -2 2696.33  220.48
   4  -1  -2 2769.62  219.88
  -4  -1   2 2864.21  218.58
  -4  -1   2 2916.61  222.18
  -4  -1   2 2957.20  220.58
  -4  -1   2 2894.71  220.98
  -4   1   2 2916.41  220.88
  -4   1   2 2933.51  218.58
   4   1  -2 2755.02  218.58
  -4   1   2 2914.31  219.98
   4   1  -2 2677.93  221.38
   4   1  -2 2723.83  219.58
  -3  -1   2  186.18   25.40
   3  -1  -2  188.08   21.30
   3  -1  -2  205.88   24.40
  -3  -1   2  164.78   17.10
  -3  -1   2  188.58   21.10
   3  -1  -2  181.08   19.90
   3   1  -2  190.58   24.00
   3   1  -2  200.48   17.10
   3   1  -2  203.48   20.20
  -3   1   2  137.99   18.80
  -3   1   2  204.98   22.00
   3   1  -2  158.08   20.80
  -3   1   2  152.98   16.40
   2  -1  -2 4948.00  385.86
   2  -1  -2 5228.28  386.76
  -2  -1   2 4902.91  386.36
  -2  -1   2 4916.61  384.76
  -2  -1   2 5162.68  387.26
   2   1  -2 4915.21  386.96
  -2   1   2 4910.41  385.86
   2   1  -2 5101.19  386.46
  -2   1   2 5151.98  386.76
  -1  -1   2  360.96   33.20
   1  -1  -2  376.36   30.30
   1  -1  -2  389.56   32.80
  -1  -1   2  370.96   31.60
   1   1  -2  342.27   31.70
  -1   1   2  350.36   30.50
  -1   1   2  365.66   29.30
   1   1  -2  341.07   32.40
   0  -1   2 6787.92  510.25
   0  -1  -2 6869.61  509.55
   0  -1  -2 6752.92  509.25
   0  -1   2 6449.45  509.95
   0  -1   2 6571.04  510.15
   0   1   2 6581.64  509.55
   0   1  -2 6549.44  509.95
   0   1   2 6660.13  509.25
   1  -1   2 5759.32  430.46
   1  -1   2 5616.44  431.06
  -1  -1  -2 5584.64  429.66
  -1  -1  -2 5557.04  431.66
  -1  -1  -2 5687.13  430.46
   1   1   2 5512.35  430.46
  -1   1  -2 5732.43  431.06
  -1   1  -2 5445.26  430.46
   2  -1   2 6012.10  439.86
  -2  -1  -2 5648.53  439.16
  -2  -1  -2 5569.74  440.36
  -2   1  -2 5703.73  439.16
  -2   1  -2 5479.65  439.76
  -2   1  -2 5568.84  438.96
   2   1   2 6044.10  439.36
   2   1   2 5738.53  440.26
   3  -1   2  302.37   29.20
   3  -1   2  289.87   27.40
  -3  -1  -2  307.17   31.80
  -3  -1  -2  284.27   28.60
  -3  -1  -2  262.17   29.90
   3   1   2  331.27   28.00
   3   1   2  314.67   30.70
  -3   1  -2  275.87   29.40
  -3   1  -2  261.57   27.30
  -4  -1  -2 1662.83  138.29
  -4  -1  -2 1674.53  136.29
   4  -1   2 1803.22  137.89
   4  -1   2 1801.32  136.69
  -4  -1  -2 1678.83  138.49
  -4  -1  -2 1731.23  135.29
  -4   1  -2 1643.24  135.29
   4   1   2 1864.81  136.79
   4   1   2 1839.52  138.19
  -4   1  -2 1704.63  136.49
  -4   1  -2 1728.23  137.99
  -5  -1  -2   42.80   11.20
   5  -1   2  101.39   16.20
  -5  -1  -2   81.69   20.10
   5  -1   2   82.69   14.10
  -5  -1  -2   37.40   16.80
  -5  -1  -2   57.59   12.60
   5   1   2   65.49   13.10
  -5   1  -2   59.59   12.50
  -5   1  -2   37.10   14.80
  -5   1  -2   69.39   11.30
   5   1   2   78.89   15.30
  -6  -1  -2 1721.93  138.69
  -6  -1  -2 1761.32  134.09
  -6  -1  -2 1691.63  134.89
  -6  -1  -2 1806.12  138.69
   6  -1   2 1685.33  136.29
   6  -1   2 1595.34  136.89
  -6   1  -2 1698.03  136.99
  -6   1  -2 1724.13  133.49
   6   1   2 1640.54  136.69
  -6   1  -2 1684.13  135.29
   6   1   2 1659.13  135.19
  -6   1  -2 1789.02  138.19
   7  -1   2  114.89   23.20
  -7  -1  -2  139.29   23.10
  -7  -1  -2  139.79   19.80
  -7  -1  -2  131.39   27.30
  -7  -1  -2  145.59   27.20
  -7  -1  -2  143.69   18.50
   7  -1   2  152.58   21.80
   7   1   2  117.59   21.70
   7   1   2  138.79   21.70
  -7   1  -2  137.29   25.10
  -7   1  -2  138.89   17.30
  -7   1  -2  137.89   24.40
  -7   1  -2  117.39   18.60
   8  -1   2 1599.84  135.79
  -8  -1  -2 1611.14  132.09
   8  -1   2 1574.14  133.59
  -8  -1  -2 1791.02  137.79
  -8  -1  -2 1559.24  133.99
  -8  -1  -2 1795.12  138.79
  -8  -1  -2 1668.03  131.59
  -8   1  -2 1595.74  130.09
  -8   1  -2 1608.34  136.59
  -8   1  -2 1631.14  132.69
  -8   1  -2 1655.23  136.99
   8   1   2 1700.93  132.99
   8   1   2 1739.03  139.19
  -9  -1  -2  233.78   28.00
  -9  -1  -2  199.08   27.10
  -9  -1  -2  238.98   38.10
   9  -1   2  277.27   32.50
  -9  -1  -2  182.78   33.20
   9   1   2  159.18   28.70
  -9   1  -2  250.47   35.80
   9   1   2  209.48   28.70
  -9   1  -2  245.58   41.30
  -9   1  -2  155.48   22.30
 -10  -1  -2  564.54   60.19
  10  -1   2  589.84   70.79
 -10  -1  -2  523.75   58.29
 -10  -1  -2  429.36   46.30
  10   1   2  476.55   48.50
 -10   1  -2  470.95   43.20
 -10   1  -2  419.16   57.49
 -10   1  -2  467.15   56.29
 -11  -1  -2   37.40   29.10
 -11  -1  -2   56.19   27.30
  11  -1   2   91.79   27.70
  11   1   2   46.70   19.60
 -11   1  -2   35.60   14.10
 -11   1  -2   12.10   28.20
 -11   1  -2   47.90   26.10
 -12  -1  -2  168.88   36.60
 -12  -1  -2  159.18   38.40
 -12   1  -2  208.78   38.00
  12   1   2  130.89   28.30
 -12   1  -2  154.48   36.80
 -13  -1  -2   50.19   32.40
 -13  -1  -2   28.60   34.30
 -13   1  -2  -25.70   28.30
  13   1   2    2.00   20.70
 -13   1  -2   14.00   26.30
 -14  -1  -2    8.70   36.50
 -14  -1  -2   17.90   30.00
 -14   1  -2   17.70   31.00
  14   1   2   47.30   22.60
 -14   1  -2   74.09   34.30
 -15  -1  -2   51.59   31.70
 -15  -1  -2  -31.10   34.90
 -15   1  -2  -42.60   28.40
  15   1   2   71.69   26.60
 -14  -2   2   43.60   34.40
 -14  -2   2   -6.80   34.50
 -14   2   2    2.80   23.90
  14   2  -2   30.50   23.40
 -13  -2   2   15.00   34.30
 -13  -2   2    7.30   31.20
 -13   2   2   77.99   30.50
  13   2  -2   62.69   24.60
 -12  -2   2  136.39   41.90
 -12  -2   2  117.49   50.49
  12  -2  -2  106.19   27.80
  12   2  -2   53.09   25.50
 -12   2   2  116.79   38.90
 -11  -2   2  246.68   46.70
 -11  -2   2  247.28   44.80
  11  -2  -2  233.98   34.50
 -11  -2   2  193.08   27.30
 -11   2   2  231.08   28.00
  11   2  -2  291.17   34.30
 -11   2   2  190.88   33.80
 -10  -2   2   82.89   33.30
 -10  -2   2   33.60   31.70
 -10  -2   2   36.50   15.80
  10  -2  -2   57.89   23.20
  10   2  -2   63.19   22.10
 -10   2   2   62.79   14.10
 -10   2   2   35.30   24.90
  -9  -2   2  248.38   29.80
  -9  -2   2  233.58   41.60
  -9  -2   2  286.07   41.60
   9  -2  -2  282.27   37.80
   9  -2  -2  331.77   46.90
  -9   2   2  340.87   40.50
  -9   2   2  279.07   29.90
   9   2  -2  285.27   35.10
  -8  -2   2  136.49   31.20
  -8  -2   2  177.78   22.50
   8  -2  -2  229.98   33.70
   8  -2  -2  227.98   30.00
  -8  -2   2  261.47   40.60
  -8   2   2  215.58   33.70
   8   2  -2  237.78   29.40
  -8   2   2  202.78   23.50
  -7  -2   2  950.10   85.99
  -7  -2   2 1033.00   84.09
   7  -2  -2  867.21   83.29
   7  -2  -2  919.21   85.29
  -7  -2   2 1075.49   90.29
  -7  -2   2 1130.09   85.19
   7  -2  -2  999.20   82.99
  -7   2   2  953.30   81.89
   7   2  -2  962.40   82.39
   7   2  -2  863.21   85.69
  -7   2   2  998.40   84.69
  -6  -2   2  104.09   13.60
  -6  -2   2   60.19   22.40
   6  -2  -2  167.58   26.50
  -6  -2   2   88.89   19.70
   6  -2  -2  124.59   20.50
  -6  -2   2  113.39   25.90
  -6   2   2   87.69   12.70
  -6   2   2   82.79   17.80
   6   2  -2  108.69   19.60
  -6   2   2   72.19   19.40
   5  -2  -2 1473.15  114.19
   5  -2  -2 1263.87  114.79
  -5  -2   2 1424.16  114.99
   5  -2  -2 1395.76  116.49
  -5  -2   2 1357.66  115.89
  -5   2   2 1571.64  126.59
   5   2  -2 1322.27  116.79
   5   2  -2 1530.15  115.69
   5   2  -2 1537.85  116.19
  -5   2   2 1406.96  113.59
   4  -2  -2  251.47   27.60
  -4  -2   2  291.47   33.80
  -4  -2   2  283.57   29.40
   4  -2  -2  240.08   29.60
  -4   2   2  270.27   31.30
   4   2  -2  233.98   32.70
  -4   2   2  268.17   27.20
   4   2  -2  254.77   28.50
   4   2  -2  233.18   29.20
   3  -2  -2 1324.07  109.39
  -3  -2   2 1459.55  113.89
  -3  -2   2 1457.45  110.89
  -3   2   2 1397.26  109.49
   3   2  -2 1379.76  110.79
   3   2  -2 1324.07  112.39
   3   2  -2 1355.06  110.59
  -2  -2   2  213.98   25.80
  -2  -2   2  230.78   30.60
   2  -2  -2  232.38   22.50
   2  -2  -2  200.98   26.30
   2   2  -2  231.28   25.50
  -2   2   2  213.08   20.40
  -2   2   2  205.98   22.00
  -1  -2   2 1773.22  136.69
   1  -2  -2 1709.13  138.29
   1  -2  -2 1774.12  135.39
  -1  -2   2 1779.62  138.79
   1   2  -2 1704.93  136.69
  -1   2   2 1694.13  135.29
  -1   2   2 1762.52  135.59
   0  -2   2  217.18   25.10
   0  -2  -2  166.48   18.50
   0  -2   2  241.08   21.70
   0  -2   2  207.58   26.50
   0   2  -2  178.88   21.30
   0   2  -2  187.28   18.50
   0   2   2  216.88   21.40
  -1  -2  -2 3190.78  247.08
   1  -2   2 3006.30  245.48
   1  -2   2 3188.18  243.78
  -1  -2  -2 3131.39  243.48
  -1   2  -2 3218.68  243.68
  -1   2  -2 3151.68  243.28
   1   2   2 3195.58  244.28
  -2  -2  -2  190.08   21.50
   2  -2   2  149.79   22.90
  -2  -2  -2  256.37   28.60
   2   2   2  130.19   20.30
  -2   2  -2  203.48   20.70
  -2   2  -2  213.48   20.60
   3  -2   2 3006.60  244.08
  -3  -2  -2 3086.19  245.78
  -3  -2  -2 3135.89  242.88
   3   2   2 3122.89  243.18
  -3   2  -2 3150.58  241.88
  -3   2  -2 3202.88  242.48
  -3   2  -2 3181.98  244.58
   4  -2   2    0.00   11.90
  -4  -2  -2    4.20   17.30
  -4  -2  -2   17.50   10.90
  -4  -2  -2  -11.60   10.00
  -4   2  -2   10.80   10.60
   4   2   2   -0.20   11.30
  -4   2  -2  -15.20   12.20
  -4   2  -2    1.50   10.30
   5  -2   2 1033.00   86.09
  -5  -2  -2  995.00   88.29
  -5  -2  -2 1075.99   85.29
   5  -2   2  962.10   86.79
  -5  -2  -2 1094.49   90.59
  -5  -2  -2 1048.50   85.79
  -5   2  -2  978.80   84.59
   5   2   2 1050.09   85.49
  -5   2  -2 1072.99   84.09
  -5   2  -2 1063.39   87.99
   5   2   2 1002.70   88.09
  -6  -2  -2  196.58   32.30
  -6  -2  -2  231.88   33.50
  -6  -2  -2  231.88   29.90
   6  -2   2  232.68   31.00
   6  -2   2  204.68   29.50
  -6  -2  -2  225.88   27.60
  -6  -2  -2  233.78   23.40
  -6   2  -2  241.68   28.40
  -6   2  -2  205.68   23.30
  -6   2  -2  286.67   34.20
  -6   2  -2  229.88   27.70
   6   2   2  259.37   29.40
   6   2   2  275.97   34.20
   7  -2   2  531.75   57.69
  -7  -2  -2  652.43   65.29
  -7  -2  -2  642.24   57.09
  -7  -2  -2  743.53   69.79
  -7  -2  -2  577.84   61.29
   7  -2   2  578.74   55.99
  -7  -2  -2  643.34   51.29
  -7   2  -2  553.34   54.29
  -7   2  -2  589.84   50.39
   7   2   2  634.24   56.39
   7   2   2  587.34   60.39
  -7   2  -2  598.94   59.19
  -8  -2  -2   34.40   12.90
  -8  -2  -2   34.10   26.40
  -8  -2  -2   48.90   28.50
   8  -2   2   13.10   16.00
  -8   2  -2   47.80   22.50
   8   2   2   45.20   18.60
  -8   2  -2   37.90   10.60
  -9  -2  -2  369.66   50.99
  -9  -2  -2  551.14   62.09
  -9  -2  -2  433.26   41.10
   9  -2   2  482.65   48.60
  -9   2  -2  461.75   53.19
  -9   2  -2  407.06   38.30
   9   2   2  399.26   46.60
 -10  -2  -2   23.30   33.20
  10  -2   2   -5.30   19.80
 -10  -2  -2   14.50   32.20
 -10   2  -2   26.10   10.90
  10   2   2   46.40   22.90
 -10   2  -2   24.80   24.00
 -11  -2  -2  273.87   46.60
 -11  -2  -2  161.38   27.00
 -11  -2  -2  168.68   43.70
 -11   2  -2  151.58   20.60
  11   2   2  233.88   33.10
 -11   2  -2  214.88   42.30
 -12  -2  -2   -4.40   34.20
 -12  -2  -2   -2.20   46.60
 -12   2  -2    9.40   32.30
  12   2   2  -17.50   20.40
 -13  -2  -2    4.10   35.40
 -13  -2  -2   83.89   36.30
  13   2   2   51.29   25.70
 -13   2  -2   36.10   28.70
 -14  -2  -2  -24.40   41.20
 -14  -2  -2   36.50   37.00
 -14   2  -2   20.70   33.40
  14   2   2  -10.10   24.30
 -13  -3   2   59.09   38.70
 -13  -3   2   32.90   38.00
 -13   3   2   61.69   23.90
 -13   3   2    2.50   27.80
  13   3  -2   23.10   28.90
 -12  -3   2   14.70   33.30
 -12  -3   2  100.69   42.10
 -12   3   2   85.59   22.10
  12   3  -2   21.70   27.30
 -12   3   2   45.30   31.10
 -11  -3   2   87.39   41.70
 -11  -3   2   42.20   32.70
 -11   3   2   20.20   13.80
  11   3  -2   44.60   26.60
 -11   3   2   12.80   23.60
 -11   3   2   32.60   20.60
 -10  -3   2   95.99   40.60
 -10  -3   2   92.09   37.60
  10  -3  -2   42.40   25.40
 -10   3   2   99.49   30.70
  10   3  -2  110.39   31.80
 -10   3   2   76.69   13.80
 -10   3   2   80.59   18.70
  -9  -3   2   32.10   33.20
  -9  -3   2   51.69   36.90
   9  -3  -2   57.39   23.90
  -9   3   2   74.89   27.00
   9   3  -2   68.39   23.20
   8  -3  -2  306.07   41.10
  -8  -3   2  423.06   56.59
  -8  -3   2  326.87   49.80
   8   3  -2  317.37   40.60
  -8   3   2  314.37   44.50
  -7  -3   2  329.87   47.00
  -7  -3   2  206.08   36.30
   7  -3  -2  252.37   33.50
   7   3  -2  241.18   34.90
  -7   3   2  229.78   36.50
  -6  -3   2  773.42   79.59
  -6  -3   2  743.73   69.89
   6  -3  -2  635.34   73.69
   6  -3  -2  780.32   67.49
  -6   3   2  754.22   66.79
   6   3  -2  849.52   69.99
  -5  -3   2  160.58   26.20
   5  -3  -2  153.18   23.40
  -5  -3   2  158.78   32.00
  -5   3   2  135.29   22.10
   5   3  -2  150.08   24.80
  -4  -3   2  783.72   70.79
   4  -3  -2  662.33   59.69
  -4  -3   2  676.53   62.29
   4   3  -2  668.33   61.99
  -4   3   2  663.83   59.39
   3  -3  -2   76.39   15.80
   3  -3  -2   69.49   18.30
  -3  -3   2   86.99   19.30
  -3  -3   2   66.29   24.50
  -3   3   2   55.49   14.30
   3   3  -2   78.19   18.50
   3   3  -2   72.19   17.70
  -3   3   2   60.89   12.80
   2  -3  -2 1017.00   95.49
   2  -3  -2 1125.69   91.09
  -2  -3   2 1178.98   99.49
  -2  -3   2 1042.30   93.09
  -2   3   2 1203.98   93.79
  -2   3   2 1188.58   91.39
   2   3  -2 1229.18   93.79
   2   3  -2 1127.29   94.39
  -1  -3   2   63.29   15.60
   1  -3  -2   49.70   16.60
  -1  -3   2   76.69   24.20
  -1   3   2   50.69   14.10
   1   3  -2  108.59   20.30
   1   3  -2   65.19   15.40
   0  -3   2  580.44   65.99
   0  -3  -2  718.73   68.89
   0  -3   2  690.63   60.29
   0   3   2  772.12   60.89
   0   3  -2  761.22   60.59
   1  -3   2   34.10   12.80
   1  -3   2   33.10   17.70
  -1  -3  -2    6.30   20.70
   1  -3   2   24.60   19.30
  -1  -3  -2   34.20   12.40
   1   3   2   26.80   14.00
  -1   3  -2   28.50   11.90
  -2  -3  -2  766.72   69.89
   2  -3   2  701.63   65.39
   2  -3   2  662.33   62.99
  -2  -3  -2  687.93   59.39
   2   3   2  685.73   60.89
  -2   3  -2  734.03   57.99
  -2   3  -2  649.43   57.89
  -3  -3  -2   20.30   14.40
   3  -3   2   57.69   19.20
  -3  -3  -2   25.90   22.10
   3   3   2   61.59   18.70
  -3   3  -2   50.69   11.50
  -3   3  -2   38.40   13.20
  -4  -3  -2  626.44   65.29
  -4  -3  -2  675.23   54.89
  -4   3  -2  600.34   49.99
  -4   3  -2  554.64   52.39
   4   3   2  481.95   54.09
  -5  -3  -2   26.90   28.90
  -5  -3  -2   32.30   19.50
   5   3   2   37.30   18.00
  -5   3  -2   28.30   16.30
  -5   3  -2   41.10   12.70
  -6  -3  -2  509.65   62.79
  -6  -3  -2  459.05   56.99
   6  -3   2  464.05   50.59
  -6  -3  -2  459.55   50.19
   6   3   2  595.84   51.59
  -6   3  -2  535.15   45.70
  -6   3  -2  437.66   48.00
  -6   3  -2  515.65   55.39
  -7  -3  -2   -8.20   24.80
  -7  -3  -2   16.40   29.20
  -7   3  -2   20.80   21.80
  -7   3  -2   21.20   15.90
   7   3   2   18.70   20.30
  -7   3  -2   26.50   10.10
  -8  -3  -2  196.58   40.00
  -8  -3  -2  231.58   47.00
   8  -3   2  207.18   34.00
   8   3   2  215.48   34.50
  -8   3  -2  262.07   37.60
  -8   3  -2  220.18   29.00
  -9  -3  -2  -17.80   31.10
  -9  -3  -2   18.40   37.20
  -9   3  -2  -15.60   29.50
  -9   3  -2   -6.10   23.40
   9   3   2   -4.60   21.70
 -10  -3  -2   83.29   41.50
 -10  -3  -2   27.70   33.40
 -10   3  -2  109.29   24.60
  10   3   2   99.09   28.00
 -10   3  -2   60.19   28.60
 -11  -3  -2   39.90   39.20
 -11  -3  -2   -6.60   35.40
 -11   3  -2   18.30   22.20
  11   3   2    4.80   27.00
 -11   3  -2   19.30   26.60
 -12  -3  -2   40.80   46.90
 -12  -3  -2   55.99   42.50
 -12   3  -2   71.09   37.40
  12   3   2   71.59   28.00
 -12   3  -2  121.59   29.10
 -10  -4   2   14.80   34.40
 -10  -4   2    0.30   46.20
  10   4  -2  -18.10   28.60
  -9  -4   2  108.29   44.00
  -9  -4   2  108.89   44.80
   9   4  -2   69.19   30.70
  -8  -4   2   55.49   44.70
  -8  -4   2   51.89   32.30
   8   4  -2   32.80   26.90
  -7  -4   2  201.18   44.80
  -7  -4   2   86.69   54.49
   7   4  -2  233.38   37.70
  -6  -4   2   83.59   41.50
   6   4  -2   11.40   24.30
  -5  -4   2  228.18   46.60
  -5   4   2  198.58   29.80
   5   4  -2  220.48   35.60
  -4  -4   2   43.80   33.60
  -4  -4   2   48.40   23.80
   4   4  -2   45.80   26.40
  -4   4   2   62.19   20.10
  -4   4   2   67.99   13.70
  -3  -4   2  288.27   44.40
  -3   4   2  238.18   29.00
  -3   4   2  219.58   28.40
   3   4  -2  279.57   35.80
   2  -4  -2   62.89   32.70
  -2  -4   2   81.79   33.40
  -2  -4   2  120.49   22.10
   2   4  -2   46.20   23.80
   1  -4  -2  405.36   55.29
  -1  -4   2  489.55   61.69
  -1  -4   2  548.65   47.70
  -1   4   2  429.36   46.00
   1   4  -2  438.66   48.70
   0  -4   2  115.49   20.30
   0  -4  -2   94.09   32.90
   0  -4   2   62.99   30.20
   0   4   2  178.18   24.90
   0   4  -2  121.69   24.50
   1  -4   2  336.77   48.20
  -1  -4  -2  458.35   56.29
   1   4   2  413.56   43.50
  -1   4  -2  381.06   37.10
  -1   4  -2  405.96   42.90
  -2  -4  -2   50.39   18.70
  -2  -4  -2   17.70   33.80
   2  -4   2   53.79   27.20
   2   4   2   51.99   21.70
  -2   4  -2   41.90   18.10
  -3  -4  -2  131.69   26.20
  -3  -4  -2  174.48   42.00
   3  -4   2  234.08   38.30
   3   4   2  176.28   30.60
  -3   4  -2  144.89   22.90
  -4  -4  -2  104.29   37.10
   4  -4   2  118.09   31.60
   4   4   2  111.79   26.50
  -4   4  -2   70.39   21.30
  -5  -4  -2   83.99   37.50
  -5   4  -2   44.10   21.10
   5   4   2  105.99   26.20
  -6  -4  -2   63.59   41.40
   6   4   2  114.29   29.40
  -7  -4  -2   26.80   36.40
  -7  -4  -2   49.99   34.70
   7   4   2   75.09   28.50
  -8  -4  -2   35.00   36.50
  -8  -4  -2   26.00   38.50
   8   4   2    7.00   26.50
  -9  -4  -2   39.30   41.40
  -9  -4  -2   70.79   39.40
   9   4   2   45.70   31.00
 -10  -4  -2   19.30   41.00
 -10  -4  -2    9.00   38.70
  10   4   2   51.19   32.80
  -6  -5   2   80.79   47.60
   6   5  -2   -1.50   29.00
  -5  -5   2    1.00   42.50
   5  -5  -2   -4.10   39.20
   5   5  -2    8.10   29.00
  -4  -5   2   30.90   42.20
   4  -5  -2  126.49   45.80
   4   5  -2   52.59   31.90
  -3  -5   2   39.40   44.70
   3  -5  -2   77.49   39.80
  -3   5   2   46.80   16.40
   3   5  -2   52.19   29.70
  -2  -5   2  108.19   44.80
   2  -5  -2   60.59   39.00
  -2   5   2   55.49   20.90
   2   5  -2   79.19   29.10
   1  -5  -2   21.60   37.60
  -1  -5   2   82.29   41.20
   1   5  -2  106.29   28.90
  -1   5   2   57.99   22.40
   0  -5   2   91.49   39.90
   0  -5  -2   23.60   37.10
   0   5  -2   68.39   26.50
   0   5   2   64.69   22.90
  -1  -5  -2   48.10   44.40
   1  -5   2  100.69   51.79
  -1   5  -2   44.60   25.30
   1   5   2   57.69   25.50
  -2  -5  -2   17.00   41.60
   2   5   2   34.20   25.00
  -2   5  -2   64.39   23.40
  -3  -5  -2   76.79   45.20
  -3   5  -2   83.59   23.90
   3   5   2   36.80   29.10
  -4  -5  -2  147.09   51.99
  -4   5  -2   40.80   20.00
   4   5   2   66.49   31.30
   5  -5   2   60.99   44.50
  -5  -5  -2   24.40   44.40
   5   5   2   80.29   31.50
  -5   5  -2   29.70   18.10
  -6  -5  -2  -27.60   46.80
   6  -5   2   11.30   34.90
  -6   5  -2    9.10   14.30
   6   5   2   31.70   33.40
 -15   0   3  -27.50   32.60
  15   0  -3    3.60   18.10
 -15   0   3  -28.60   26.90
  14   0  -3    8.40   22.50
  14   0  -3   27.80   18.20
 -14   0   3   26.80   28.40
 -14   0   3  -26.50   32.80
  13   0  -3   37.90   23.00
  13   0  -3  -12.90   15.10
 -13   0   3  -40.70   29.50
 -13   0   3   32.50   26.20
  12   0  -3   12.40   15.40
 -12   0   3  -31.40   20.80
 -12   0   3   43.70   31.40
  12   0  -3   -4.50   20.10
  11   0  -3  -17.40   12.80
  11   0  -3    5.80   18.90
 -11   0   3  -26.30   20.50
 -11   0   3   10.30   28.10
 -10   0   3  -12.80   17.20
  10   0  -3    7.00   14.10
 -10   0   3   18.80   22.30
  10   0  -3   12.50   13.10
 -10   0   3  -30.50   23.00
  -9   0   3    7.30   13.50
  -9   0   3   11.50   21.00
  -9   0   3  -16.50   10.40
   9   0  -3   -4.60   13.60
   9   0  -3    2.90   14.90
  -9   0   3   11.30   17.50
   9   0  -3  -16.20   17.50
   9   0  -3    3.80   11.50
  -8   0   3   -8.30   10.10
  -8   0   3  -18.40   10.30
   8   0  -3    0.60   17.30
   8   0  -3  -20.70   13.20
   8   0  -3   -4.20   10.20
  -8   0   3   30.60   21.40
  -8   0   3    0.40   21.10
   7   0  -3   -4.60   10.40
  -7   0   3    8.80   10.20
  -7   0   3   18.10   18.80
  -7   0   3    7.70   13.70
   7   0  -3  -11.00   14.20
  -7   0   3    2.10   10.60
   7   0  -3   -9.20   15.30
   7   0  -3   10.20    9.40
   6   0  -3   -7.20   13.30
  -6   0   3   11.70   10.50
  -6   0   3    9.60   12.40
   6   0  -3    3.80   10.50
   6   0  -3    0.50    7.90
  -6   0   3   12.90    9.70
  -6   0   3    1.30   15.60
   6   0  -3   -7.80   11.80
  -5   0   3  -16.10    9.50
   5   0  -3    6.40    9.70
  -5   0   3   19.30   12.80
  -5   0   3   -9.10   13.70
   5   0  -3    6.70    7.80
   5   0  -3    5.20    9.50
   5   0  -3    0.20   13.30
   5   0  -3    7.90   13.00
  -5   0   3   -4.50    7.80
  -4   0   3   -3.70    7.40
   4   0  -3    1.50    6.70
   4   0  -3    0.60    8.50
  -4   0   3    2.80   10.00
   4   0  -3    7.00    8.70
  -4   0   3    3.60    8.30
  -4   0   3   10.10   14.20
   4   0  -3    0.70   11.00
   4   0  -3   -6.60   11.10
   3   0  -3    6.30    8.80
   3   0  -3   -1.90   10.10
  -3   0   3    2.90    7.70
  -3   0   3    6.70    8.10
   3   0  -3  -10.60    6.90
   3   0  -3   -4.50    8.70
  -3   0   3    2.80   12.00
  -3   0   3    2.10    8.50
   2   0  -3   25.90   11.00
   2   0  -3   11.60    7.50
  -2   0   3   -2.60    7.60
  -2   0   3   18.10    6.60
   2   0  -3    5.40    7.20
  -2   0   3   11.90    7.10
  -2   0   3   26.50   11.40
   2   0  -3    5.30    8.00
  -1   0   3    4.80    5.00
   1   0  -3    7.10    6.10
  -1   0   3   -0.10    7.80
  -1   0   3    1.90    5.70
   1   0  -3    7.60    6.80
   1   0  -3    3.00    7.90
   0   0   3    1.80    6.20
   0   0  -3    3.10    6.00
   0   0  -3    3.80    4.70
   1   0   3    5.70    8.10
  -1   0  -3    1.90    6.60
  -1   0  -3   -5.90    8.50
   2   0   3   -6.80    9.90
   2   0   3   -4.70    5.50
  -2   0  -3    0.20   10.20
  -2   0  -3    4.60    6.50
   2   0   3    6.70    8.20
  -2   0  -3    7.90    7.40
   3   0   3    3.20    7.90
  -3   0  -3   19.90   13.80
   3   0   3   11.20   13.20
  -3   0  -3   -5.40    8.30
  -3   0  -3   -5.30    7.80
   3   0   3    7.40    8.80
  -4   0  -3   13.20   10.40
  -4   0  -3   -5.50    8.10
  -4   0  -3    7.80   13.80
   4   0   3   -1.40    9.00
   4   0   3   12.50    9.50
   5   0   3    3.50   10.60
  -5   0  -3   10.50   14.50
   5   0   3   28.40   15.00
  -5   0  -3   -0.50    9.30
  -5   0  -3    3.20    8.80
  -5   0  -3   10.70   12.00
   5   0   3   -7.20    9.50
   6   0   3   -8.80   14.70
   6   0   3   -9.40   11.00
  -6   0  -3   -2.00    9.10
  -6   0  -3    1.20   16.00
  -6   0  -3    7.10   13.30
  -6   0  -3    2.40   10.00
   6   0   3   -6.80   10.50
   7   0   3    9.60   12.30
  -7   0  -3   -3.20   10.10
   7   0   3   -1.30   14.70
  -7   0  -3   19.30   16.10
  -7   0  -3  -17.00    9.50
   7   0   3    6.90   11.30
   8   0   3   12.10   15.10
  -8   0  -3    0.30   18.40
   8   0   3   -4.90   15.90
  -8   0  -3   13.70   20.50
   8   0   3   -4.70   19.80
  -8   0  -3    6.10   21.50
  -8   0  -3    0.40   11.30
  -9   0  -3   12.80   14.90
   9   0   3   -7.80   14.10
  -9   0  -3    9.60   22.30
   9   0   3  -13.20   16.20
  -9   0  -3    9.80   21.20
  -9   0  -3   15.90   24.60
 -10   0  -3   -8.30   23.50
  10   0   3   19.20   17.80
 -10   0  -3    1.20   22.50
 -10   0  -3   -1.80   14.50
  10   0   3  -24.80   18.60
 -11   0  -3   15.40   25.70
 -11   0  -3  -22.70   26.00
  11   0   3  -16.20   16.10
 -12   0  -3   33.60   26.00
 -12   0  -3  -19.90   25.70
  12   0   3   12.30   20.20
  13   0   3    6.20   20.30
 -13   0  -3   23.70   32.40
 -13   0  -3  -15.50   28.40
  14   0   3   -8.80   21.70
 -14   0  -3   44.20   34.90
 -14   0  -3   54.69   35.90
 -15   0  -3  -35.80   32.90
 -15   0  -3  -49.10   30.80
 -15  -1   3  -26.10   36.00
 -15  -1   3   -7.40   32.00
  15   1  -3   17.30   21.10
 -15   1   3  -10.70   22.80
  14  -1  -3   26.40   25.90
 -14  -1   3  -17.60   37.50
 -14  -1   3   25.90   32.60
 -14   1   3   -9.20   33.50
  14   1  -3   16.90   19.80
 -14   1   3   12.80   25.40
 -13  -1   3   -2.00   26.80
  13  -1  -3   45.60   27.30
 -13  -1   3  -62.49   41.90
  13   1  -3  -10.20   16.70
 -13   1   3    6.10   32.30
 -13   1   3    3.00   46.30
 -12  -1   3   50.09   32.50
  12  -1  -3   23.40   20.10
 -12  -1   3   -6.70   24.80
 -12   1   3   29.50   30.50
  12   1  -3   15.50   17.60
 -12   1   3   -9.00   21.40
  12   1  -3   -3.50   18.70
 -11  -1   3   83.99   27.50
 -11  -1   3   85.19   32.30
  11  -1  -3   44.40   20.40
  11  -1  -3   51.09   15.30
  11   1  -3   44.80   19.90
 -11   1   3    9.30   28.80
 -11   1   3   61.59   25.40
  11   1  -3   45.10   18.60
  10  -1  -3  256.97   26.80
 -10  -1   3  270.97   42.90
 -10  -1   3  187.88   28.50
  10  -1  -3  238.98   32.50
 -10  -1   3  260.07   39.60
 -10   1   3  308.77   40.00
  10   1  -3  176.68   28.30
  10   1  -3  260.97   31.40
 -10   1   3  214.58   39.40
 -10   1   3  228.98   29.60
  -9  -1   3  325.27   40.70
   9  -1  -3  263.67   33.70
  -9  -1   3  261.37   30.90
  -9  -1   3  225.68   42.70
   9  -1  -3  277.17   38.20
   9  -1  -3  246.18   28.20
  -9  -1   3  296.77   39.20
   9  -1  -3  220.78   32.70
   9   1  -3  290.07   32.30
   9   1  -3  394.16   50.39
  -9   1   3  403.06   42.20
  -9   1   3  262.87   31.00
  -9   1   3  346.37   44.20
   9   1  -3  299.87   33.50
  -8  -1   3  110.09   26.60
   8  -1  -3  123.19   25.40
  -8  -1   3  143.69   19.00
  -8  -1   3  142.59   28.50
   8  -1  -3  105.69   23.90
   8  -1  -3   93.39   19.20
  -8  -1   3  115.29   22.00
  -8   1   3  170.08   26.20
  -8   1   3  135.29   28.80
  -8   1   3  119.49   18.50
   8   1  -3   93.89   23.00
   8   1  -3  125.49   19.80
  -8   1   3  146.49   22.70
   8   1  -3  125.69   20.50
   7  -1  -3  306.07   34.90
  -7  -1   3  262.97   27.80
   7  -1  -3  297.07   32.10
  -7  -1   3  280.47   31.90
  -7  -1   3  269.37   34.20
  -7   1   3  264.27   29.20
  -7   1   3  265.97   33.20
  -7   1   3  285.47   28.40
   7   1  -3  265.57   29.20
   7   1  -3  287.87   30.10
  -7   1   3  304.77   37.80
   7   1  -3  259.47   35.60
  -6  -1   3   94.79   22.50
  -6  -1   3   94.49   19.30
  -6  -1   3   84.99   16.60
  -6  -1   3   72.09   13.10
   6  -1  -3  125.59   17.90
   6  -1  -3  119.29   21.40
   6  -1  -3  114.69   16.30
   6   1  -3  110.79   15.40
   6   1  -3  114.89   15.20
  -6   1   3   80.89   15.10
   6   1  -3   55.99   15.70
  -6   1   3   60.39   15.90
   6   1  -3  148.99   22.90
  -6   1   3   69.69   14.10
  -5  -1   3    8.30    9.80
  -5  -1   3   11.10   14.80
  -5  -1   3   11.50    7.80
   5  -1  -3    6.10   11.10
   5  -1  -3   12.70   10.80
  -5  -1   3   11.40   15.70
   5  -1  -3   30.00   14.60
   5   1  -3   12.60    9.00
  -5   1   3   11.60    8.40
  -5   1   3   -5.10   10.30
   5   1  -3    8.90    9.80
   5   1  -3   25.80   10.20
   5   1  -3    6.10   12.50
  -5   1   3    0.00   10.10
  -4  -1   3  242.98   29.10
  -4  -1   3  229.58   24.80
  -4  -1   3  265.57   27.70
   4  -1  -3  335.27   31.20
  -4  -1   3  278.47   32.70
   4  -1  -3  297.57   27.70
   4  -1  -3  285.37   26.70
   4   1  -3  285.27   28.20
   4   1  -3  289.67   31.10
  -4   1   3  222.08   27.30
   4   1  -3  290.97   24.80
  -4   1   3  250.57   24.30
  -4   1   3  251.07   26.30
   4   1  -3  303.67   26.90
   3  -1  -3  103.99   15.20
  -3  -1   3  217.98   23.00
   3  -1  -3  123.29   19.80
  -3  -1   3  158.08   19.10
  -3  -1   3  142.59   15.70
   3  -1  -3  127.39   17.10
   3   1  -3  139.99   20.40
  -3   1   3  170.08   19.10
  -3   1   3  147.19   14.30
   3   1  -3  117.99   15.40
  -3   1   3  139.89   16.00
   3   1  -3  137.09   17.70
   2  -1  -3  397.46   34.40
   2  -1  -3  404.36   35.60
  -2  -1   3  395.36   33.00
  -2  -1   3  432.56   37.40
  -2  -1   3  420.76   35.60
   2   1  -3  381.16   35.60
  -2   1   3  399.16   34.50
   2   1  -3  396.06   36.80
   2   1  -3  392.46   33.10
   1  -1  -3  139.89   14.10
   1  -1  -3  148.59   16.10
  -1  -1   3  164.28   18.00
  -1  -1   3  141.19   19.30
  -1   1   3  151.78   14.00
   1   1  -3  136.89   18.20
  -1   1   3  155.78   16.40
   1   1  -3  128.29   17.90
   0  -1   3  204.48   21.40
   0  -1  -3  264.27   20.10
   0  -1  -3  235.28   20.00
   0  -1   3  197.48   21.30
   0  -1   3  190.08   21.50
   0   1  -3  237.08   22.20
   0   1   3  200.38   20.20
   0   1   3  197.78   20.00
   1  -1   3  499.75   42.40
   1  -1   3  516.05   42.30
  -1  -1  -3  486.25   41.50
  -1  -1  -3  516.45   40.90
   1   1   3  525.45   41.80
  -1   1  -3  481.75   42.40
  -1   1  -3  514.05   42.60
  -2  -1  -3  322.07   30.80
  -2  -1  -3  273.87   26.50
   2  -1   3  262.47   27.60
  -2   1  -3  337.47   28.60
  -2   1  -3  299.67   27.50
   2   1   3  272.97   27.00
   3  -1   3  293.27   27.60
  -3  -1  -3  364.26   31.90
   3  -1   3  304.27   29.90
  -3  -1  -3  302.57   32.20
  -3  -1  -3  300.27   28.30
   3   1   3  265.77   28.50
  -3   1  -3  350.16   31.00
  -3   1  -3  328.57   29.50
  -3   1  -3  300.77   31.20
   3   1   3  257.87   33.10
  -4  -1  -3  188.58   24.20
  -4  -1  -3  238.28   29.70
   4  -1   3  311.17   27.40
  -4  -1  -3  234.88   27.70
  -4  -1  -3  204.78   22.80
   4  -1   3  277.97   24.60
   4   1   3  314.87   26.00
  -4   1  -3  214.08   24.80
  -4   1  -3  220.78   23.70
   4   1   3  259.47   28.10
  -4   1  -3  213.68   27.50
   5  -1   3  129.59   20.50
  -5  -1  -3   89.99   21.60
   5  -1   3  105.99   15.70
  -5  -1  -3  104.39   20.40
  -5  -1  -3  116.29   16.80
   5   1   3  129.39   17.70
  -5   1  -3  108.49   16.80
  -5   1  -3  118.49   16.40
   5   1   3  137.89   20.30
  -5   1  -3   87.79   19.20
  -6  -1  -3   93.09   22.40
  -6  -1  -3  120.29   17.90
  -6  -1  -3  120.19   24.20
   6  -1   3  151.38   21.60
  -6  -1  -3   96.09   15.70
   6  -1   3  140.79   20.40
   6   1   3  125.09   17.50
  -6   1  -3  103.79   19.90
  -6   1  -3  113.49   18.60
  -6   1  -3  101.49   21.10
   6   1   3  130.89   20.80
  -6   1  -3  100.89   15.30
  -7  -1  -3  -16.40   18.60
  -7  -1  -3    2.60   20.30
   7  -1   3    9.60   14.10
  -7  -1  -3  -12.70   10.40
  -7  -1  -3   -0.50   10.90
   7  -1   3    8.80   12.80
  -7   1  -3  -11.70   15.20
  -7   1  -3    4.30    9.30
  -7   1  -3    4.50   10.90
  -7   1  -3   -7.90   16.70
   7   1   3    3.40   11.90
   7   1   3    4.30   14.40
   8  -1   3  172.78   26.90
  -8  -1  -3  133.49   30.30
   8  -1   3  175.68   25.30
  -8  -1  -3  141.59   21.90
  -8  -1  -3  206.08   33.80
  -8  -1  -3  132.59   20.70
  -8  -1  -3  167.88   23.50
  -8   1  -3  190.88   29.70
  -8   1  -3  103.99   19.70
  -8   1  -3  163.88   29.40
  -8   1  -3  193.18   21.20
   8   1   3  139.59   22.70
   8   1   3  206.18   31.40
  -9  -1  -3   73.49   20.70
  -9  -1  -3   61.59   27.00
  -9  -1  -3  114.69   27.80
   9  -1   3   81.19   21.00
   9   1   3   70.69   23.30
  -9   1  -3   81.89   26.40
   9   1   3   66.79   18.80
  -9   1  -3   58.29   25.90
  -9   1  -3   69.69   14.30
  10  -1   3  -21.20   21.60
 -10  -1  -3   -9.70   23.50
 -10  -1  -3  -28.50   26.10
 -10  -1  -3   18.50   27.10
 -10   1  -3  -17.50   23.20
 -10   1  -3    9.40   23.60
  10   1   3  -24.20   16.90
 -11  -1  -3   74.59   28.50
 -11  -1  -3   77.89   32.10
  11  -1   3   76.19   24.90
 -11   1  -3   34.30   14.30
 -11   1  -3   64.09   34.10
  11   1   3   18.50   19.90
 -11   1  -3   86.49   30.90
 -12  -1  -3   28.30   28.20
 -12  -1  -3   40.40   30.90
 -12   1  -3   -1.00   27.70
  12   1   3    6.10   20.60
 -12   1  -3  -19.90   29.60
 -13  -1  -3   14.10   31.20
 -13  -1  -3   30.40   31.40
 -13   1  -3   11.00   27.10
 -13   1  -3  -11.70   27.10
 -14  -1  -3   33.90   35.70
 -14  -1  -3   -4.20   30.30
 -14   1  -3   25.50   27.80
  14   1   3   45.40   24.10
 -15  -1  -3    4.70   31.50
 -15  -1  -3  -28.70   36.20
 -15   1  -3   -9.60   35.30
  15   1   3   -4.50   22.90
 -14  -2   3   60.99   35.80
 -14  -2   3   -4.50   35.70
  14   2  -3   -8.40   20.80
 -14   2   3   38.60   24.60
 -13  -2   3  175.68   37.80
  13  -2  -3   83.69   31.60
 -13  -2   3   58.19   35.20
  13   2  -3   50.49   25.60
 -13   2   3   75.19   29.70
 -12  -2   3   11.60   33.50
 -12  -2   3   58.09   32.40
  12  -2  -3   33.40   24.10
  12   2  -3   14.90   21.00
 -12   2   3   61.09   50.09
 -11  -2   3   38.80   17.70
 -11  -2   3   53.09   33.20
  11  -2  -3   55.49   22.90
 -11  -2   3   79.79   32.60
 -11   2   3   56.99   15.20
 -11   2   3   57.39   23.50
  11   2  -3   32.60   21.60
  10  -2  -3   84.19   25.10
 -10  -2   3   41.90   34.60
 -10  -2   3   23.10   26.10
 -10  -2   3   46.00   16.00
  10   2  -3   65.19   22.10
 -10   2   3   47.80   13.80
 -10   2   3   35.30   20.50
   9  -2  -3  144.49   24.30
  -9  -2   3  127.49   32.20
  -9  -2   3  114.79   18.80
  -9  -2   3  146.79   35.10
   9   2  -3  126.89   25.50
  -9   2   3  105.09   23.70
  -9   2   3  114.89   17.70
   8  -2  -3  245.18   31.00
   8  -2  -3  191.58   32.40
  -8  -2   3  235.78   39.70
  -8  -2   3  152.98   21.20
  -8  -2   3  173.58   34.90
   8   2  -3  220.78   25.00
  -8   2   3  164.58   21.80
  -8   2   3  137.39   26.00
   8   2  -3  211.88   28.20
  -7  -2   3  277.17   37.30
   7  -2  -3  319.67   37.20
  -7  -2   3  358.86   48.40
  -7  -2   3  274.17   38.60
   7  -2  -3  405.06   38.20
  -7   2   3  295.97   30.30
  -7   2   3  315.37   38.50
   7   2  -3  398.96   37.30
   7   2  -3  340.17   42.20
  -7   2   3  306.97   35.20
   7   2  -3  384.56   32.50
   6  -2  -3  139.59   23.40
   6  -2  -3  217.18   29.80
  -6  -2   3  185.28   34.50
  -6  -2   3  223.48   34.60
  -6  -2   3  176.98   19.70
  -6  -2   3  135.79   23.50
  -6   2   3  171.68   23.60
   6   2  -3  173.18   19.90
   6   2  -3  158.38   23.10
   6   2  -3  149.09   24.10
  -6   2   3  165.98   18.40
  -6   2   3  191.48   27.50
   5  -2  -3  176.98   25.80
  -5  -2   3  148.69   23.60
   5  -2  -3  151.18   22.30
   5  -2  -3  151.68   21.60
  -5  -2   3  147.69   22.90
   5   2  -3  145.69   22.80
  -5   2   3  176.08   36.40
  -5   2   3  169.48   20.80
   5   2  -3  156.88   26.10
   5   2  -3  183.88   22.50
  -4  -2   3  103.29   18.60
   4  -2  -3  117.19   17.40
  -4  -2   3  132.59   23.90
   4  -2  -3  128.69   21.30
   4   2  -3  121.09   20.00
  -4   2   3  108.19   17.00
  -4   2   3  121.59   20.80
   4   2  -3  144.29   23.40
   4   2  -3  130.09   19.40
   3  -2  -3  284.97   30.60
  -3  -2   3  291.37   30.10
   3  -2  -3  268.47   27.60
  -3  -2   3  287.87   34.60
   3   2  -3  265.47   30.90
  -3   2   3  286.17   27.50
   3   2  -3  248.88   32.20
   2  -2  -3  326.87   28.60
  -2  -2   3  290.27   30.70
   2  -2  -3  303.17   32.00
  -2  -2   3  340.67   35.30
   2   2  -3  331.67   31.70
   2   2  -3  312.07   32.70
  -2   2   3  278.57   26.40
  -2   2   3  287.67   28.40
   1  -2  -3  179.28   17.50
  -1  -2   3  188.18   22.70
  -1  -2   3  179.28   21.30
   1  -2  -3  133.59   20.70
  -1   2   3  143.29   17.50
   1   2  -3  126.99   18.10
  -1   2   3  136.09   17.20
   0  -2  -3   61.39   10.00
   0  -2   3   76.19   15.10
   0  -2   3  102.09   14.20
   0  -2   3   91.79   16.80
   0   2   3  109.49   13.50
   0   2  -3   84.29   11.50
   0   2   3  121.69   11.90
   0   2  -3   71.59   13.30
   1  -2   3  942.21   75.69
  -1  -2  -3  895.41   80.19
  -1  -2  -3  918.51   74.69
   1  -2   3  937.51   77.39
   1  -2   3  971.70   77.49
   1   2   3  917.81   75.59
  -1   2  -3  974.40   74.89
  -1   2  -3  957.10   75.89
   2  -2   3  733.83   59.19
  -2  -2  -3  678.83   56.49
  -2  -2  -3  664.03   56.99
  -2  -2  -3  719.93   62.39
   2   2   3  739.03   57.49
  -2   2  -3  591.84   58.39
  -2   2  -3  671.63   56.59
  -3  -2  -3  455.65   39.40
   3  -2   3  462.25   42.10
  -3  -2  -3  432.76   45.90
  -3  -2  -3  430.96   39.60
  -3   2  -3  427.16   41.70
  -3   2  -3  453.25   39.20
   3   2   3  417.76   39.80
  -3   2  -3  406.06   38.70
  -4  -2  -3   16.30   11.30
  -4  -2  -3   -5.60   10.80
  -4  -2  -3    4.60   20.40
   4  -2   3    6.80   12.30
  -4   2  -3    2.20   11.80
   4   2   3    3.40   11.70
  -4   2  -3    7.40   14.30
  -4   2  -3    0.70   11.50
  -5  -2  -3   60.89   11.70
   5  -2   3  111.49   20.00
  -5  -2  -3   92.09   16.70
  -5  -2  -3   86.39   17.70
   5  -2   3   98.49   17.40
  -5  -2  -3   76.89   23.30
  -5  -2  -3   64.99   20.50
  -5   2  -3  104.19   22.10
  -5   2  -3   89.69   15.70
   5   2   3   85.69   22.10
  -5   2  -3   69.89   15.90
   5   2   3   88.59   17.80
   6  -2   3  228.68   31.10
  -6  -2  -3  199.78   30.80
  -6  -2  -3  210.08   27.80
   6  -2   3  217.38   27.80
  -6  -2  -3  187.28   23.50
  -6  -2  -3  221.88   33.20
  -6  -2  -3  240.38   27.90
  -6   2  -3  203.58   29.00
  -6   2  -3  151.88   35.10
   6   2   3  199.68   26.90
   6   2   3  195.98   31.40
  -6   2  -3  212.98   23.40
  -6   2  -3  237.78   26.90
  -7  -2  -3  217.48   35.80
  -7  -2  -3  219.18   23.70
   7  -2   3  159.88   26.20
  -7  -2  -3  216.68   29.10
  -7  -2  -3  271.87   38.20
   7   2   3  178.68   27.60
  -7   2  -3  205.88   26.90
   7   2   3  150.48   32.50
  -7   2  -3  209.28   22.80
  -7   2  -3  174.98   31.30
  -7   2  -3  261.47   28.10
  -8  -2  -3   40.90   13.80
   8  -2   3   63.29   18.00
  -8  -2  -3   67.59   29.30
  -8  -2  -3   51.49   29.40
  -8   2  -3   37.80   11.80
   8   2   3   48.40   19.40
  -8   2  -3  103.19   24.10
  -9  -2  -3   70.59   31.20
   9  -2   3   77.69   22.20
  -9  -2  -3   84.19   17.50
  -9  -2  -3   94.99   34.70
  -9   2  -3   70.49   25.30
  -9   2  -3   70.49   15.10
   9   2   3   97.39   23.40
 -10  -2  -3    0.30   15.30
 -10  -2  -3   26.60   31.10
  10  -2   3   49.20   23.20
 -10  -2  -3    6.70   33.80
  10   2   3   31.00   21.30
 -10   2  -3   46.10   26.80
 -10   2  -3   30.00   12.00
 -11  -2  -3  119.89   38.40
 -11  -2  -3   30.80   37.10
  11   2   3   43.50   23.80
 -11   2  -3   43.30   28.00
 -12  -2  -3   69.79   38.20
 -12  -2  -3   14.30   41.00
 -12   2  -3  -19.10   12.20
 -12   2  -3    3.00   23.90
  12   2   3   24.50   23.40
 -13  -2  -3   -2.90   35.50
 -13  -2  -3   45.30   38.50
  13   2   3   10.50   24.10
 -13   2  -3  -17.50   32.80
 -14  -2  -3  -62.49   36.80
 -14  -2  -3   51.59   38.50
  14   2   3   19.90   24.80
 -14   2  -3    6.50   28.90
 -13  -3   3   18.80   38.50
 -13  -3   3   28.40   38.40
 -13   3   3   56.09   32.30
 -13   3   3  -12.70   18.90
  13   3  -3   -0.70   26.10
 -12  -3   3   30.80   37.00
 -12  -3   3   -0.90   36.30
  12   3  -3   73.39   28.70
 -12   3   3   39.00   20.70
 -12   3   3   16.20   27.50
 -11  -3   3   10.10   34.90
  11  -3  -3   33.10   26.20
 -11  -3   3   23.90   33.90
 -11   3   3   16.40   16.10
 -11   3   3    9.30   12.70
  11   3  -3   50.19   25.30
 -11   3   3   33.10   26.20
 -10  -3   3  163.68   47.50
  10  -3  -3  146.59   29.90
 -10  -3   3   48.40   30.30
 -10   3   3   80.69   35.70
  10   3  -3  107.99   30.50
   9  -3  -3   22.80   21.70
  -9  -3   3   64.09   28.90
  -9  -3   3   76.19   35.10
  -9   3   3   69.59   24.90
   9   3  -3   45.40   23.50
  -8  -3   3   19.40   25.80
  -8  -3   3   65.29   36.30
   8  -3  -3   49.50   21.60
  -8   3   3   29.20   21.70
   8   3  -3   38.60   21.00
  -7  -3   3   45.20   26.40
   7  -3  -3  106.59   24.80
  -7  -3   3  101.59   35.20
   7   3  -3   75.09   24.40
   6  -3  -3   30.80   17.80
  -6  -3   3   52.69   30.00
   6   3  -3   33.20   18.80
  -6   3   3   32.60   15.90
  -5  -3   3  179.88   27.70
   5  -3  -3  167.88   24.70
  -5  -3   3  172.18   36.80
   5   3  -3  157.48   26.90
   5   3  -3  152.18   27.00
  -5   3   3  169.98   24.90
  -4  -3   3  287.67   33.20
   4  -3  -3  266.37   30.80
  -4  -3   3  253.67   38.20
   4   3  -3  246.98   32.00
   4   3  -3  213.48   30.80
  -4   3   3  281.57   30.70
  -3  -3   3  158.78   25.10
  -3  -3   3  173.88   31.50
   3  -3  -3  127.69   24.80
   3  -3  -3  167.88   21.40
   3   3  -3  160.28   23.40
   3   3  -3  183.98   24.40
  -3   3   3  131.69   17.20
  -3   3   3  174.38   21.80
  -2  -3   3  259.77   30.50
  -2  -3   3  252.17   34.20
   2  -3  -3  277.17   27.00
   2  -3  -3  200.98   31.30
   2   3  -3  269.17   31.60
  -2   3   3  230.38   25.90
   2   3  -3  255.67   30.40
  -2   3   3  258.27   26.80
  -1  -3   3   88.59   27.30
   1  -3  -3   39.80   18.10
   1  -3  -3   90.89   13.10
  -1  -3   3   63.69   16.60
  -1   3   3   74.19   12.60
  -1   3   3   62.59   14.70
   1   3  -3   86.99   16.80
   0  -3   3  188.08   30.90
   0  -3  -3  276.57   37.40
   0  -3   3  222.98   26.30
   0   3   3  216.88   25.80
   0   3  -3  188.78   24.40
   1  -3   3  146.59   26.40
   1  -3   3  190.48   21.70
  -1  -3  -3  142.99   18.20
   1  -3   3  126.09   23.80
  -1  -3  -3  129.19   27.90
  -1   3  -3  145.19   19.70
   1   3   3  151.08   20.90
  -1   3  -3  129.69   17.40
   2  -3   3  453.35   44.60
   2  -3   3  473.75   46.90
  -2  -3  -3  377.86   39.20
  -2  -3  -3  467.05   52.59
  -2   3  -3  441.66   39.30
  -2   3  -3  396.66   38.50
   2   3   3  399.76   41.20
   3  -3   3  280.77   35.60
  -3  -3  -3  268.47   40.30
  -3  -3  -3  313.47   33.30
   3   3   3  291.67   34.40
  -3   3  -3  324.37   31.70
  -3   3  -3  304.77   30.70
  -4  -3  -3  423.26   55.29
  -4  -3  -3  414.96   42.50
  -4   3  -3  454.45   39.60
   4   3   3  456.95   43.90
  -4   3  -3  365.56   40.50
  -5  -3  -3  205.78   36.80
  -5  -3  -3  212.28   41.10
   5  -3   3  166.78   25.90
  -5   3  -3  146.59   28.30
  -5   3  -3  155.88   21.30
   5   3   3  159.88   26.50
  -6  -3  -3  309.87   45.40
  -6  -3  -3  290.67   35.30
   6  -3   3  247.58   35.00
  -6  -3  -3  204.08   37.20
  -6   3  -3  304.87   32.50
  -6   3  -3  236.28   34.80
  -6   3  -3  282.17   38.70
   6   3   3  257.67   34.20
  -7  -3  -3   21.80   33.50
   7  -3   3    3.10   19.10
  -7  -3  -3   41.10   28.20
  -7   3  -3   35.30   18.30
  -7   3  -3   17.00   26.30
  -7   3  -3   49.40   12.90
   7   3   3   22.70   21.00
  -8  -3  -3  172.58   40.10
  -8  -3  -3  205.18   39.90
   8  -3   3  164.98   31.40
  -8   3  -3  181.78   36.40
  -8   3  -3  153.68   19.90
   8   3   3  194.68   32.80
  -8   3  -3  255.27   38.60
   9  -3   3    9.90   21.00
  -9  -3  -3   40.20   38.50
  -9  -3  -3    9.80   33.40
  -9   3  -3   25.80   10.90
   9   3   3   13.60   24.40
  -9   3  -3   34.80   21.70
  -9   3  -3    1.30   27.90
 -10  -3  -3   26.10   36.20
 -10  -3  -3    2.10   37.10
 -10   3  -3   18.30   29.80
  10   3   3   58.69   25.20
 -10   3  -3   60.99   23.50
 -10   3  -3   -4.40    9.90
 -11  -3  -3   22.30   39.20
 -11  -3  -3   27.30   38.90
  11   3   3   25.50   26.90
 -11   3  -3   35.70   35.70
 -11   3  -3   60.69   25.10
 -12  -3  -3   36.20   39.50
 -12  -3  -3  -40.10   39.90
  12   3   3    5.00   26.10
 -12   3  -3   23.60   28.70
 -12   3  -3   14.10   24.60
 -10  -4   3   14.60   38.10
 -10  -4   3   39.20   40.50
  10   4  -3   57.19   31.10
  -9  -4   3   32.90   45.20
  -9  -4   3  -15.00   31.00
   9   4  -3   40.90   29.40
  -8  -4   3   38.70   40.80
  -8  -4   3   39.10   30.90
   8   4  -3   12.60   27.40
  -7  -4   3  114.29   34.30
  -7  -4   3  170.28   45.60
   7   4  -3  193.18   35.40
  -6  -4   3    3.30   35.40
   6   4  -3   31.50   24.60
  -5  -4   3  335.27   51.99
  -5   4   3  326.67   39.80
   5   4  -3  343.27   44.20
  -4  -4   3   90.49   33.80
   4   4  -3   40.60   24.90
  -4   4   3   11.50   17.10
  -4   4   3   13.30   10.80
  -3  -4   3  207.78   29.80
  -3  -4   3  224.28   42.60
   3   4  -3  208.38   33.00
  -3   4   3  154.88   22.60
  -3   4   3  229.68   26.80
   2  -4  -3  174.38   40.80
  -2  -4   3  156.88   26.00
  -2  -4   3  160.08   38.10
   2   4  -3  143.69   27.70
   2   4  -3  165.48   26.20
  -2   4   3  103.09   20.40
  -1  -4   3  188.48   40.80
  -1  -4   3  272.67   31.00
   1  -4  -3  278.67   45.80
   1   4  -3  186.48   27.90
  -1   4   3  200.78   27.00
   1   4  -3  231.38   33.50
   0  -4   3  146.69   22.40
   0  -4   3  161.18   34.10
   0  -4  -3  128.59   36.30
   0   4   3  131.29   23.30
   0   4  -3   85.39   23.80
   0   4  -3  111.39   21.40
   1  -4   3  202.38   27.50
  -1  -4  -3  208.98   40.80
   1  -4   3  263.07   38.30
  -1   4  -3  241.78   28.60
   1   4   3  208.68   30.30
  -2  -4  -3  154.48   23.60
   2  -4   3  118.69   31.60
  -2  -4  -3  129.79   36.50
  -2   4  -3  118.39   19.70
   2   4   3  113.79   25.10
  -2   4  -3  117.49   18.80
  -3  -4  -3  175.98   28.50
   3  -4   3  186.08   34.20
  -3  -4  -3  242.38   45.80
  -3   4  -3  198.88   23.50
  -3   4  -3  132.69   23.70
   3   4   3  172.28   30.00
  -4  -4  -3  161.78   43.90
   4  -4   3  104.39   30.60
   4   4   3  120.29   28.50
  -5  -4  -3  131.79   44.50
   5  -4   3  164.98   34.30
   5   4   3  127.69   31.20
  -6  -4  -3  139.79   41.80
   6   4   3   65.79   28.10
  -7  -4  -3   51.59   35.40
  -7  -4  -3   32.10   35.80
   7   4   3  117.19   31.40
  -7   4  -3   55.69   13.70
  -8  -4  -3  -33.80   32.00
  -8  -4  -3   29.80   39.00
  -8   4  -3   -0.10   13.60
   8   4   3   16.00   27.40
  -9  -4  -3   -6.70   36.20
  -9  -4  -3   52.79   40.90
   9   4   3  119.79   34.90
 -10  -4  -3   85.49   47.70
 -10  -4  -3   28.90   44.20
  10   4   3   59.69   30.00
  -6  -5   3  205.88   55.59
   6   5  -3   89.99   36.60
   5  -5  -3   94.79   50.29
  -5  -5   3  101.59   49.10
   5   5  -3   23.30   30.40
   4  -5  -3  117.39   46.90
  -4  -5   3  212.18   51.39
   4   5  -3   81.99   32.90
   3  -5  -3   94.09   45.00
  -3  -5   3    2.60   42.30
  -3   5   3   66.99   16.90
   3   5  -3   58.09   27.80
  -2  -5   3   46.90   42.40
   2  -5  -3  122.69   46.30
   2   5  -3  104.89   30.50
  -2   5   3   39.80   18.70
  -1  -5   3   50.69   41.40
   1  -5  -3   71.49   41.50
   1   5  -3   61.79   42.70
  -1   5   3   27.00   20.90
   0  -5   3  157.48   62.19
   0  -5  -3  167.78   46.30
   0   5  -3  183.58   34.60
   0   5   3  142.09   29.10
  -1  -5  -3   71.29   42.20
  -1   5  -3   44.10   25.50
   1   5   3   42.60   25.90
  -2  -5  -3  176.88   55.09
   2  -5   3  220.68   48.30
   2   5   3  118.79   30.70
  -2   5  -3  111.59   26.90
  -3  -5  -3   51.39   42.40
   3  -5   3   39.90   38.20
  -3   5  -3   67.59   23.50
   3   5   3   53.89   30.20
   4  -5   3  140.19   43.70
  -4  -5  -3  -40.50   48.20
  -4   5  -3   15.20   20.10
   4   5   3   12.50   28.10
  -5  -5  -3   19.40   42.90
   5  -5   3  -24.00   36.30
  -5   5  -3   40.80   18.20
   5   5   3   38.60   28.40
 -15   0   4   42.20   30.10
 -15   0   4   42.40   38.70
  15   0  -4   18.50   25.90
  15   0  -4   47.80   19.60
 -14   0   4  143.29   35.00
  14   0  -4  146.09   30.80
  14   0  -4  152.78   26.30
 -14   0   4  149.99   44.30
  13   0  -4  150.48   23.80
 -13   0   4  131.69   42.30
  13   0  -4   98.49   26.40
 -13   0   4  128.79   31.60
  12   0  -4  350.16   40.80
 -12   0   4  453.15   53.59
  12   0  -4  388.36   47.60
 -12   0   4  509.25   61.09
  11   0  -4  358.16   43.00
 -11   0   4  465.15   50.59
  11   0  -4  263.07   35.80
 -11   0   4  516.55   58.69
 -10   0   4  605.44   59.49
 -10   0   4  557.44   52.09
  10   0  -4  409.26   48.60
  10   0  -4  428.76   46.30
  10   0  -4  363.36   42.20
 -10   0   4  513.45   49.99
  -9   0   4  865.61   76.39
   9   0  -4  875.71   74.19
  -9   0   4  914.31   73.49
   9   0  -4  837.42   78.89
  -9   0   4  908.91   77.19
  -9   0   4  875.31   81.69
   9   0  -4  770.42   70.89
   8   0  -4  392.86   39.50
  -8   0   4  417.86   41.90
   8   0  -4  401.46   35.90
  -8   0   4  390.66   39.00
  -8   0   4  385.86   46.50
   8   0  -4  375.76   41.40
   8   0  -4  388.36   44.10
  -8   0   4  380.76   37.70
   7   0  -4  334.47   38.80
  -7   0   4  322.77   33.20
   7   0  -4  306.97   37.10
  -7   0   4  353.86   34.50
  -7   0   4  371.86   36.80
  -7   0   4  343.07   41.00
   7   0  -4  376.76   34.80
   7   0  -4  358.86   31.90
   6   0  -4 2774.32  220.58
  -6   0   4 3042.90  224.58
   6   0  -4 2775.22  220.98
  -6   0   4 2947.10  220.98
  -6   0   4 2983.60  220.68
   6   0  -4 2706.83  219.08
   6   0  -4 2675.53  222.98
  -6   0   4 3004.50  221.78
   6   0  -4 2607.44  221.98
   5   0  -4 1445.96  109.59
   5   0  -4 1495.95  106.49
  -5   0   4 1254.87  107.49
  -5   0   4 1170.68  107.89
   5   0  -4 1438.36  108.49
   5   0  -4 1457.85  107.99
  -5   0   4 1196.78  107.79
  -5   0   4 1269.87  110.79
   5   0  -4 1532.95  111.39
   4   0  -4 6196.98  486.35
   4   0  -4 6134.99  487.05
  -4   0   4 6325.77  486.45
  -4   0   4 6439.46  488.65
  -4   0   4 6335.67  486.55
   4   0  -4 6264.57  486.65
   4   0  -4 6645.84  489.95
  -4   0   4 6315.07  486.35
   3   0  -4 1200.28   93.29
   3   0  -4 1301.67   93.49
  -3   0   4 1101.09   92.49
   3   0  -4 1315.07   95.69
  -3   0   4 1070.69   92.99
   3   0  -4 1278.87   93.49
  -3   0   4 1116.99   93.09
  -3   0   4 1091.29   95.29
  -2   0   4 1789.52  136.79
   2   0  -4 1722.63  139.29
  -2   0   4 1850.21  138.09
   2   0  -4 1730.03  137.99
   2   0  -4 1698.43  137.99
  -2   0   4 1832.02  137.99
   2   0  -4 1699.63  137.09
  -2   0   4 1885.81  139.49
  -1   0   4 3026.20  215.58
   1   0  -4 2652.63  215.28
  -1   0   4 2784.72  215.68
   1   0  -4 2666.13  215.28
  -1   0   4 2900.41  215.38
   1   0  -4 2733.03  215.88
   0   0  -4 3044.40  233.18
   0   0   4 3005.00  233.08
  -1   0  -4 2730.33  201.58
  -1   0  -4 2591.34  201.68
  -1   0  -4 2557.64  201.78
   1   0   4 2561.44  201.38
   2   0   4 1892.81  147.19
  -2   0  -4 1864.71  145.49
   2   0   4 1807.52  146.39
  -2   0  -4 1859.51  147.49
  -2   0  -4 1987.80  146.49
  -3   0  -4  536.05   48.60
  -3   0  -4  537.25   51.69
   3   0   4  671.43   48.30
   3   0   4  704.53   49.70
   3   0   4  628.14   51.49
  -3   0  -4  480.65   48.30
  -4   0  -4 4474.05  348.27
   4   0   4 4662.13  349.96
   4   0   4 4765.22  348.47
  -4   0  -4 4451.95  348.07
  -4   0  -4 4187.28  350.16
   4   0   4 4552.74  347.87
  -5   0  -4  262.47   26.60
  -5   0  -4  268.07   33.20
  -5   0  -4  243.98   28.20
  -5   0  -4  269.47   26.20
  -6   0  -4 1455.55  111.39
  -6   0  -4 1387.86  111.59
   6   0   4 1359.06  112.09
  -6   0  -4 1471.35  116.49
   6   0   4 1265.37  114.09
  -6   0  -4 1524.45  113.49
   6   0   4 1324.37  111.59
   7   0   4  452.05   39.10
   7   0   4  393.86   42.80
   7   0   4  425.76   39.70
  -7   0  -4  364.46   41.40
  -7   0  -4  423.76   46.40
  -7   0  -4  372.76   37.80
  -7   0  -4  360.26   36.80
  -8   0  -4  667.33   58.99
   8   0   4  565.84   57.99
  -8   0  -4  577.84   53.59
   8   0   4  540.05   53.99
  -8   0  -4  640.24   53.09
   8   0   4  568.74   55.59
  -8   0  -4  675.73   62.79
  -9   0  -4  855.81   81.89
   9   0   4  840.42   75.79
   9   0   4  902.51   74.09
  -9   0  -4  813.52   71.79
  10   0   4  842.12   80.49
 -10   0  -4 1002.70   89.49
  10   0   4  859.41   84.19
 -10   0  -4 1091.99   89.29
 -11   0  -4   65.69   30.40
 -11   0  -4   53.99   28.90
  11   0   4   77.09   21.70
  12   0   4  178.58   31.50
 -12   0  -4  170.28   35.60
 -12   0  -4  227.98   40.90
 -13   0  -4   43.70   30.30
  13   0   4   21.40   21.80
 -13   0  -4   33.00   31.90
 -14   0  -4   70.59   36.90
 -14   0  -4  179.78   41.10
  14   0   4   98.39   33.30
 -15   0  -4  -16.80   36.10
 -15   0  -4    9.80   34.70
 -15  -1   4   78.39   41.50
  15  -1  -4   63.39   31.60
 -15  -1   4   33.00   31.70
 -15   1   4   21.80   25.80
  15   1  -4   68.79   21.40
 -14  -1   4   66.99   40.40
 -14  -1   4  105.29   34.90
  14  -1  -4   45.80   28.30
 -14   1   4   41.50   25.10
  14   1  -4   86.19   23.60
  13  -1  -4  130.29   30.50
 -13  -1   4  101.89   30.80
  13   1  -4  174.78   27.80
 -13   1   4   83.79   27.00
  13   1  -4  126.49   30.20
 -13   1   4  134.49   39.90
  12  -1  -4   92.89   25.70
 -12  -1   4  128.89   41.90
 -12  -1   4  146.39   32.00
 -12   1   4  143.89   39.90
  12   1  -4  136.59   25.20
 -12   1   4  168.18   36.10
  12   1  -4  135.49   28.20
  11  -1  -4  195.08   30.00
 -11  -1   4  165.98   33.90
  11  -1  -4  223.58   26.80
 -11  -1   4  181.68   40.00
 -11   1   4  232.28   34.60
 -11   1   4  217.48   41.80
  11   1  -4  227.38   30.90
  11   1  -4  307.87   31.50
  10  -1  -4  275.67   34.50
 -10  -1   4  313.57   45.80
 -10  -1   4  263.07   31.90
  10  -1  -4  225.08   28.10
 -10  -1   4  326.27   40.00
  10   1  -4  301.27   34.70
 -10   1   4  280.77   31.80
 -10   1   4  237.68   35.30
  10   1  -4  252.57   31.90
 -10   1   4  330.07   45.60
   9  -1  -4 1025.30   93.49
  -9  -1   4 1132.29   96.49
  -9  -1   4 1220.98   99.69
  -9  -1   4 1092.59   90.19
   9  -1  -4 1015.20   91.89
   9  -1  -4 1003.10   94.89
  -9   1   4 1083.79   90.09
  -9   1   4 1122.29   94.09
   9   1  -4 1090.99   90.89
  -9   1   4 1181.88  100.29
   9   1  -4 1103.89   90.69
   8  -1  -4  411.06   52.59
   8  -1  -4  416.16   45.20
  -8  -1   4  448.96   41.80
  -8  -1   4  473.05   52.09
  -8  -1   4  408.96   44.30
   8  -1  -4  461.55   44.60
  -8   1   4  435.96   45.80
   8   1  -4  556.64   43.50
  -8   1   4  388.06   51.99
   8   1  -4  541.15   50.89
   8   1  -4  480.35   42.80
  -8   1   4  417.76   41.50
  -8   1   4  460.15   43.30
   7  -1  -4 1262.17  107.09
   7  -1  -4 1263.57  108.99
  -7  -1   4 1300.37  103.99
  -7  -1   4 1585.44  115.29
  -7  -1   4 1378.56  108.79
   7  -1  -4 1179.68  106.39
  -7   1   4 1338.77  105.39
  -7   1   4 1310.87  112.59
  -7   1   4 1365.86  106.99
   7   1  -4 1220.88  103.99
   7   1  -4 1253.47  109.19
  -7   1   4 1339.67  104.09
   7   1  -4 1219.58  104.59
   7   1  -4 1297.27  107.19
   6  -1  -4 1448.16  116.09
  -6  -1   4 1425.46  115.99
  -6  -1   4 1496.55  114.09
   6  -1  -4 1470.15  115.59
  -6  -1   4 1488.95  119.39
   6  -1  -4 1394.06  118.09
  -6  -1   4 1416.46  117.19
  -6   1   4 1345.87  114.89
   6   1  -4 1475.15  114.09
   6   1  -4 1513.15  118.69
  -6   1   4 1440.16  116.19
  -6   1   4 1420.76  115.09
   6   1  -4 1402.86  116.19
   6   1  -4 1440.56  114.59
  -5  -1   4  972.50   82.19
  -5  -1   4 1071.29   84.69
   5  -1  -4  973.40   81.39
   5  -1  -4 1025.60   84.19
   5  -1  -4  982.60   80.89
  -5  -1   4  954.00   79.49
  -5   1   4 1000.80   80.59
  -5   1   4 1027.40   81.69
   5   1  -4  985.70   79.39
   5   1  -4  967.60   81.79
  -5   1   4  992.90   79.19
   5   1  -4  994.50   83.89
   5   1  -4  995.20   80.39
  -4  -1   4  909.91   74.29
  -4  -1   4  915.01   76.29
  -4  -1   4  878.51   76.29
   4  -1  -4  936.21   77.49
  -4  -1   4  959.20   78.49
   4  -1  -4 1011.20   75.89
   4  -1  -4  992.10   78.99
   4   1  -4  935.91   74.29
  -4   1   4  898.41   73.79
  -4   1   4  928.71   75.39
   4   1  -4  921.81   77.99
   4   1  -4  962.90   76.89
  -4   1   4  914.21   76.09
   3  -1  -4 2647.14  191.58
  -3  -1   4 2340.47  191.98
   3  -1  -4 2681.93  193.58
   3  -1  -4 2669.23  193.28
  -3  -1   4 2295.37  194.48
  -3   1   4 2260.07  192.78
   3   1  -4 2679.83  194.08
   3   1  -4 2602.14  192.08
   3   1  -4 2684.03  194.78
  -3   1   4 2276.27  191.38
  -3   1   4 2244.78  193.18
   2  -1  -4 1033.10   83.49
  -2  -1   4 1136.09   86.99
   2  -1  -4 1094.09   85.79
  -2  -1   4 1109.59   86.09
   2  -1  -4 1035.70   85.29
  -2   1   4 1113.59   85.29
  -2   1   4 1142.99   83.59
   2   1  -4 1052.09   84.49
   2   1  -4 1023.50   86.09
   2   1  -4 1025.20   86.39
  -1  -1   4 2842.82  210.68
   1  -1  -4 2666.33  209.88
  -1  -1   4 2823.92  210.68
   1  -1  -4 2689.73  208.88
   1  -1  -4 2588.34  208.88
   1   1  -4 2598.34  210.58
   1   1  -4 2591.14  210.18
  -1   1   4 2838.92  209.08
  -1   1   4 2835.72  209.98
   0  -1   4  594.54   55.29
   0  -1  -4  737.53   54.49
   0  -1  -4  773.42   54.39
   0  -1   4  601.24   54.39
   0  -1   4  591.74   54.39
   0   1  -4  759.52   55.89
   0   1  -4  743.93   54.49
   0   1   4  637.94   54.09
   1  -1   4 2798.92  214.98
  -1  -1  -4 2743.33  214.68
   1  -1   4 2774.62  215.28
   1  -1   4 2679.33  213.68
  -1  -1  -4 2840.42  214.48
  -1   1  -4 2849.42  215.08
   1   1   4 2807.82  214.78
  -1   1  -4 2762.32  215.48
  -2  -1  -4  831.72   70.09
   2  -1   4  868.31   68.89
  -2  -1  -4  846.62   67.89
  -2   1  -4  862.71   68.89
  -2   1  -4  870.11   68.99
   2   1   4  805.52   68.09
  -3  -1  -4 1566.64  127.49
  -3  -1  -4 1706.93  129.29
  -3  -1  -4 1681.33  129.49
  -3   1  -4 1605.04  127.69
  -3   1  -4 1750.82  128.39
  -3   1  -4 1693.13  129.09
   3   1   4 1394.76  127.49
   4  -1   4 1680.23  136.69
  -4  -1  -4 1746.03  137.39
  -4  -1  -4 1777.72  135.59
  -4  -1  -4 1754.82  137.79
   4  -1   4 1537.15  133.89
  -4   1  -4 1708.13  135.39
   4   1   4 1761.42  135.69
  -4   1  -4 1836.32  135.19
  -4   1  -4 1803.72  137.29
   4   1   4 1644.74  136.49
   5  -1   4 1098.79   92.89
  -5  -1  -4 1142.69   89.99
  -5  -1  -4 1138.79   93.49
   5  -1   4 1070.59   89.79
  -5  -1  -4 1144.49   91.09
  -5  -1  -4 1229.28   94.99
   5   1   4 1153.18   91.39
  -5   1  -4 1102.09   89.99
   5   1   4 1119.29   92.69
  -5   1  -4 1117.79   91.09
  -5   1  -4 1121.69   93.79
   6  -1   4  382.96   33.60
  -6  -1  -4  303.77   33.20
   6  -1   4  322.57   36.90
  -6  -1  -4  308.37   31.90
  -6  -1  -4  469.35   52.59
  -6  -1  -4  373.46   39.70
  -6   1  -4  328.47   31.70
  -6   1  -4  318.17   38.90
  -6   1  -4  326.17   33.40
  -6   1  -4  308.47   35.00
   6   1   4  392.26   37.40
   6   1   4  317.47   36.80
   7  -1   4  530.95   64.19
  -7  -1  -4  437.56   47.00
   7  -1   4  392.36   39.60
  -7  -1  -4  417.46   48.50
  -7  -1  -4  384.76   37.90
  -7   1  -4  369.16   45.90
  -7   1  -4  382.36   37.10
   7   1   4  447.06   40.70
  -7   1  -4  393.26   42.80
   7   1   4  448.46   43.90
  -7   1  -4  362.96   41.30
   8  -1   4  255.17   35.80
  -8  -1  -4  195.58   27.00
  -8  -1  -4  271.47   36.10
  -8  -1  -4  312.67   41.30
   8  -1   4  248.88   30.90
  -8  -1  -4  270.67   30.80
  -8   1  -4  246.68   34.10
  -8   1  -4  219.58   27.40
  -8   1  -4  302.77   41.20
   8   1   4  276.27   39.70
   8   1   4  272.87   32.30
  -8   1  -4  242.78   29.70
  -9  -1  -4  481.15   51.19
  -9  -1  -4  572.94   63.79
  -9  -1  -4  584.64   62.69
   9  -1   4  641.84   55.59
  -9   1  -4  539.75   49.99
  -9   1  -4  546.45   62.09
   9   1   4  646.44   58.99
  -9   1  -4  501.55   58.49
   9   1   4  622.74   54.69
 -10  -1  -4   39.70   28.90
 -10  -1  -4   18.40   28.60
  10  -1   4   39.70   20.60
  10   1   4   40.00   21.40
 -10   1  -4   35.90   25.00
 -10   1  -4   75.89   30.30
 -10   1  -4   53.79   14.70
  11  -1   4  444.76   49.30
 -11  -1  -4  399.56   54.59
 -11  -1  -4  393.56   50.09
  11   1   4  335.77   44.30
 -11   1  -4  352.76   51.69
 -11   1  -4  390.76   50.19
 -12  -1  -4   38.40   33.40
  12   1   4   34.10   22.60
 -12   1  -4   28.40   28.00
 -13  -1  -4   22.00   31.40
 -13  -1  -4   68.59   34.30
 -13   1  -4   85.19   33.60
 -13   1  -4   70.39   37.90
  13   1   4   77.79   24.70
 -14  -1  -4   11.60   34.70
 -14  -1  -4   55.39   33.90
  14   1   4   57.79   28.10
 -14   1  -4   30.60   31.50
  14  -2  -4   58.79   32.10
 -14  -2   4   85.09   34.70
 -14  -2   4   46.20   39.90
  14   2  -4   36.10   25.00
 -14   2   4   53.19   27.60
 -13  -2   4   40.90   31.70
  13  -2  -4   -5.10   22.50
 -13  -2   4    0.30   36.20
  13   2  -4   17.40   21.50
 -13   2   4   26.40   21.80
  12  -2  -4  143.39   33.90
 -12  -2   4  107.49   42.50
 -12  -2   4   97.09   33.60
  12   2  -4  109.99   26.80
 -11  -2   4  136.29   21.90
 -11  -2   4  104.39   32.80
 -11  -2   4  109.29   37.50
  11  -2  -4   69.99   25.30
 -11   2   4  126.89   22.00
 -11   2   4  186.18   36.80
  11   2  -4  113.19   26.20
 -10  -2   4  227.98   42.20
 -10  -2   4  254.17   30.30
  10  -2  -4  209.28   31.40
 -10  -2   4  215.78   38.30
  10   2  -4  286.07   35.10
 -10   2   4  295.27   42.50
 -10   2   4  211.88   27.50
  10   2  -4  243.78   30.50
  -9  -2   4   98.09   18.20
  -9  -2   4   84.19   30.90
   9  -2  -4  136.79   28.20
  -9  -2   4  131.99   32.20
   9   2  -4   65.39   22.10
  -9   2   4  122.49   17.20
   9   2  -4   99.19   19.20
  -9   2   4  107.49   25.20
  -8  -2   4  662.03   60.89
   8  -2  -4  805.62   66.89
   8  -2  -4  776.72   70.59
  -8  -2   4  715.03   74.49
  -8  -2   4  690.63   69.89
   8   2  -4  807.62   62.29
  -8   2   4  747.43   67.69
   8   2  -4  795.42   66.19
  -8   2   4  634.74   60.29
   7  -2  -4   98.39   20.90
   7  -2  -4   68.39   18.40
   7  -2  -4  117.69   25.40
  -7  -2   4  116.69   29.10
  -7  -2   4  114.49   16.30
  -7  -2   4  104.19   26.60
  -7  -2   4  115.29   22.20
   7   2  -4  102.89   23.00
   7   2  -4  122.19   16.90
  -7   2   4  143.59   26.00
   7   2  -4   68.69   18.80
  -7   2   4  120.39   14.80
  -7   2   4  112.89   18.60
   7   2  -4   96.99   26.80
   6  -2  -4  870.91   67.79
  -6  -2   4  738.83   71.79
  -6  -2   4  699.43   69.29
  -6  -2   4  795.52   74.59
   6  -2  -4  809.82   71.49
  -6  -2   4  667.03   63.09
  -6   2   4  741.53   68.79
   6   2  -4  866.91   67.69
   6   2  -4  863.91   63.79
  -6   2   4  703.13   66.19
   6   2  -4  865.01   69.39
  -5  -2   4  523.75   47.20
   5  -2  -4  478.95   48.60
  -5  -2   4  469.95   45.90
   5  -2  -4  387.06   44.40
   5  -2  -4  495.35   44.50
   5   2  -4  509.25   45.10
   5   2  -4  482.85   48.90
   5   2  -4  497.15   47.10
  -5   2   4  487.25   43.90
   4  -2  -4 1592.64  142.19
  -4  -2   4 1812.02  142.29
   4  -2  -4 1826.82  141.19
  -4  -2   4 1962.30  145.59
  -4   2   4 1849.71  140.99
   4   2  -4 1690.93  143.69
   4   2  -4 1771.72  142.49
   3  -2  -4  476.65   45.00
   3  -2  -4  438.16   46.90
  -3  -2   4  595.54   51.29
  -3  -2   4  609.74   47.50
  -3   2   4  595.54   45.50
   3   2  -4  425.76   48.10
   3   2  -4  524.55   47.90
   2  -2  -4 1803.82  140.89
  -2  -2   4 1909.81  144.19
   2  -2  -4 1696.93  142.89
  -2  -2   4 1866.51  142.29
  -2   2   4 1840.42  141.49
  -2   2   4 1844.32  139.49
   2   2  -4 1752.72  142.39
   2   2  -4 1685.03  142.99
  -1  -2   4  870.01   72.19
   1  -2  -4  885.41   68.69
  -1  -2   4  830.42   70.19
  -1   2   4  861.31   68.59
   1   2  -4  867.41   70.79
  -1   2   4  826.62   68.19
   0  -2   4 1892.21  144.39
   0  -2   4 1742.43  144.09
   0  -2  -4 1832.72  141.39
   0  -2  -4 1822.92  141.89
   0   2  -4 1826.52  143.69
   0   2   4 1839.92  142.69
   0   2   4 1835.22  141.99
  -1  -2  -4  799.92   68.69
   1  -2   4  762.32   64.29
   1  -2   4  718.53   65.19
  -1  -2  -4  770.32   61.99
   1  -2   4  756.12   64.69
  -1  -2  -4  783.92   63.09
   1   2   4  772.62   63.19
  -1   2  -4  767.62   63.79
  -1   2  -4  801.32   62.49
  -2  -2  -4 1076.79   87.49
  -2  -2  -4 1056.19   80.49
   2  -2   4  896.21   83.69
   2  -2   4  941.51   82.69
  -2  -2  -4 1067.99   82.79
  -2  -2  -4 1080.39   82.29
  -2   2  -4 1104.99   82.39
  -2   2  -4 1079.29   82.99
   2   2   4  913.61   82.69
  -3  -2  -4 1031.80   89.39
   3  -2   4 1085.39   86.59
  -3  -2  -4 1046.50   82.49
  -3  -2  -4 1016.80   84.69
  -3  -2  -4  961.30   84.59
  -3   2  -4 1119.09   87.19
   3   2   4 1137.89   85.69
  -3   2  -4 1065.69   85.19
  -3   2  -4  984.30   84.49
   4  -2   4  740.63   68.09
   4  -2   4  815.82   65.89
  -4  -2  -4  770.72   66.39
  -4  -2  -4  764.62   65.79
  -4   2  -4  713.63   65.69
  -4   2  -4  824.32   66.79
   4   2   4  880.51   69.69
  -4   2  -4  821.22   69.39
  -5  -2  -4  369.56   36.50
  -5  -2  -4  339.47   31.30
  -5  -2  -4  332.77   41.10
  -5  -2  -4  366.76   45.10
   5  -2   4  311.67   38.50
  -5   2  -4  345.47   35.00
  -5   2  -4  392.16   40.10
   5   2   4  308.27   36.00
  -5   2  -4  387.76   36.20
   6  -2   4  911.81   72.79
   6  -2   4  887.71   75.89
  -6  -2  -4  873.61   78.49
  -6  -2  -4  916.81   80.39
  -6  -2  -4  830.42   72.59
  -6  -2  -4  833.42   69.69
  -6   2  -4  879.51   73.59
   6   2   4  918.31   74.09
   6   2   4  832.52   76.99
  -6   2  -4  860.91   77.19
  -6   2  -4  784.32   72.39
  -6   2  -4  800.82   70.39
  -7  -2  -4  260.67   28.40
   7  -2   4  247.28   32.30
  -7  -2  -4  280.07   38.00
  -7  -2  -4  253.77   34.60
  -7  -2  -4  332.37   43.30
   7   2   4  263.97   48.20
  -7   2  -4  275.87   28.40
  -7   2  -4  299.47   35.70
   7   2   4  281.97   34.10
  -7   2  -4  271.57   35.80
  -7   2  -4  324.97   38.50
  -8  -2  -4  501.65   56.39
  -8  -2  -4  417.66   38.70
  -8  -2  -4  376.26   48.80
   8  -2   4  400.36   42.70
   8   2   4  427.16   44.00
  -8   2  -4  350.56   37.50
  -8   2  -4  386.06   50.39
  -8   2  -4  447.56   45.20
  -9  -2  -4  232.88   42.60
  -9  -2  -4  180.28   24.30
  -9  -2  -4  277.57   44.40
   9  -2   4  184.38   28.50
   9   2   4  171.78   30.40
  -9   2  -4  181.18   23.70
  -9   2  -4  185.88   38.10
  -9   2  -4  251.17   32.90
 -10  -2  -4  111.09   36.00
 -10  -2  -4  147.69   22.90
 -10  -2  -4  177.98   39.70
  10  -2   4  150.68   30.60
 -10   2  -4  111.99   31.90
  10   2   4  105.39   25.60
 -10   2  -4  124.39   20.80
 -11  -2  -4   46.10   35.60
 -11  -2  -4   39.80   59.79
  11  -2   4   29.80   22.50
 -11   2  -4   27.90   14.60
  11   2   4   99.19   41.20
 -12  -2  -4   55.79   40.50
 -12  -2  -4   42.90   36.20
  12   2   4   90.39   28.40
 -12   2  -4   62.39   31.40
 -13  -2  -4   42.90   39.50
 -13  -2  -4   -5.30   33.10
  13   2   4   33.90   26.10
 -13   2  -4   20.50   30.70
 -14  -2  -4   85.99   40.30
 -14  -2  -4  -18.40   37.00
  14   2   4   64.69   28.30
 -14   2  -4   60.79   32.80
  13  -3  -4   64.19   31.10
 -13  -3   4   33.40   38.60
 -13  -3   4   26.30   39.90
 -13   3   4   -9.80   17.60
 -13   3   4    5.60   26.40
  13   3  -4   44.10   27.40
 -12  -3   4   72.69   38.30
 -12  -3   4   59.19   42.40
  12  -3  -4   84.29   29.40
  12   3  -4   35.10   24.50
 -12   3   4   50.29   23.70
 -12   3   4   44.60   32.80
 -11  -3   4  189.98   50.59
  11  -3  -4  153.08   31.90
 -11  -3   4   12.30   56.79
  11   3  -4  151.88   32.20
 -11   3   4  144.59   36.30
 -10  -3   4  106.59   38.30
 -10  -3   4  108.79   40.40
  10  -3  -4   91.29   27.40
  10   3  -4   75.99   26.30
 -10   3   4  139.99   52.69
  -9  -3   4  194.48   44.90
  -9  -3   4  272.67   46.80
   9  -3  -4  329.87   40.30
   9   3  -4  265.57   38.50
  -9   3   4  349.67   45.70
  -8  -3   4   34.90   29.20
   8  -3  -4   25.70   21.50
  -8  -3   4   85.99   37.70
   8   3  -4   31.10   21.60
  -8   3   4   48.10   25.70
   7  -3  -4  138.19   26.00
  -7  -3   4  153.68   35.60
  -7  -3   4   70.39   28.40
   7   3  -4  122.49   26.40
  -6  -3   4  199.58   37.60
   6  -3  -4  184.58   27.80
  -6   3   4  235.78   27.80
   6   3  -4  148.89   27.50
   6   3  -4  178.38   30.10
  -5  -3   4  431.96   50.89
  -5  -3   4  512.25   59.69
   5  -3  -4  567.24   48.60
   5   3  -4  594.64   52.49
  -5   3   4  439.86   47.30
   5   3  -4  476.15   50.19
  -4  -3   4  393.06   47.50
  -4  -3   4  404.16   51.09
   4  -3  -4  383.06   38.90
  -4   3   4  367.96   38.80
   4   3  -4  392.86   43.50
   4   3  -4  406.46   42.80
   3  -3  -4  758.02   79.59
   3  -3  -4  823.12   70.09
  -3  -3   4  790.22   72.79
  -3  -3   4  856.71   78.69
   3   3  -4  926.21   77.59
   3   3  -4  869.21   73.59
  -3   3   4  849.52   70.19
   2  -3  -4  269.77   26.60
  -2  -3   4  233.98   28.90
  -2  -3   4  321.67   40.40
   2  -3  -4  182.98   29.70
  -2   3   4  206.08   24.50
  -2   3   4  255.17   26.80
   2   3  -4  235.28   29.10
   1  -3  -4  593.54   58.99
  -1  -3   4  602.14   61.59
   1  -3  -4  657.73   53.49
  -1  -3   4  643.74   56.59
  -1   3   4  639.24   53.29
   1   3  -4  694.43   57.89
  -1   3   4  648.54   54.19
   0  -3  -4  425.66   49.40
   0  -3   4  389.56   44.20
   0  -3   4  356.86   37.20
   0   3  -4  399.76   38.00
   0   3   4  318.47   35.30
   1  -3   4  897.01   77.29
  -1  -3  -4  896.71   82.39
   1  -3   4  897.31   80.39
  -1  -3  -4  859.11   71.19
   1  -3   4  775.62   72.69
   1   3   4  893.61   73.29
  -1   3  -4  934.71   73.49
   2  -3   4  308.27   36.50
  -2  -3  -4  321.47   42.20
   2  -3   4  285.07   33.70
  -2  -3  -4  236.38   29.30
  -2   3  -4  253.07   29.20
   2   3   4  293.27   31.80
  -2   3  -4  268.27   30.60
  -3  -3  -4 1020.40   95.59
   3  -3   4 1069.19   90.19
  -3  -3  -4 1000.30   86.49
   3  -3   4 1208.58   90.19
   3   3   4 1116.99   88.09
  -3   3  -4 1023.10   85.89
  -3   3  -4  933.71   85.49
  -4  -3  -4  257.57   32.00
  -4  -3  -4  238.98   39.60
  -4   3  -4  263.97   31.20
  -4   3  -4  254.07   30.10
   4   3   4  285.07   33.90
   5  -3   4  595.94   54.59
  -5  -3  -4  591.64   67.89
  -5   3  -4  528.25   51.99
   5   3   4  615.44   55.59
  -5   3  -4  525.35   51.39
  -6  -3  -4  123.99   31.20
   6  -3   4  110.69   22.70
  -6  -3  -4   67.69   22.10
  -6  -3  -4  177.48   39.30
  -6   3  -4   97.59   29.10
   6   3   4  117.19   25.70
  -6   3  -4  149.49   23.40
  -7  -3  -4  136.59   34.40
   7  -3   4  139.79   25.40
  -7  -3  -4  205.98   42.40
  -7   3  -4  173.28   32.80
   7   3   4  118.79   28.60
  -7   3  -4  205.58   30.70
  -7   3  -4  134.79   19.90
  -8  -3  -4   69.79   36.40
  -8  -3  -4   43.80   32.30
   8  -3   4   60.99   22.30
  -8   3  -4   61.79   21.50
   8   3   4   74.19   27.30
  -8   3  -4   33.50   12.40
  -8   3  -4   75.89   28.70
  -9  -3  -4  222.08   60.49
   9  -3   4  106.39   28.10
  -9   3  -4  113.99   19.30
  -9   3  -4  249.08   32.30
  -9   3  -4  114.29   37.20
 -10  -3  -4   53.99   36.00
 -10  -3  -4   52.99   38.20
  10  -3   4   77.89   28.50
  10   3   4   88.89   27.10
 -10   3  -4   66.19   30.10
 -10   3  -4   91.09   27.00
 -11  -3  -4   14.90   39.70
 -11  -3  -4   79.09   36.60
  11   3   4   40.40   27.40
 -11   3  -4   49.90   26.60
 -11   3  -4   14.90   30.10
 -12  -3  -4   69.69   44.60
 -12  -3  -4   -1.90   39.70
  12   3   4   31.10   26.40
 -12   3  -4  -22.10   30.90
 -12   3  -4   88.09   30.40
 -10  -4   4   59.89   33.70
 -10  -4   4   98.29   50.89
  10   4  -4  108.19   32.70
  -9  -4   4   30.20   42.20
  -9  -4   4    0.10   32.30
   9   4  -4   -3.30   25.20
  -8  -4   4   76.89   41.80
   8  -4  -4  164.18   30.10
  -8  -4   4   89.69   39.30
   8   4  -4  117.79   31.30
   7  -4  -4  114.39   26.80
  -7  -4   4   58.99   32.40
  -7  -4   4   85.79   41.00
   7   4  -4   96.09   30.50
  -6  -4   4   80.99   40.30
   6  -4  -4   74.69   23.70
   6   4  -4  106.29   48.40
   5  -4  -4  326.97   37.00
  -5  -4   4  215.48   45.20
   5   4  -4  287.87   40.60
  -5   4   4  235.78   34.70
   4  -4  -4  192.98   27.90
  -4  -4   4  253.87   45.30
  -4   4   4  226.98   30.80
   4   4  -4  213.08   36.50
  -3  -4   4  183.18   29.10
  -3  -4   4  165.28   38.00
  -3   4   4  127.89   19.70
  -3   4   4  150.38   23.10
   3   4  -4  164.08   28.30
   3   4  -4  170.08   31.90
  -2  -4   4  189.48   39.80
   2   4  -4  212.68   31.80
  -2   4   4  181.58   24.70
   2   4  -4  207.98   29.90
  -1  -4   4  216.18   39.00
  -1  -4   4  165.38   26.40
   1  -4  -4  158.18   42.80
  -1   4   4  135.89   23.80
   1   4  -4  136.29   34.90
   1   4  -4  139.19   28.50
   0  -4  -4  252.47   47.10
   0  -4   4  225.58   28.50
   0  -4   4  208.68   37.40
   0   4  -4  182.48   26.60
   0   4   4  171.48   26.90
   1  -4   4  121.69   22.60
   1  -4   4  144.79   32.70
  -1  -4  -4  158.98   40.60
  -1   4  -4  149.09   22.20
   1   4   4  115.19   23.90
   2  -4   4  251.27   37.30
  -2  -4  -4  159.98   39.40
  -2  -4  -4  287.07   29.30
   2   4   4  220.78   31.80
  -2   4  -4  186.88   25.60
  -2   4  -4  178.18   24.90
  -3  -4  -4   12.10   34.00
  -3  -4  -4   49.30   21.70
   3  -4   4   60.79   27.60
   3   4   4   64.99   24.30
  -3   4  -4   62.79   17.80
  -3   4  -4   76.79   16.50
  -4  -4  -4  280.47   52.29
   4  -4   4  273.47   37.70
   4   4   4  185.48   34.50
  -4   4  -4  262.27   28.70
  -4   4  -4  145.49   27.70
   5  -4   4   30.40   25.00
  -5   4  -4   34.00   13.90
   5   4   4   -8.40   23.80
  -6  -4  -4  170.78   46.60
   6  -4   4  246.88   38.40
  -6   4  -4  225.58   28.30
  -7  -4  -4   35.80   36.00
  -7  -4  -4    6.60   33.90
  -7   4  -4   16.60   14.50
   7   4   4   -0.30   25.10
  -7   4  -4    8.60   14.80
  -8  -4  -4   27.60   38.90
  -8  -4  -4   44.40   37.80
   8   4   4   88.59   31.00
  -8   4  -4   19.70   17.40
  -9  -4  -4  -13.40   37.20
  -9  -4  -4   20.20   40.60
  -9   4  -4   11.00   17.20
   9   4   4   50.39   29.20
 -10  -4  -4   42.60   45.40
 -10  -4  -4   44.50   39.10
  10   4   4    0.90   29.90
 -10   4  -4  -27.40   16.60
  -6  -5   4  120.19   50.59
   6   5  -4   49.50   30.00
  -5  -5   4   90.79   47.00
   5   5  -4   56.39   34.20
   4  -5  -4   47.20   43.10
  -4  -5   4   46.20   43.80
   4   5  -4   35.20   31.30
  -3  -5   4   62.19   40.40
   3  -5  -4  117.69   49.40
  -3   5   4   43.80   16.00
   3   5  -4   62.69   32.00
   2  -5  -4   93.49   46.90
  -2  -5   4   98.99   42.40
   2   5  -4  103.39   33.40
  -2   5   4   81.79   21.60
   1  -5  -4  156.28   50.49
  -1  -5   4   46.30   38.60
  -1   5   4  111.29   26.00
   1   5  -4   97.39   33.50
   0  -5  -4  129.29   47.10
   0   5  -4   30.60   25.20
   0   5   4   58.49   25.70
   1  -5   4  157.08   41.90
  -1  -5  -4   32.10   41.10
  -1   5  -4   93.89   27.90
   1   5   4   79.69   27.60
   2  -5   4   13.80   35.40
  -2  -5  -4  141.79   51.09
  -2   5  -4   54.79   23.90
   2   5   4   83.19   28.90
  -3  -5  -4   14.80   45.10
   3  -5   4   79.69   32.70
  -3   5  -4   10.70   22.80
   3   5   4   -3.80   26.70
  -4  -5  -4   72.49   52.49
   4  -5   4   92.09   36.20
  -4   5  -4   53.79   23.20
   4   5   4   51.29   31.50
  -5  -5  -4   19.10   45.20
   5  -5   4  -11.60   30.50
  -5   5  -4   17.00   18.80
   5   5   4   28.10   28.80
 -15   0   5   -4.90   35.90
  15   0  -5   -8.50   16.00
  15   0  -5   14.60   28.90
 -15   0   5    0.60   27.60
 -14   0   5   22.30   33.20
 -14   0   5  -15.90   25.10
  14   0  -5   22.50   16.90
  14   0  -5   25.80   24.90
 -13   0   5  -67.39   26.70
 -13   0   5   -7.50   25.50
  13   0  -5    1.20   20.30
  13   0  -5    9.10   15.20
 -12   0   5   -3.60   30.70
  12   0  -5   -2.30   13.80
 -12   0   5   -0.90   21.10
  12   0  -5  -21.80   16.40
  11   0  -5    4.00   13.20
 -11   0   5   26.80   29.60
  11   0  -5   -0.50   17.00
 -11   0   5   13.50   20.80
 -10   0   5   10.20   14.10
  10   0  -5   20.50   12.70
 -10   0   5   10.10   26.00
 -10   0   5    6.80   18.50
  10   0  -5   20.20   17.70
  10   0  -5   14.30   16.40
   9   0  -5  -14.50   18.40
   9   0  -5    6.20   16.90
  -9   0   5   15.20   12.50
   9   0  -5   -0.10   10.40
  -9   0   5  -14.40   22.10
   9   0  -5    3.50   15.30
  -9   0   5   22.40   13.60
  -9   0   5    8.00   17.40
  -8   0   5    2.40   10.90
  -8   0   5   -8.20   13.60
   8   0  -5   39.30   28.50
   8   0  -5   -7.20    9.90
  -8   0   5   -5.70   21.20
  -8   0   5    6.50   11.30
   8   0  -5   -7.00   13.60
   8   0  -5    0.50   11.80
  -7   0   5   -2.90   12.00
  -7   0   5   -2.50   10.70
   7   0  -5   -1.60   15.70
  -7   0   5   -0.30   10.50
  -7   0   5    4.70   17.20
   7   0  -5    8.70   12.70
   7   0  -5  -10.60    8.10
   7   0  -5    3.00   10.60
   7   0  -5    4.40   13.20
   6   0  -5   -0.20   14.00
   6   0  -5  -19.70    7.30
  -6   0   5   11.50   15.50
  -6   0   5  -11.70   10.30
  -6   0   5    0.60    8.50
   6   0  -5    0.00   10.60
  -6   0   5    2.30    8.20
   6   0  -5  -10.20    9.30
   6   0  -5    5.60   12.60
   5   0  -5   15.90   12.40
   5   0  -5   -0.40    8.90
  -5   0   5    4.40   15.40
  -5   0   5   -3.80    9.60
   5   0  -5   -8.30   12.80
  -5   0   5   -9.90    8.20
  -5   0   5   -4.80    9.20
   5   0  -5    8.00    9.70
  -4   0   5    4.10    8.70
   4   0  -5  -13.60    9.30
  -4   0   5   -0.20    8.50
  -4   0   5   -6.30   13.40
   4   0  -5   -3.60    9.90
   4   0  -5   -3.40    9.30
   4   0  -5    3.80   12.10
  -3   0   5    2.80    7.00
  -3   0   5    8.60    9.40
   3   0  -5   13.30    8.90
  -3   0   5    1.20    8.70
   3   0  -5    3.60    9.20
   3   0  -5   -6.30    8.20
   3   0  -5    6.30   11.90
  -3   0   5  -10.40   12.50
   2   0  -5   -8.20    8.00
   2   0  -5    0.50   10.40
  -2   0   5   -0.60    7.70
   2   0  -5   12.20    9.50
  -2   0   5    1.10   11.70
  -2   0   5   -3.10    8.30
  -1   0   5   11.00    8.80
  -1   0   5   -7.30    8.00
   1   0  -5   -2.60    7.30
   1   0  -5    5.50    9.70
   1   0  -5   11.90    8.90
   0   0  -5   -0.60    9.00
   0   0   5   -2.00    7.90
   0   0  -5   10.30    7.30
   1   0   5    9.30    8.60
  -1   0  -5    2.30    9.10
  -1   0  -5   10.20    9.10
  -1   0  -5   -0.60    9.90
  -2   0  -5   -3.80   10.70
   2   0   5    3.40   10.70
  -2   0  -5   -0.10    6.30
  -2   0  -5   -0.40    8.80
  -3   0  -5   18.60   10.90
   3   0   5    2.30    7.60
   3   0   5   -9.90    9.90
   3   0   5    1.90   12.60
  -3   0  -5    1.60   11.20
  -3   0  -5   -1.00    8.30
   4   0   5    4.00    8.60
  -4   0  -5   11.70   13.20
   4   0   5    4.20   13.10
   4   0   5    3.50   10.10
  -4   0  -5  -15.40    7.80
  -4   0  -5   -7.70    9.30
  -5   0  -5   -4.60    9.20
  -5   0  -5  -14.60    8.30
   5   0   5    6.30   13.90
  -5   0  -5   -5.40   17.20
   5   0   5   -8.20   11.40
   5   0   5   -7.10    9.10
  -5   0  -5   -7.50   10.50
  -6   0  -5   -6.00    9.80
  -6   0  -5   -0.80   16.50
   6   0   5    4.00   12.30
   6   0   5  -15.00   12.40
  -6   0  -5   -1.80   11.00
   6   0   5    6.60   13.30
  -6   0  -5    7.60   13.40
  -7   0  -5    9.90   11.20
   7   0   5    4.90   15.90
   7   0   5  -11.70   12.80
  -7   0  -5    0.00   12.10
  -7   0  -5   12.20   15.70
  -7   0  -5  -26.40   17.50
  -8   0  -5  -14.90   20.40
   8   0   5    0.70   15.70
  -8   0  -5   26.80   15.30
  -8   0  -5    6.40   12.20
   8   0   5   -4.30   15.00
  -8   0  -5   -6.00   18.10
   8   0   5  -14.50   14.20
  -9   0  -5  -20.70   25.20
   9   0   5   -5.30   16.60
   9   0   5   -7.20   15.00
  -9   0  -5   -5.50   13.20
  -9   0  -5   19.90   25.90
 -10   0  -5   -7.40   26.40
  10   0   5   16.10   17.20
 -10   0  -5  -11.60   24.20
  10   0   5    4.20   22.30
  11   0   5  -36.10   18.10
 -11   0  -5    1.60   26.80
 -11   0  -5    5.50   26.80
  12   0   5  -10.80   19.30
 -12   0  -5  -39.80   46.60
 -12   0  -5   18.70   29.80
 -13   0  -5   59.79   33.40
 -13   0  -5   32.60   31.40
  13   0   5  -30.40   18.60
 -14   0  -5  -16.10   31.20
 -14   0  -5    6.90   32.70
 -15  -1   5   57.29   37.30
 -15  -1   5   27.90   33.90
  15  -1  -5   38.50   26.10
 -15   1   5   -2.60   24.50
  15   1  -5   16.50   18.70
 -14  -1   5    8.10   26.40
  14  -1  -5   10.00   22.60
 -14  -1   5   15.40   37.10
 -14   1   5   -4.90   23.70
  14   1  -5    4.40   16.80
  14   1  -5    4.40   26.10
 -13  -1   5   33.50   26.50
 -13  -1   5   40.40   40.50
  13  -1  -5   43.90   22.70
 -13   1   5   39.80   33.60
 -13   1   5   49.40   29.10
  13   1  -5   35.20   22.90
  13   1  -5   37.60   19.40
 -12  -1   5   31.50   27.00
  12  -1  -5   18.50   18.20
 -12  -1   5   75.09   33.60
 -12   1   5   37.60   20.80
 -12   1   5   46.70   31.80
  12   1  -5    6.40   18.30
  12   1  -5   11.60   20.10
 -11  -1   5   56.59   34.00
 -11  -1   5   72.59   30.50
  11  -1  -5   60.59   21.30
  11   1  -5   74.49   21.00
 -11   1   5   42.00   22.70
  11   1  -5   32.50   16.90
 -11   1   5   38.70   30.60
 -10  -1   5   19.30   22.90
  10  -1  -5    1.70   17.90
 -10  -1   5    3.60   27.60
 -10  -1   5    3.40   14.50
 -10   1   5    5.80   26.30
 -10   1   5    7.10   17.20
 -10   1   5    9.00   12.90
  10   1  -5   12.80   15.60
  10   1  -5   -5.90   14.90
   9  -1  -5    7.90   14.50
  -9  -1   5   30.50   13.80
   9  -1  -5   26.80   14.50
  -9  -1   5   17.50   19.20
   9  -1  -5   17.90   20.80
  -9  -1   5   26.80   23.60
  -9   1   5   23.70   18.90
  -9   1   5   -7.20   12.40
   9   1  -5   17.30   14.60
   9   1  -5   27.00   14.70
  -9   1   5   31.70   25.10
   8  -1  -5   19.90   13.70
  -8  -1   5   27.50   23.40
  -8  -1   5    8.30   13.00
  -8  -1   5   19.20   13.70
   8  -1  -5   56.69   17.10
   8  -1  -5   12.80   19.30
  -8  -1   5   21.80   20.50
  -8   1   5   30.10   12.70
  -8   1   5   34.90   15.00
  -8   1   5   10.60   15.60
   8   1  -5   20.80   13.20
  -8   1   5   24.70   22.20
   8   1  -5   30.70   13.20
   8   1  -5   29.80   19.30
  -7  -1   5   33.70   19.90
   7  -1  -5   15.10   12.70
   7  -1  -5   15.00   12.00
   7  -1  -5   10.40   16.60
  -7  -1   5   25.70   11.30
  -7  -1   5   29.60   18.50
  -7  -1   5    4.80   12.40
  -7   1   5    0.00   12.90
  -7   1   5   15.80   11.50
  -7   1   5   21.70   14.30
   7   1  -5    8.90   16.60
   7   1  -5    9.50   11.40
   7   1  -5    9.10   11.90
   7   1  -5    0.20   13.30
  -6  -1   5  155.18   24.70
  -6  -1   5  169.28   26.00
   6  -1  -5  143.69   19.90
   6  -1  -5  104.99   17.60
  -6  -1   5  125.19   18.20
  -6  -1   5  144.59   20.50
   6  -1  -5  125.99   23.20
  -6   1   5  165.08   20.90
   6   1  -5  116.79   17.70
   6   1  -5  160.08   26.30
   6   1  -5  149.79   21.20
   6   1  -5  135.49   18.40
  -6   1   5  112.29   19.30
  -5  -1   5  482.45   42.20
  -5  -1   5  416.46   40.60
  -5  -1   5  477.75   45.10
   5  -1  -5  389.36   43.30
   5  -1  -5  409.46   39.70
   5  -1  -5  401.76   39.50
   5   1  -5  405.76   43.80
  -5   1   5  466.35   39.50
   5   1  -5  418.36   38.20
   5   1  -5  409.06   41.80
  -5   1   5  481.65   40.80
  -5   1   5  481.95   37.90
  -4  -1   5  213.18   24.40
   4  -1  -5  194.78   20.00
   4  -1  -5  185.78   23.10
   4  -1  -5  246.48   28.40
   4  -1  -5  188.98   24.10
  -4  -1   5  184.68   21.30
  -4  -1   5  230.98   24.90
  -4  -1   5  200.78   25.70
   4   1  -5  206.08   21.30
  -4   1   5  208.88   22.60
   4   1  -5  185.68   23.40
   4   1  -5  214.88   26.70
  -4   1   5  176.68   23.20
  -4   1   5  180.88   19.80
  -3  -1   5  374.26   31.60
   3  -1  -5  328.67   33.10
  -3  -1   5  328.17   33.40
   3  -1  -5  346.67   30.20
  -3  -1   5  399.66   36.50
  -3  -1   5  356.66   32.30
   3  -1  -5  333.67   32.70
   3  -1  -5  343.57   36.20
  -3   1   5  407.46   34.60
  -3   1   5  359.36   33.20
   3   1  -5  364.96   31.90
  -3   1   5  360.96   30.30
   3   1  -5  403.26   34.80
   3   1  -5  309.27   35.00
   2  -1  -5  179.48   20.70
   2  -1  -5  208.58   20.70
  -2  -1   5  185.08   23.00
  -2  -1   5  190.08   22.10
   2  -1  -5  149.49   17.30
   2   1  -5  202.68   22.20
  -2   1   5  196.18   17.80
  -2   1   5  171.68   20.70
   2   1  -5  161.58   19.70
   2   1  -5  170.78   22.80
   1  -1  -5   34.30    9.70
   1  -1  -5   41.30    8.50
  -1  -1   5   37.50   10.00
  -1  -1   5   33.00   10.60
   1  -1  -5   28.90    7.50
  -1   1   5   13.50    9.10
   1   1  -5   33.00   10.00
  -1   1   5   25.60    8.20
   1   1  -5   35.20   10.90
   0  -1  -5   95.89   13.70
   0  -1   5   66.09   11.90
   0  -1   5   78.99   15.00
   0  -1  -5  116.89   12.70
   0  -1  -5  146.69   14.60
   0  -1   5   95.09   12.30
   0   1  -5  128.29   15.30
   0   1  -5  110.69   13.30
   0   1   5   84.99   12.60
   1  -1   5   44.70   10.70
  -1  -1  -5   85.59   12.00
   1  -1   5   51.89   13.40
  -1  -1  -5   82.19   11.40
   1  -1   5   51.69    9.10
  -1   1  -5   86.69   14.30
  -1   1  -5   88.69   11.80
   1   1   5   51.39   10.90
   2  -1   5  153.98   15.20
  -2  -1  -5  180.38   22.10
   2  -1   5  188.88   15.40
   2  -1   5  188.38   21.10
  -2  -1  -5  175.58   19.50
  -2   1  -5  171.78   21.10
  -2   1  -5  220.48   21.90
   2   1   5  178.88   20.30
   3  -1   5   97.19   17.20
  -3  -1  -5  126.59   15.50
  -3  -1  -5  172.28   19.80
  -3  -1  -5  152.68   19.80
   3  -1   5   81.39   12.40
  -3   1  -5  156.78   19.00
   3   1   5  104.39   15.80
  -3   1  -5  153.58   18.50
   4  -1   5   36.80    8.70
   4  -1   5   51.29   14.40
  -4  -1  -5   51.39   14.80
  -4  -1  -5   36.80   16.70
  -4  -1  -5   33.20   10.60
  -4   1  -5   44.70   12.10
  -4   1  -5   51.49   15.00
  -4   1  -5   29.80   11.40
   4   1   5   42.00   11.80
  -4   1  -5   38.50   13.70
  -5  -1  -5  253.77   28.50
   5  -1   5  154.08   20.60
   5  -1   5  192.58   24.80
  -5  -1  -5  220.58   28.70
  -5  -1  -5  184.08   22.30
   5   1   5  205.48   24.20
  -5   1  -5  199.68   22.60
  -5   1  -5  151.58   24.90
  -5   1  -5  212.48   24.60
   5   1   5  163.38   23.20
  -6  -1  -5  129.89   19.10
   6  -1   5  114.39   20.90
  -6  -1  -5  171.58   27.00
  -6  -1  -5  185.28   25.50
  -6  -1  -5  104.19   17.00
   6  -1   5  135.69   18.10
   6   1   5  116.59   19.30
   6   1   5  132.29   22.10
  -6   1  -5   94.99   17.30
  -6   1  -5  167.78   18.60
  -6   1  -5  102.29   25.30
  -7  -1  -5  136.29   25.40
  -7  -1  -5   76.09   26.80
   7  -1   5  111.89   25.90
  -7  -1  -5  100.19   16.40
   7  -1   5   83.39   25.40
  -7  -1  -5  110.49   18.10
  -7   1  -5   98.49   16.30
   7   1   5   44.90   16.50
  -7   1  -5   99.59   19.90
   7   1   5   48.20   18.20
  -7   1  -5   59.79   14.90
  -7   1  -5   79.89   23.10
  -8  -1  -5   37.40   27.30
  -8  -1  -5   54.39   24.00
   8  -1   5   50.19   17.20
  -8  -1  -5   27.70   13.60
   8  -1   5   52.79   29.20
   8   1   5   32.10   18.00
   8   1   5   53.69   23.80
  -8   1  -5   38.50   19.30
  -8   1  -5   55.49   24.80
  -8   1  -5   34.90   14.00
  -9  -1  -5   62.69   31.60
   9  -1   5   82.39   20.60
  -9  -1  -5   88.49   27.10
  -9  -1  -5   82.89   19.30
   9   1   5   64.99   20.20
  -9   1  -5  139.99   26.80
  -9   1  -5   89.99   17.90
  -9   1  -5   72.59   30.50
   9   1   5  105.19   26.20
 -10  -1  -5   46.60   28.50
  10  -1   5   52.39   19.50
 -10  -1  -5   32.10   28.60
 -10   1  -5    0.80   16.20
 -10   1  -5   23.50   26.50
  10   1   5   -5.80   18.10
 -11  -1  -5   95.29   31.30
 -11  -1  -5  105.89   32.30
  11  -1   5  105.09   26.00
  11   1   5  144.59   29.40
 -11   1  -5  122.49   33.90
 -11   1  -5  102.99   29.50
 -12  -1  -5   40.90   32.30
 -12  -1  -5   15.50   29.20
 -12   1  -5   23.80   29.70
  12   1   5   41.30   24.50
 -12   1  -5   31.30   26.30
 -13  -1  -5   38.20   32.80
 -13  -1  -5   16.40   32.70
  13   1   5   34.70   26.30
 -13   1  -5   10.00   33.10
 -14  -1  -5   27.90   36.10
 -14  -1  -5   41.40   33.30
 -14   1  -5   13.90   32.40
  14   1   5   36.20   26.10
 -14  -2   5    0.00   38.70
  14  -2  -5   -1.50   24.30
 -14  -2   5   25.70   29.70
  14   2  -5   -2.80   22.20
 -14   2   5   -0.90   24.80
 -13  -2   5   48.40   32.00
 -13  -2   5  -30.70   32.70
  13  -2  -5   21.30   26.90
 -13   2   5   18.50   24.20
  13   2  -5  -21.50   20.50
 -12  -2   5   -3.60   29.70
  12  -2  -5   46.20   25.70
 -12  -2   5   13.20   33.10
  12   2  -5   18.80   19.80
 -12   2   5   26.60   49.60
  12   2  -5   57.29   23.90
  11  -2  -5    5.00   17.80
 -11  -2   5   52.89   29.40
 -11  -2   5    7.60   16.10
 -11  -2   5   -5.60   27.70
  11   2  -5   36.60   19.80
  11   2  -5   28.00   20.00
 -11   2   5  -13.90   17.10
  10  -2  -5  103.79   23.40
 -10  -2   5   76.29   28.90
 -10  -2   5   65.49   17.40
 -10  -2   5   30.70   28.70
 -10   2   5   80.79   15.80
  10   2  -5   92.59   24.30
 -10   2   5   63.79   20.70
  10   2  -5   89.39   20.40
  -9  -2   5  118.49   32.20
   9  -2  -5   51.89   19.50
  -9  -2   5   73.19   17.40
  -9  -2   5   95.39   31.40
  -9   2   5  115.19   28.50
  -9   2   5   89.49   15.50
   9   2  -5   44.60   20.10
   9   2  -5  108.89   19.70
  -8  -2   5  221.48   23.60
  -8  -2   5  292.57   37.00
  -8  -2   5  175.38   33.50
   8  -2  -5  161.98   26.50
   8   2  -5  142.19   22.60
   8   2  -5  131.09   24.70
  -8   2   5  191.58   29.90
  -8   2   5  206.38   22.40
   7  -2  -5   78.09   23.60
  -7  -2   5   96.89   15.60
  -7  -2   5   75.69   23.50
  -7  -2   5   59.39   19.60
  -7  -2   5   49.20   26.90
   7  -2  -5   67.19   18.90
   7  -2  -5   81.69   18.80
  -7   2   5  119.09   20.40
   7   2  -5   65.19   18.80
   7   2  -5   55.39   17.30
   7   2  -5   62.39   14.20
   7   2  -5   42.10   23.70
  -7   2   5   74.29   12.30
  -7   2   5   79.99   22.20
  -6  -2   5  417.36   42.90
   6  -2  -5  330.87   37.90
  -6  -2   5  379.86   47.20
  -6  -2   5  395.96   41.10
  -6  -2   5  389.46   33.40
  -6   2   5  397.96   40.20
   6   2  -5  300.17   39.70
   6   2  -5  325.87   46.50
  -6   2   5  372.46   37.20
   6   2  -5  341.37   33.20
   6   2  -5  348.87   37.60
  -5  -2   5   55.79   11.80
  -5  -2   5   74.79   18.60
   5  -2  -5   82.29   16.90
  -5  -2   5   69.39   17.80
   5  -2  -5   84.99   16.70
   5  -2  -5   72.99   19.80
  -5   2   5   99.59   32.50
   5   2  -5   46.70   18.80
   5   2  -5   61.09   11.50
   5   2  -5   54.89   17.90
  -5   2   5   82.79   15.50
   5   2  -5   77.49   17.40
  -4  -2   5  160.38   27.20
   4  -2  -5  190.28   21.30
  -4  -2   5  129.49   21.80
   4  -2  -5  119.59   20.40
  -4   2   5  136.09   19.50
   4   2  -5  186.98   23.80
   4   2  -5  165.78   23.70
  -3  -2   5  266.47   34.50
  -3  -2   5  247.58   29.70
   3  -2  -5  283.37   30.20
   3  -2  -5  268.97   27.90
   3   2  -5  269.87   24.90
  -3   2   5  271.67   27.80
   3   2  -5  270.57   31.80
   3   2  -5  264.57   31.00
   2  -2  -5  212.78   22.90
  -2  -2   5  187.58   23.20
  -2  -2   5  195.08   25.60
   2  -2  -5  227.38   26.00
   2   2  -5  235.18   21.10
   2   2  -5  221.28   26.70
  -2   2   5  175.28   21.80
   2   2  -5  228.18   26.70
  -2   2   5  168.58   19.00
  -1  -2   5   57.79   15.80
  -1  -2   5   59.89   14.80
   1  -2  -5   63.99   10.40
   1  -2  -5   78.09   12.30
  -1  -2   5   47.70   13.80
  -1   2   5   56.29   11.60
  -1   2   5   41.40    9.90
   1   2  -5   69.69   13.80
   0  -2   5  154.98   19.90
   0  -2   5  178.98   20.70
   0  -2   5  170.88   21.00
   0  -2  -5  161.68   18.30
   0   2  -5  151.58   20.00
   0   2   5  144.99   18.10
   1  -2   5  360.36   36.70
   1  -2   5  433.96   37.70
  -1  -2  -5  374.16   34.00
   1  -2   5  383.26   36.20
  -1  -2  -5  395.06   35.00
  -1   2  -5  426.96   37.50
   1   2   5  384.36   35.60
   2  -2   5  111.89   18.20
   2  -2   5  151.08   19.00
  -2  -2  -5  117.49   24.10
  -2  -2  -5   95.09   13.60
  -2  -2  -5   73.59   14.80
   2  -2   5  150.98   16.90
  -2   2  -5   85.39   15.00
   2   2   5  143.09   17.80
  -2   2  -5   91.39   17.10
  -3  -2  -5  321.87   27.80
   3  -2   5  279.67   31.80
  -3  -2  -5  319.77   38.80
  -3  -2  -5  289.37   29.50
  -3   2  -5  327.77   33.30
  -3   2  -5  274.57   29.70
  -3   2  -5  250.57   31.10
   3   2   5  273.97   30.60
  -4  -2  -5  362.56   35.10
  -4  -2  -5  420.06   44.10
   4  -2   5  340.77   37.90
   4  -2   5  310.97   33.40
  -4   2  -5  391.56   39.60
  -4   2  -5  347.07   34.90
  -4   2  -5  400.06   37.00
   4   2   5  332.47   36.40
  -5  -2  -5   36.40   14.70
   5  -2   5   52.29   17.60
   5  -2   5   28.10   12.10
  -5  -2  -5   39.30   20.10
  -5  -2  -5   43.30   12.30
  -5  -2  -5   15.40   20.10
  -5   2  -5   32.60   13.20
   5   2   5   31.80   15.30
  -5   2  -5   49.50   18.20
  -5   2  -5   40.60   16.20
  -6  -2  -5   34.40   16.70
  -6  -2  -5   33.80   23.90
  -6  -2  -5   77.79   26.10
  -6  -2  -5   51.09   16.50
  -6  -2  -5   19.70   11.40
   6  -2   5   39.20   17.50
  -6   2  -5   48.00   15.00
  -6   2  -5   54.49   20.30
   6   2   5   30.20   16.80
  -6   2  -5   41.30   18.50
  -6   2  -5   24.40   12.30
  -7  -2  -5   -8.50   21.90
  -7  -2  -5   15.00   12.10
  -7  -2  -5   -4.70   22.20
   7  -2   5   12.20   14.10
   7   2   5  -11.60   15.60
  -7   2  -5   33.30   17.70
  -7   2  -5   45.30   24.10
  -7   2  -5   13.50   11.80
   8  -2   5   55.39   17.70
  -8  -2  -5   46.70   28.50
  -8  -2  -5   67.29   30.10
  -8  -2  -5   48.90   14.90
  -8   2  -5   16.50   22.60
  -8   2  -5   18.00   12.30
  -8   2  -5   68.49   20.90
   8   2   5   47.50   19.40
  -9  -2  -5  -26.50   26.30
  -9  -2  -5   30.30   29.30
   9  -2   5   28.80   18.30
   9   2   5   17.70   19.50
  -9   2  -5   -5.20   21.60
  -9   2  -5   -9.90   19.50
  -9   2  -5   20.90   12.50
 -10  -2  -5   19.70   16.60
 -10  -2  -5  104.49   37.90
 -10  -2  -5   54.59   34.40
  10  -2   5   84.49   21.70
 -10   2  -5   86.49   17.20
  10   2   5   64.89   24.50
 -10   2  -5  109.59   26.40
 -10   2  -5   62.59   33.60
 -11  -2  -5   54.19   35.00
 -11  -2  -5   70.19   35.20
  11  -2   5   58.89   25.20
  11   2   5   24.00   24.60
 -11   2  -5   92.99   40.70
 -11   2  -5   56.99   26.80
 -12  -2  -5   37.90   35.60
 -12  -2  -5   25.50   34.40
  12   2   5   67.19   26.80
 -12   2  -5   45.20   26.30
 -12   2  -5   44.60   34.50
 -13  -2  -5   75.69   41.20
 -13  -2  -5   17.20   40.20
  13   2   5   42.80   27.20
 -13   2  -5   75.59   30.50
 -13   2  -5   11.60   27.30
  13  -3  -5   74.49   29.80
 -13  -3   5    5.90   32.70
 -13  -3   5    7.30   35.10
  13   3  -5   89.39   28.50
 -13   3   5   46.60   28.70
 -12  -3   5   32.70   32.80
  12  -3  -5  -19.80   26.80
 -12  -3   5   15.90   32.60
  12   3  -5    4.30   25.10
 -12   3   5    8.90   26.00
  11  -3  -5   57.89   28.60
 -11  -3   5   79.09   37.40
 -11  -3   5   58.49   39.90
  11   3  -5   67.99   27.30
 -11   3   5   87.19   31.30
  10  -3  -5   50.49   24.00
 -10  -3   5   39.50   33.10
 -10  -3   5   38.20   28.40
 -10   3   5   -9.80   39.60
  10   3  -5   17.70   24.70
  -9  -3   5  157.58   35.70
  -9  -3   5  164.18   40.90
   9  -3  -5   74.69   26.00
  -9   3   5  123.99   29.40
   9   3  -5  148.49   28.50
  -8  -3   5   84.69   39.10
   8  -3  -5   84.29   26.10
  -8  -3   5   52.09   26.50
   8   3  -5   63.59   24.50
   7  -3  -5  383.56   43.60
  -7  -3   5  404.16   48.80
  -7  -3   5  358.96   51.49
   7   3  -5  390.46   47.60
   7   3  -5  320.77   43.30
  -6  -3   5  173.08   37.50
  -6  -3   5  113.49   27.60
   6  -3  -5  171.08   26.80
   6   3  -5  183.68   30.80
   6   3  -5  155.38   27.10
  -6   3   5  182.18   27.10
   5  -3  -5  559.24   52.59
  -5  -3   5  466.15   55.59
  -5  -3   5  611.34   65.09
   5   3  -5  577.64   56.79
   5   3  -5  591.64   54.99
  -4  -3   5  126.19   29.80
   4  -3  -5   89.19   18.60
  -4  -3   5  103.89   22.40
  -4   3   5  128.29   20.00
   4   3  -5   79.29   21.60
   4   3  -5   65.99   21.00
   4   3  -5   74.89   25.30
  -3  -3   5  489.75   49.20
   3  -3  -5  496.05   45.60
  -3  -3   5  492.75   55.09
   3   3  -5  513.95   50.69
  -3   3   5  494.05   45.20
  -2  -3   5   66.29   23.40
  -2  -3   5   96.49   20.10
   2  -3  -5  145.79   17.70
   2  -3  -5  125.99   24.50
  -2   3   5  101.89   16.60
  -2   3   5   62.69   14.10
   2   3  -5   96.59   21.50
  -1  -3   5  445.16   43.00
  -1  -3   5  462.75   53.79
   1  -3  -5  421.66   39.10
  -1  -3   5  433.26   45.20
   1   3  -5  485.65   45.10
  -1   3   5  415.46   39.60
   0  -3   5  160.38   26.70
   0  -3   5  151.58   27.80
   0  -3   5  198.38   23.00
   0  -3  -5  180.38   18.60
   0   3  -5  104.59   16.70
   0   3   5  136.99   20.30
   0   3  -5  107.89   20.80
   1  -3   5  245.68   45.20
  -1  -3  -5  318.57   41.30
   1  -3   5  232.08   30.30
   1  -3   5  257.17   35.00
  -1  -3  -5  224.78   26.00
  -1   3  -5  221.48   27.00
  -1   3  -5  306.07   31.60
   1   3   5  265.77   29.50
   2  -3   5   96.69   22.80
  -2  -3  -5   81.99   27.30
  -2  -3  -5   74.39   16.60
   2  -3   5  113.39   22.30
  -2   3  -5  122.89   19.40
  -2   3  -5   80.69   16.00
   2   3   5   96.29   19.10
   3  -3   5  236.78   32.00
  -3  -3  -5  350.76   44.80
  -3  -3  -5  278.97   31.10
   3  -3   5  233.88   33.60
  -3   3  -5  286.67   31.00
  -3   3  -5  341.27   33.20
   3   3   5  213.48   31.50
  -4  -3  -5   -4.00   13.60
   4  -3   5   25.30   17.10
  -4  -3  -5   -4.10   25.20
  -4   3  -5   29.00   15.10
   4   3   5   14.90   17.70
  -4   3  -5   17.70   15.40
   5  -3   5  132.39   23.60
  -5  -3  -5  153.18   37.60
  -5  -3  -5  142.19   23.90
  -5   3  -5  203.68   25.40
  -5   3  -5  129.49   22.40
   5   3   5  123.59   24.90
  -6  -3  -5   31.10   32.50
  -6  -3  -5    6.90   26.40
   6  -3   5   41.70   18.40
   6   3   5   30.40   21.10
  -6   3  -5   27.30   22.70
  -6   3  -5    3.90   21.30
  -7  -3  -5   55.89   30.20
   7  -3   5   53.69   19.60
  -7  -3  -5   50.39   34.70
  -7   3  -5   32.40   21.60
   7   3   5   24.30   21.40
  -7   3  -5   39.30   28.50
  -8  -3  -5   -0.70   32.50
  -8  -3  -5   -7.10   32.10
   8  -3   5   50.19   19.80
  -8   3  -5   54.19   22.50
  -8   3  -5   45.90   13.60
  -8   3  -5   14.00   29.50
   8   3   5   75.19   26.10
  -9  -3  -5   63.99   32.70
   9  -3   5  121.99   24.60
  -9   3  -5   25.70   15.40
   9   3   5  159.78   32.60
  -9   3  -5   72.49   25.30
 -10  -3  -5    1.70   15.80
 -10  -3  -5   15.30   36.60
  10  -3   5   18.20   25.20
 -10  -3  -5  -37.90   32.20
  10   3   5   37.80   26.00
 -10   3  -5  -26.00   15.70
 -10   3  -5   19.80   25.00
 -10   3  -5   39.30   32.60
 -11  -3  -5    2.60   39.00
 -11  -3  -5   65.29   44.20
 -11   3  -5   97.19   29.00
 -11   3  -5   38.10   30.90
  11   3   5   89.09   30.80
 -12  -3  -5   13.70   41.40
 -12  -3  -5  123.09   48.30
 -12   3  -5   25.00   38.10
 -12   3  -5   27.40   26.70
  12   3   5   37.80   28.40
 -10  -4   5   66.19   42.40
  10  -4  -5  117.99   31.30
 -10  -4   5   84.09   42.00
  10   4  -5   98.79   32.60
  -9  -4   5  -26.00   28.70
   9  -4  -5   41.80   29.10
  -9  -4   5   42.40   40.20
   9   4  -5   28.40   28.30
  -8  -4   5   45.40   40.30
   8  -4  -5  148.09   29.20
   8   4  -5   57.89   29.90
  -7  -4   5   66.39   30.50
   7  -4  -5   69.19   24.00
  -7  -4   5   47.20   38.20
   7   4  -5   61.49   29.00
  -6  -4   5   17.60   37.70
   6  -4  -5   57.39   22.20
   5  -4  -5  163.78   27.40
  -5  -4   5  150.38   40.70
  -5   4   5  130.19   27.40
   5   4  -5  128.19   31.20
   5   4  -5  150.88   31.10
   4  -4  -5  250.97   30.70
  -4  -4   5  274.77   44.90
   4   4  -5  207.78   32.80
   4   4  -5  188.18   35.30
  -3  -4   5   59.39   33.30
   3  -4  -5   71.59   18.90
  -3   4   5   79.59   15.10
   3   4  -5   89.49   26.00
   3   4  -5   92.39   25.60
  -3   4   5   64.09   18.30
  -2  -4   5  324.67   38.20
  -2  -4   5  242.68   42.90
   2   4  -5  316.57   39.60
   2   4  -5  277.07   38.30
  -2   4   5  278.47   32.00
   1  -4  -5  123.59   43.10
  -1  -4   5  175.68   36.20
  -1   4   5   94.99   20.30
   1   4  -5   92.39   23.30
   0  -4   5  223.68   29.90
   0  -4   5  219.48   38.10
   0  -4  -5  249.78   48.10
   0   4  -5  196.58   32.80
   0   4   5  211.78   29.60
  -1  -4  -5  140.79   39.80
   1  -4   5  104.89   30.70
   1  -4   5  105.89   21.30
   1   4   5   77.69   22.90
  -1   4  -5   94.09   21.70
  -2  -4  -5  273.77   36.90
  -2  -4  -5  231.68   46.70
   2  -4   5  314.97   42.80
  -2   4  -5  307.27   33.70
  -2   4  -5  385.26   37.80
   2   4   5  353.96   39.90
  -3  -4  -5   92.19   36.70
  -3  -4  -5   24.10   21.50
   3  -4   5  112.49   28.50
  -3   4  -5   44.10   16.90
   3   4   5   30.20   22.40
  -3   4  -5   29.70   17.40
   4  -4   5  365.36   47.70
  -4  -4  -5  304.97   56.89
   4   4   5  409.36   44.40
  -4   4  -5  343.67   36.50
  -4   4  -5  226.78   34.80
   5  -4   5    5.50   23.30
   5  -4   5   36.30   23.40
  -5  -4  -5  -19.00   36.40
   5   4   5   19.10   24.80
  -5   4  -5   21.10   15.70
   6  -4   5  149.19   30.70
  -6  -4  -5  143.59   42.60
   6  -4   5   77.79   28.30
  -6  -4  -5  138.69   39.40
  -6   4  -5   83.89   22.50
   6   4   5  142.89   46.20
  -7  -4  -5  -12.60   35.90
  -7  -4  -5  -63.39   32.70
   7  -4   5   38.30   25.30
  -7   4  -5   12.90   19.60
   7   4   5   19.00   26.10
  -8  -4  -5   40.00   45.00
  -8  -4  -5   80.19   37.90
   8   4   5    8.30   30.40
  -8   4  -5   52.09   18.60
  -9  -4  -5    5.00   46.70
  -9  -4  -5   52.19   41.60
  -9   4  -5  -15.90   17.40
   9   4   5  -21.60   28.80
  -5  -5   5   67.99   44.60
   5   5  -5   82.09   33.90
   4  -5  -5   33.70   46.70
  -4  -5   5   27.90   43.40
   4   5  -5    7.50   28.00
   3  -5  -5  175.78   56.49
  -3  -5   5  205.28   49.70
   3   5  -5  155.08   37.10
  -2  -5   5   92.19   36.80
   2  -5  -5   64.09   47.80
   2   5  -5  -15.80   26.70
  -2   5   5   26.90   17.40
   1  -5  -5  281.87   58.79
  -1  -5   5  248.88   71.29
   1   5  -5  199.68   37.40
  -1   5   5  211.58   31.30
   0  -5  -5   44.70   44.90
   0  -5   5   86.59   40.20
   0   5   5   47.70   23.90
   0   5  -5   86.39   38.00
   1  -5   5  129.39   40.30
  -1  -5  -5   82.49   43.00
  -1   5  -5  103.79   28.70
   1   5   5  119.89   30.10
  -2  -5  -5   23.90   48.50
   2  -5   5   47.70   32.40
   2   5   5   12.40   26.10
  -2   5  -5   27.40   15.30
  -2   5  -5   24.20   24.20
  -3  -5  -5   58.69   46.50
   3  -5   5  146.69   39.60
   3   5   5  141.19   33.40
  -3   5  -5  113.59   28.40
   4  -5   5  123.39   35.10
  -4  -5  -5  -10.70   48.50
  -4   5  -5   37.30   24.80
   4   5   5   30.30   29.80
   5  -5   5   99.19   33.60
  -5  -5  -5   78.99   48.00
  15   0  -6  184.18   34.50
 -15   0   6  139.99   43.90
  15   0  -6  214.18   28.20
 -15   0   6  158.98   38.40
  14   0  -6   80.79   19.10
  14   0  -6   69.19   27.40
 -14   0   6   55.59   35.00
 -14   0   6   15.50   35.30
 -13   0   6  104.89   42.00
  13   0  -6  129.89   21.20
 -13   0   6  123.69   30.10
  13   0  -6   76.49   26.10
  12   0  -6  346.97   40.70
 -12   0   6  559.24   58.49
  12   0  -6  387.66   47.30
 -12   0   6  490.45   62.19
 -11   0   6  118.79   27.40
 -11   0   6  102.99   34.70
  11   0  -6  212.28   24.30
  11   0  -6  137.59   25.30
  10   0  -6  545.05   53.49
 -10   0   6  557.14   64.99
  10   0  -6  525.05   48.80
 -10   0   6  542.65   55.79
  10   0  -6  604.24   55.69
  -9   0   6  337.37   38.90
   9   0  -6  411.76   49.70
  -9   0   6  415.26   52.69
   9   0  -6  456.65   43.60
   9   0  -6  384.06   36.30
  -9   0   6  367.86   39.60
  -9   0   6  391.86   42.80
   9   0  -6  392.26   40.80
  -8   0   6 1091.69   90.19
  -8   0   6 1128.09   91.69
   8   0  -6 1079.89   92.29
   8   0  -6 1054.99   90.39
   8   0  -6 1077.49   99.89
   8   0  -6 1075.59   87.79
  -8   0   6 1203.08   97.99
  -8   0   6 1062.79   90.29
   7   0  -6 1100.79   85.69
   7   0  -6 1033.60   82.99
   7   0  -6 1051.69   85.89
   7   0  -6  964.70   86.49
  -7   0   6 1040.70   85.69
  -7   0   6 1006.30   85.29
   7   0  -6 1040.20   89.89
  -7   0   6 1060.19   85.19
   6   0  -6 1206.38  100.19
   6   0  -6 1172.98   96.39
  -6   0   6 1267.67   96.49
  -6   0   6 1208.58   96.29
   6   0  -6 1188.58   97.59
   6   0  -6 1092.59   96.49
   6   0  -6 1161.48   94.39
  -6   0   6 1208.88   96.59
  -6   0   6 1255.77  101.49
  -5   0   6  226.68   26.40
   5   0  -6  303.27   27.50
   5   0  -6  298.07   28.30
  -5   0   6  204.68   26.40
  -5   0   6  219.98   25.50
   5   0  -6  284.67   28.30
   5   0  -6  290.07   31.70
  -5   0   6  232.78   32.60
   4   0  -6 1054.29   92.79
   4   0  -6 1034.60   93.09
   4   0  -6 1083.19   93.39
  -4   0   6 1387.06   92.39
   4   0  -6 1026.30   95.29
  -4   0   6 1411.36   93.79
   3   0  -6 1602.44  125.49
   3   0  -6 1455.55  123.09
   3   0  -6 1488.95  122.99
  -3   0   6 1609.24  123.09
   3   0  -6 1464.35  121.79
  -3   0   6 1635.04  125.29
  -3   0   6 1668.23  124.39
  -3   0   6 1615.54  121.39
  -2   0   6 2992.00  233.88
  -2   0   6 3021.50  234.88
   2   0  -6 2989.70  235.08
  -2   0   6 3007.80  233.78
   2   0  -6 3073.49  234.18
   2   0  -6 3055.39  233.88
   1   0  -6 2627.64  214.88
   1   0  -6 2803.02  214.78
  -1   0   6 2846.82  214.78
   1   0  -6 2812.02  214.58
   0   0  -6 1638.44  126.39
   0   0   6 1581.84  126.09
   1   0   6 2596.94  192.28
  -1   0  -6 2429.46  192.78
  -1   0  -6 2457.55  192.88
  -1   0  -6 2455.05  193.28
  -2   0  -6 2131.69  168.98
  -2   0  -6 2217.68  171.48
   2   0   6 2179.68  170.68
  -2   0  -6 2168.68  171.18
  -2   0  -6 2260.47  172.28
  -3   0  -6  882.91   70.29
  -3   0  -6  885.21   67.89
   3   0   6  727.33   68.79
  -3   0  -6  831.02   66.59
  -4   0  -6 1649.93  119.09
  -4   0  -6 1611.94  116.09
   4   0   6 1329.67  115.89
  -4   0  -6 1552.74  115.19
   4   0   6 1364.46  117.19
   4   0   6 1288.57  114.19
   5   0   6  140.69   20.80
   5   0   6  181.38   24.10
   5   0   6  147.89   21.10
  -5   0  -6  176.48   25.70
  -5   0  -6  202.18   23.30
  -5   0  -6  187.38   21.70
   6   0   6  971.90   79.69
  -6   0  -6 1031.00   84.79
  -6   0  -6  947.11   78.79
  -6   0  -6  915.41   78.69
  -6   0  -6  961.30   80.09
   6   0   6  929.31   82.09
  -7   0  -6  991.20   85.39
   7   0   6  913.91   79.09
  -7   0  -6  917.71   79.99
   7   0   6  975.20   78.59
  -7   0  -6  914.21   78.29
  -8   0  -6  369.86   40.30
  -8   0  -6  335.67   33.40
   8   0   6  257.57   37.50
  -8   0  -6  348.07   45.50
  -8   0  -6  266.17   33.50
   8   0   6  329.07   35.40
   8   0   6  281.57   35.70
   9   0   6  280.97   32.70
   9   0   6  265.27   32.00
  -9   0  -6  196.88   39.20
  -9   0  -6  222.68   35.60
 -10   0  -6  309.47   42.40
  10   0   6  403.86   61.29
  10   0   6  268.37   36.80
 -10   0  -6  347.77   47.70
 -11   0  -6   60.69   30.30
  11   0   6  117.79   25.70
 -11   0  -6   92.09   31.20
  11   0   6  159.88   36.50
 -12   0  -6  257.87   41.80
 -12   0  -6  194.28   44.10
 -13   0  -6   74.89   33.00
 -13   0  -6  -19.90   28.20
 -14   0  -6  -16.10   36.40
 -14   0  -6   -0.80   30.50
 -15  -1   6   56.39   31.30
 -15  -1   6   14.90   38.60
  15  -1  -6   31.60   28.70
  15   1  -6   58.49   20.90
  15   1  -6   32.00   25.60
 -15   1   6   89.69   31.70
 -14  -1   6   55.29   27.30
 -14  -1   6    6.20   35.60
  14  -1  -6   34.10   28.60
 -14   1   6   20.70   22.30
  14   1  -6   25.60   19.60
 -13  -1   6  124.19   43.10
  13  -1  -6   96.99   30.70
 -13  -1   6  139.29   35.30
 -13   1   6  136.69   29.10
  13   1  -6  134.99   28.50
  13   1  -6  139.29   25.90
  12  -1  -6  118.19   26.20
 -12  -1   6  169.28   42.80
 -12  -1   6  130.19   31.90
 -12   1   6  148.49   38.70
  12   1  -6  115.59   27.60
 -12   1   6  143.39   31.20
  12   1  -6   90.89   23.50
 -11  -1   6  369.96   44.40
 -11  -1   6  378.66   53.59
  11  -1  -6  351.76   42.60
 -11   1   6  454.75   49.20
 -11   1   6  296.57   49.99
  11   1  -6  268.87   36.60
  11   1  -6  351.76   41.80
  10  -1  -6  322.67   41.50
 -10  -1   6  349.87   38.50
 -10  -1   6  415.96   52.39
 -10  -1   6  377.96   44.30
  10   1  -6  345.17   38.30
 -10   1   6  333.97   39.30
 -10   1   6  459.15   54.49
  10   1  -6  365.96   40.10
 -10   1   6  323.47   42.50
  -9  -1   6  567.04   52.99
   9  -1  -6  430.76   48.70
  -9  -1   6  535.25   50.99
   9  -1  -6  518.25   49.20
  -9  -1   6  562.34   59.79
   9   1  -6  463.05   46.60
  -9   1   6  489.35   49.40
  -9   1   6  482.85   58.19
   9   1  -6  476.15   47.40
  -9   1   6  463.85   45.60
   8  -1  -6  262.87   33.70
   8  -1  -6  277.47   33.90
  -8  -1   6  297.57   32.10
   8  -1  -6  331.57   40.60
  -8  -1   6  308.77   34.90
  -8  -1   6  391.16   40.90
  -8  -1   6  284.67   39.20
  -8   1   6  254.27   32.00
   8   1  -6  300.07   32.30
   8   1  -6  291.47   32.20
  -8   1   6  299.47   34.70
  -8   1   6  272.67   30.60
   8   1  -6  328.27   43.00
   8   1  -6  289.77   36.30
  -7  -1   6  636.64   58.49
  -7  -1   6  782.22   65.89
   7  -1  -6  701.03   64.69
  -7  -1   6  699.43   66.39
  -7  -1   6  717.13   62.29
   7  -1  -6  709.73   60.69
   7  -1  -6  668.63   60.39
  -7   1   6  644.54   57.89
  -7   1   6  652.83   59.29
   7   1  -6  846.62   67.09
   7   1  -6  634.44   58.39
   7   1  -6  698.63   65.49
   7   1  -6  694.53   58.99
  -7   1   6  667.93   60.39
   6  -1  -6 1063.49   92.09
  -6  -1   6 1073.69   92.69
  -6  -1   6 1156.68   93.09
  -6  -1   6 1220.18   96.69
  -6  -1   6 1053.89   90.69
   6  -1  -6 1161.48   92.39
   6  -1  -6 1162.58   96.09
   6   1  -6 1134.79   91.39
  -6   1   6 1064.09   91.69
   6   1  -6 1135.49   93.29
   6   1  -6 1096.59   95.99
  -6   1   6 1240.38   92.19
   6   1  -6 1170.88   90.89
  -6   1   6 1075.89   91.99
  -5  -1   6 1411.46  112.19
   5  -1  -6 1362.26  111.59
  -5  -1   6 1404.86  110.49
   5  -1  -6 1435.86  109.99
   5  -1  -6 1302.97  114.49
  -5  -1   6 1490.45  111.89
  -5  -1   6 1407.96  114.19
   5  -1  -6 1347.17  111.29
   5   1  -6 1302.17  114.09
  -5   1   6 1434.06  109.79
  -5   1   6 1379.96  111.39
  -5   1   6 1434.36  111.49
   5   1  -6 1371.56  110.29
   5   1  -6 1386.76  112.69
  -4  -1   6 1151.48   94.09
  -4  -1   6 1216.68   91.39
   4  -1  -6 1127.19   91.89
   4  -1  -6 1122.89   89.99
   4  -1  -6 1091.19   94.59
   4  -1  -6 1164.58   92.89
  -4  -1   6 1196.98   90.89
  -4  -1   6 1145.89   92.29
   4   1  -6 1127.89   94.29
  -4   1   6 1101.39   91.49
  -4   1   6 1188.08   89.99
  -4   1   6 1186.18   91.69
   4   1  -6 1028.90   90.39
   4   1  -6 1087.39   92.79
   3  -1  -6 3389.66  260.47
  -3  -1   6 3330.37  260.87
   3  -1  -6 3305.77  262.37
  -3  -1   6 3358.86  261.57
  -3  -1   6 3301.57  259.37
   3  -1  -6 3329.77  258.77
   3  -1  -6 3361.76  260.07
  -3  -1   6 3431.06  259.17
  -3   1   6 3442.76  258.87
   3   1  -6 3403.66  261.17
   3   1  -6 3221.98  268.97
   3   1  -6 3368.96  259.57
  -3   1   6 3406.26  260.27
  -2  -1   6 2462.95  188.98
   2  -1  -6 2438.16  186.58
  -2  -1   6 2521.55  189.08
   2  -1  -6 2400.86  188.28
   2  -1  -6 2390.96  187.98
   2  -1  -6 2354.86  186.98
   2   1  -6 2420.26  187.88
   2   1  -6 2425.76  189.08
   2   1  -6 2355.26  188.88
  -2   1   6 2441.56  186.98
  -1  -1   6 1078.89   89.89
  -1  -1   6 1060.99   88.49
  -1  -1   6 1114.09   86.99
   1  -1  -6 1072.89   88.49
   1  -1  -6 1143.59   87.39
   1  -1  -6 1147.79   87.89
   1   1  -6 1091.49   88.39
  -1   1   6 1154.68   88.69
   1   1  -6 1118.39   89.89
   1   1  -6 1150.48   88.79
   0  -1   6 1223.48  112.99
   0  -1  -6 1547.25  114.49
   0  -1   6 1282.07  117.49
   0  -1  -6 1524.35  114.09
   0  -1  -6 1480.05  113.89
   0  -1   6 1445.96  113.39
   0   1  -6 1527.75  113.09
   0   1  -6 1580.64  115.79
   0   1   6 1488.35  114.09
   1  -1   6 1722.63  135.79
  -1  -1  -6 1822.12  136.29
   1  -1   6 1687.93  137.09
  -1  -1  -6 1700.93  136.09
  -1   1  -6 1828.72  135.79
   1   1   6 1693.43  136.09
  -1   1  -6 1717.23  137.29
   2  -1   6 1261.77  100.09
  -2  -1  -6 1244.68  101.59
  -2  -1  -6 1198.28   99.89
  -2   1  -6 1284.77  100.39
  -2   1  -6 1240.98  101.19
   2   1   6 1332.37  100.29
   3  -1   6 1014.90   83.39
  -3  -1  -6  995.40   83.99
  -3  -1  -6 1051.29   82.69
  -3  -1  -6 1011.70   84.19
  -3   1  -6 1069.29   83.79
  -3   1  -6 1044.30   83.59
   3   1   6  966.40   82.59
   4  -1   6 1318.27  108.59
  -4  -1  -6 1485.25  113.79
  -4  -1  -6 1418.56  111.89
  -4  -1  -6 1436.46  114.49
   4  -1   6 1372.46  112.99
  -4   1  -6 1466.05  113.69
   4   1   6 1363.26  112.09
  -4   1  -6 1433.86  112.99
  -4   1  -6 1360.66  111.49
  -5  -1  -6 1186.08   97.49
  -5  -1  -6 1180.48   95.89
   5  -1   6 1185.78   91.09
  -5  -1  -6 1051.89   93.29
   5  -1   6 1185.48   95.99
  -5   1  -6 1151.08   95.29
   5   1   6 1225.48   94.79
  -5   1  -6 1134.79   96.69
  -5   1  -6 1095.89   93.19
  -6  -1  -6  753.92   66.89
   6  -1   6  755.72   65.79
   6  -1   6  727.03   59.89
  -6  -1  -6  700.23   67.99
  -6  -1  -6  763.22   66.09
  -6  -1  -6  640.54   60.39
  -6   1  -6  767.32   81.19
   6   1   6  717.13   64.09
  -6   1  -6  694.53   61.19
   6   1   6  759.62   63.19
  -6   1  -6  737.63   70.79
  -7  -1  -6  500.65   55.99
  -7  -1  -6  575.74   59.09
  -7  -1  -6  478.35   47.00
   7  -1   6  467.35   51.39
   7  -1   6  518.15   45.60
  -7  -1  -6  456.25   45.40
  -7   1  -6  427.86   46.30
  -7   1  -6  521.65   55.39
  -7   1  -6  517.85   45.90
   7   1   6  550.64   49.00
   7   1   6  512.05   50.89
  -7   1  -6  549.85   47.90
   8  -1   6  260.67   31.70
  -8  -1  -6  235.98   30.50
  -8  -1  -6  322.17   41.80
  -8  -1  -6  351.16   43.10
   8   1   6  223.68   31.40
  -8   1  -6  275.57   39.50
  -8   1  -6  250.57   31.90
  -8   1  -6  304.57   35.50
  -9  -1  -6  205.48   38.40
  -9  -1  -6  203.28   38.30
   9  -1   6  243.28   32.20
  -9  -1  -6  253.37   37.80
   9   1   6  215.98   31.30
  -9   1  -6  239.78   41.80
  -9   1  -6  271.47   34.40
  -9   1  -6  217.18   28.10
   9   1   6  277.47   35.70
 -10  -1  -6   67.69   32.90
 -10  -1  -6   66.59   29.10
  10  -1   6   51.39   20.70
 -10   1  -6   94.59   31.40
  10   1   6   42.30   22.70
 -10   1  -6   88.19   25.50
 -11  -1  -6  246.68   46.90
 -11  -1  -6  214.38   39.20
  11   1   6  250.27   35.50
 -11   1  -6  214.38   35.90
 -11   1  -6  231.08   41.00
  12  -1   6  190.98   40.20
 -12  -1  -6  149.69   39.30
 -12  -1  -6  216.48   45.80
  12   1   6  232.58   56.69
 -12   1  -6  222.38   41.00
 -13  -1  -6   65.39   35.70
 -13  -1  -6   84.49   38.20
 -13   1  -6   60.89   37.70
  13   1   6  104.29   27.30
 -14  -1  -6  100.49   35.50
 -14  -1  -6  109.19   42.60
 -14   1  -6   61.39   34.60
  14   1   6   23.90   25.40
  14  -2  -6   66.89   27.90
 -14  -2   6   91.89   42.00
 -14  -2   6   29.30   34.00
 -14   2   6   16.90   27.70
  14   2  -6   34.30   23.20
  13  -2  -6   93.19   27.60
 -13  -2   6   59.69   37.50
 -13   2   6   30.00   25.40
  13   2  -6   67.99   23.70
  13   2  -6   20.60   22.30
 -12  -2   6  144.89   36.00
 -12  -2   6  115.59   43.00
  12  -2  -6  148.49   28.00
  12   2  -6  129.99   26.40
 -12   2   6  122.39   31.90
  12   2  -6  163.18   28.80
 -12   2   6  111.09   22.60
 -11  -2   6  153.58   38.90
 -11  -2   6  125.99   24.30
  11  -2  -6  187.28   31.20
 -11  -2   6  176.18   40.30
 -11   2   6  157.98   32.40
  11   2  -6  190.88   27.90
 -11   2   6  159.78   27.30
  11   2  -6  164.78   28.40
  10  -2  -6  206.38   31.40
 -10  -2   6  197.98   39.90
 -10  -2   6  274.67   41.50
 -10   2   6  235.48   28.10
  10   2  -6  295.17   33.00
 -10   2   6  213.58   32.90
  10   2  -6  230.28   32.00
  -9  -2   6  213.48   38.70
   9  -2  -6  294.77   35.10
  -9  -2   6  281.67   44.90
  -9  -2   6  269.07   30.70
   9   2  -6  287.87   32.80
  -9   2   6  352.26   42.60
  -9   2   6  251.97   28.90
   9   2  -6  302.07   35.50
   8  -2  -6  707.33   67.19
  -8  -2   6  771.62   76.99
  -8  -2   6  730.83   63.09
  -8  -2   6  678.63   70.29
   8   2  -6  684.93   69.39
  -8   2   6  767.92   61.69
   8   2  -6  768.32   66.69
  -8   2   6  741.93   68.69
   8   2  -6  803.22   63.69
  -7  -2   6  441.06   41.60
   7  -2  -6  433.46   51.09
   7  -2  -6  391.96   45.40
   7  -2  -6  458.65   46.60
  -7  -2   6  576.64   56.99
  -7  -2   6  505.05   56.19
   7   2  -6  420.76   45.20
  -7   2   6  540.45   48.40
  -7   2   6  484.25   39.50
   7   2  -6  398.86   41.50
   7   2  -6  423.36   55.09
  -7   2   6  488.05   45.10
   7   2  -6  472.95   49.40
   6  -2  -6  796.82   67.69
   6  -2  -6  710.03   71.69
  -6  -2   6  864.81   69.59
  -6  -2   6  763.92   68.89
  -6  -2   6  719.13   63.69
  -6  -2   6  812.02   74.39
   6   2  -6  817.82   73.99
   6   2  -6  716.33   67.19
  -6   2   6  766.12   68.59
   6   2  -6  773.42   63.89
   6   2  -6  832.42   70.29
   5  -2  -6  357.76   38.20
   5  -2  -6  377.66   45.40
  -5  -2   6  431.26   57.19
  -5  -2   6  310.57   38.90
   5  -2  -6  360.36   38.10
  -5  -2   6  337.27   39.20
   5   2  -6  460.35   44.10
  -5   2   6  384.66   37.50
   5   2  -6  410.26   34.40
   5   2  -6  411.86   41.90
   4  -2  -6 1530.75  130.09
  -4  -2   6 1479.75  130.19
  -4  -2   6 1639.44  132.99
   4  -2  -6 1757.02  129.49
  -4   2   6 1552.64  128.99
   4   2  -6 1799.52  131.69
   4   2  -6 1607.44  126.79
   4   2  -6 1627.64  131.89
   3  -2  -6  715.13   61.19
   3  -2  -6  705.53   62.59
  -3  -2   6  706.83   65.29
  -3  -2   6  692.23   62.49
   3   2  -6  791.62   63.99
  -3   2   6  734.23   61.09
   3   2  -6  740.13   59.29
   3   2  -6  726.43   63.89
   2  -2  -6 2205.58  174.48
  -2  -2   6 1986.10  173.68
   2  -2  -6 2343.67  172.98
  -2  -2   6 2150.18  174.98
   2   2  -6 2272.57  171.78
  -2   2   6 2124.79  172.58
   2   2  -6 2432.56  174.98
   2   2  -6 2182.08  174.28
  -1  -2   6 1245.68   97.59
   1  -2  -6 1216.98   95.69
  -1  -2   6 1265.77   98.79
  -1  -2   6 1170.48   98.29
   1  -2  -6 1194.88   96.79
  -1   2   6 1250.57   95.99
   1   2  -6 1197.48   98.59
  -1   2   6 1173.18   98.09
   0  -2   6 1222.48   94.89
   0  -2  -6 1152.28   93.29
   0  -2   6 1170.68   94.79
   0  -2  -6 1108.19   93.29
   0  -2   6 1197.18   95.49
   0   2  -6 1174.48   95.69
   0   2   6 1214.98   93.69
   1  -2   6  511.15   45.10
  -1  -2  -6  479.15   43.20
   1  -2   6  573.44   45.40
   1  -2   6  528.45   44.10
  -1  -2  -6  444.66   42.40
  -1   2  -6  456.85   45.40
   1   2   6  514.95   43.90
   2  -2   6 1014.90   83.79
  -2  -2  -6 1003.50   82.69
   2  -2   6 1023.30   81.59
  -2  -2  -6 1146.19   89.19
   2  -2   6 1012.50   83.89
  -2  -2  -6  981.50   81.49
   2   2   6 1059.19   83.29
  -2   2  -6  938.31   83.99
  -2   2  -6 1041.80   84.39
  -3  -2  -6  735.73   60.39
  -3  -2  -6  692.73   61.49
   3  -2   6  702.63   63.59
   3  -2   6  776.62   60.09
  -3   2  -6  677.83   61.49
   3   2   6  765.62   62.69
  -3   2  -6  728.43   63.39
  -3   2  -6  770.42   64.29
   4  -2   6  549.45   50.79
  -4  -2  -6  558.54   52.99
  -4  -2  -6  584.54   60.69
   4  -2   6  660.93   56.39
  -4   2  -6  619.44   55.19
   4   2   6  658.53   54.69
  -4   2  -6  596.74   53.29
  -4   2  -6  692.13   57.49
   5  -2   6  455.05   47.80
  -5  -2  -6  387.36   47.00
  -5  -2  -6  441.56   50.89
  -5  -2  -6  422.36   40.50
   5  -2   6  387.86   37.80
  -5   2  -6  447.96   45.50
   5   2   6  409.46   41.40
  -5   2  -6  413.56   43.10
  -6  -2  -6  376.16   38.40
  -6  -2  -6  460.25   52.79
  -6  -2  -6  382.46   49.80
   6  -2   6  398.36   46.00
   6  -2   6  442.66   39.40
  -6   2  -6  443.66   40.70
  -6   2  -6  450.05   44.70
  -6   2  -6  390.16   42.00
   6   2   6  453.95   43.80
  -6   2  -6  455.25   48.20
  -7  -2  -6  191.38   37.40
  -7  -2  -6  224.78   35.10
  -7  -2  -6  200.28   25.90
   7   2   6  220.28   29.70
  -7   2  -6  288.67   32.60
  -7   2  -6  220.28   27.20
  -7   2  -6  235.18   36.40
  -8  -2  -6   59.69   29.30
  -8  -2  -6   88.39   32.70
  -8  -2  -6   64.79   16.10
   8  -2   6   74.09   17.80
  -8   2  -6   78.79   26.80
   8   2   6   66.89   22.40
  -8   2  -6   69.39   16.10
  -8   2  -6   74.29   23.10
  -9  -2  -6  125.29   21.10
   9  -2   6  134.39   22.10
  -9  -2  -6  186.58   39.70
  -9  -2  -6  117.79   35.60
   9   2   6  139.99   27.70
  -9   2  -6  137.49   32.50
  -9   2  -6  153.88   28.80
  -9   2  -6  134.19   20.70
 -10  -2  -6  175.18   39.80
 -10  -2  -6  151.48   39.40
  10  -2   6  180.48   26.80
 -10   2  -6  167.18   32.00
 -10   2  -6  112.79   38.60
  10   2   6  147.59   30.40
 -11  -2  -6    8.10   35.90
  11  -2   6   83.49   25.00
 -11  -2  -6   83.69   37.10
  11   2   6   69.39   29.40
 -11   2  -6   60.89   27.90
 -11   2  -6   57.59   34.20
 -12  -2  -6   69.49   36.40
 -12  -2  -6   36.10   39.20
  12  -2   6   12.60   49.60
 -12   2  -6   62.29   39.20
  12   2   6   82.69   30.60
 -12   2  -6   85.39   29.30
 -13  -2  -6   17.70   38.50
 -13  -2  -6    5.00   32.30
  13   2   6  -17.60   24.20
 -13   2  -6  -48.00   25.90
 -13   2  -6   22.00   28.20
 -13  -3   6  101.19   47.00
  13  -3  -6   35.40   31.60
 -13  -3   6   24.90   34.00
 -13   3   6   40.80   33.40
  13   3  -6  -12.80   23.50
  12  -3  -6   71.39   28.30
 -12  -3   6   37.70   30.20
 -12  -3   6  123.69   42.10
 -12   3   6   26.00   22.80
  12   3  -6   57.49   26.40
 -11  -3   6   30.60   31.30
  11  -3  -6   65.99   29.50
 -11  -3   6   86.09   40.50
  11   3  -6   61.99   25.70
 -11   3   6   76.69   27.90
  10  -3  -6   38.60   24.50
 -10  -3   6   36.10   29.90
 -10  -3   6    0.90   34.90
 -10   3   6  -24.00   38.60
  10   3  -6   29.30   24.00
   9  -3  -6  168.08   30.30
  -9  -3   6  170.98   40.90
  -9  -3   6   94.19   31.80
   9   3  -6  173.28   31.60
  -8  -3   6  137.69   39.20
   8  -3  -6  201.68   29.20
  -8  -3   6  113.79   31.70
   8   3  -6  166.38   30.20
   7  -3  -6  443.06   49.60
  -7  -3   6  490.75   63.69
   7   3  -6  489.45   54.49
   7   3  -6  469.55   50.69
  -6  -3   6  431.36   57.99
   6  -3  -6  436.06   45.00
  -6  -3   6  364.06   47.90
   6   3  -6  359.26   44.70
   6   3  -6  452.85   49.80
  -6   3   6  445.16   46.20
  -5  -3   6  352.86   46.40
   5  -3  -6  321.17   38.50
   5   3  -6  307.77   39.10
  -5   3   6  380.16   41.80
   5   3  -6  403.16   44.30
  -4  -3   6  268.97   32.90
  -4  -3   6  269.67   39.00
   4   3  -6  190.18   31.20
  -4   3   6  244.08   28.70
   4   3  -6  189.08   32.10
   3  -3  -6  678.63   62.69
  -3  -3   6  821.62   72.59
   3   3  -6  667.83   67.09
  -3   3   6  776.42   63.19
  -2  -3   6  418.26   42.20
  -2  -3   6  393.16   43.40
  -2  -3   6  403.96   48.30
   2  -3  -6  428.46   37.90
   2   3  -6  445.56   43.80
  -2   3   6  350.06   35.30
  -2   3   6  363.56   37.10
   1  -3  -6  570.84   51.19
  -1  -3   6  650.43   57.09
   1  -3  -6  428.66   58.99
  -1  -3   6  645.14   55.69
  -1  -3   6  595.34   58.99
  -1   3   6  647.64   51.69
   1   3  -6  602.34   56.59
   0  -3   6  398.76   39.10
   0  -3   6  413.46   43.00
   0  -3  -6  351.66   33.20
   0  -3   6  318.77   40.40
   0   3   6  354.06   35.50
   0   3  -6  297.57   34.70
   0   3  -6  413.56   40.20
   1  -3   6  630.94   59.29
  -1  -3  -6  706.03   70.69
  -1  -3  -6  622.24   55.59
   1  -3   6  682.63   62.19
  -1   3  -6  733.23   60.29
  -1   3  -6  671.73   57.09
   2  -3   6  328.97   41.40
  -2  -3  -6  333.67   45.10
   2  -3   6  378.26   40.40
  -2  -3  -6  375.36   35.50
   2  -3   6  361.36   38.90
  -2   3  -6  373.26   39.30
   2   3   6  409.46   38.90
  -2   3  -6  353.86   36.60
  -3  -3  -6  750.02   74.39
   3  -3   6  675.23   62.39
  -3  -3  -6  702.83   60.99
   3  -3   6  614.04   64.29
   3   3   6  715.13   62.69
  -3   3  -6  701.03   61.09
  -3   3  -6  749.13   62.79
  -4  -3  -6  199.28   36.80
  -4  -3  -6  244.08   28.10
   4  -3   6  211.48   27.80
   4   3   6  187.58   28.90
  -4   3  -6  159.88   28.20
  -4   3  -6  280.57   32.00
   5  -3   6  405.06   38.60
  -5  -3  -6  263.37   37.30
  -5  -3  -6  290.77   49.50
   5  -3   6  357.66   36.60
   5   3   6  354.86   40.40
  -5   3  -6  426.16   53.79
  -5   3  -6  282.07   37.20
  -5   3  -6  329.67   42.40
  -6  -3  -6  229.98   44.10
   6  -3   6  154.68   24.60
  -6  -3  -6  171.18   37.20
  -6   3  -6  155.38   27.70
  -6   3  -6  147.59   31.20
   6   3   6  176.78   29.00
  -7  -3  -6  229.58   45.40
   7  -3   6  271.47   33.20
  -7  -3  -6  275.47   51.19
  -7   3  -6  269.37   42.10
  -7   3  -6  268.17   31.80
   7   3   6  267.47   37.40
  -7   3  -6  275.17   34.90
  -8  -3  -6   56.69   31.10
  -8  -3  -6   67.19   37.40
  -8   3  -6   41.30   29.90
  -8   3  -6  117.19   27.10
  -8   3  -6   43.90   15.50
   8   3   6   61.69   24.20
   9  -3   6  103.49   22.50
  -9  -3  -6   94.39   44.30
  -9  -3  -6   69.29   39.20
  -9   3  -6  129.79   45.50
  -9   3  -6   84.29   26.90
   9   3   6  110.89   31.70
 -10  -3  -6   63.29   37.10
 -10  -3  -6   25.10   40.20
  10  -3   6    3.90   23.90
 -10  -3  -6   24.00   20.10
 -10   3  -6   14.60   34.20
 -10   3  -6    2.80   24.40
  10   3   6    8.90   27.60
 -11  -3  -6    7.30   37.90
 -11  -3  -6   20.50   37.10
 -11   3  -6  -13.80   28.20
  11   3   6   80.79   31.50
 -11   3  -6   42.70   28.90
 -12  -3  -6   -8.20   41.80
 -12  -3  -6  111.19   44.20
  12   3   6    1.40   29.50
 -12   3  -6    5.80   39.60
 -10  -4   6   19.30   31.70
  10  -4  -6   18.40   26.50
 -10  -4   6   32.50   38.90
  10   4  -6   19.00   26.40
  -9  -4   6   12.30   33.30
  -9  -4   6   68.69   41.10
   9  -4  -6   50.99   27.10
   9   4  -6    1.50   27.30
  -8  -4   6   90.69   42.70
  -8  -4   6   90.19   45.00
   8  -4  -6   75.29   28.00
   8   4  -6   55.19   32.00
   7  -4  -6  131.39   28.00
  -7  -4   6   38.60   37.70
  -7  -4   6   29.80   30.50
   7   4  -6   82.49   30.80
  -6  -4   6   28.90   34.40
   6  -4  -6   47.30   21.90
   6   4  -6   27.30   25.40
   6   4  -6   16.10   26.00
   5  -4  -6  244.68   32.40
  -5  -4   6  146.69   42.30
   5   4  -6  195.48   34.30
   5   4  -6  261.87   38.00
  -4  -4   6   69.49   35.10
   4  -4  -6   54.69   20.00
  -4   4   6   84.99   21.80
   4   4  -6   79.49   27.60
   4   4  -6   68.19   25.90
   3  -4  -6  216.48   29.30
  -3  -4   6  189.48   41.00
   3   4  -6  197.08   33.20
   3   4  -6  219.68   33.00
  -3   4   6  178.28   25.20
   2  -4  -6  236.58   27.30
  -2  -4   6  212.98   40.60
  -2  -4   6  259.57   34.80
   2   4  -6  179.38   32.50
  -2   4   6  232.08   28.20
   1  -4  -6   78.89   41.10
  -1  -4   6  112.39   25.40
  -1  -4   6  167.18   34.20
   1   4  -6  118.79   24.80
  -1   4   6  117.89   21.10
   0  -4   6  415.56   55.29
   0  -4   6  439.96   51.29
   0  -4  -6  418.86   59.39
   0   4  -6  392.26   45.40
   0   4   6  391.36   42.80
   1  -4   6   46.80   26.90
   1  -4   6   23.30   20.10
  -1  -4  -6   94.89   37.20
  -1   4  -6   47.00   19.70
   1   4   6   35.90   20.00
  -2  -4  -6  352.86   35.10
   2  -4   6  336.37   42.70
  -2  -4  -6  214.58   46.70
  -2   4  -6  298.47   34.20
  -2   4  -6  310.47   38.80
   2   4   6  322.57   38.90
  -3  -4  -6  198.08   46.10
  -3  -4  -6  137.39   25.30
   3  -4   6  127.79   29.50
  -3   4  -6  136.99   27.80
   3   4   6  111.19   26.20
   4  -4   6  271.27   36.30
  -4  -4  -6  262.17   35.20
   4   4   6  215.58   36.70
  -4   4  -6  167.18   31.80
  -4   4  -6  220.78   31.20
   5  -4   6   61.59   23.80
  -5  -4  -6   46.20   38.60
   5  -4   6   25.10   23.40
   5   4   6   60.19   29.30
  -5   4  -6   82.99   20.10
   6  -4   6   99.39   29.10
  -6  -4  -6  160.58   46.30
  -6  -4  -6   88.29   36.20
   6  -4   6  178.48   29.40
  -6   4  -6  133.09   24.70
   6   4   6  153.78   35.50
   7  -4   6   55.99   37.00
  -7  -4  -6   53.99   46.40
   7  -4   6    7.10   21.50
  -7  -4  -6   58.79   36.20
  -7   4  -6   48.20   20.00
   7   4   6   30.70   26.90
   8  -4   6   58.29   23.90
  -8  -4  -6   84.79   42.80
  -8  -4  -6   67.89   45.70
   8   4   6   84.79   32.00
  -8   4  -6   70.89   22.70
  -9  -4  -6   68.99   40.70
  -9  -4  -6    9.60   44.80
   9  -4   6   86.39   24.60
   9   4   6   72.89   32.20
  -9   4  -6   69.79   23.50
  -5  -5   6    8.20   41.10
   5   5  -6   64.99   33.50
  -4  -5   6   70.79   42.60
   4  -5  -6   50.99   46.20
   4   5  -6   56.99   32.50
  -3  -5   6   72.29   41.70
   3  -5  -6   44.60   47.80
   3   5  -6  114.19   34.00
   2  -5  -6   22.40   46.40
  -2  -5   6   63.89   39.90
  -2   5   6   35.90   17.00
   2   5  -6   73.49   30.30
   1  -5  -6   82.99   48.50
   1   5  -6   46.10   22.70
  -1   5   6   12.60   19.40
   1   5  -6   10.10   27.50
   0  -5  -6   80.79   44.80
   0  -5   6  111.49   37.70
   0   5   6  111.89   26.90
   0   5  -6   63.29   29.50
   0   5  -6  111.29   25.20
   1  -5   6   70.39   33.30
  -1  -5  -6   62.59   44.90
   1   5   6   68.99   30.00
  -1   5  -6   39.40   19.40
  -1   5  -6   34.20   25.60
   2  -5   6   84.99   36.50
  -2  -5  -6   62.29   49.60
  -2   5  -6   83.49   19.30
   2   5   6   11.60   27.90
   3  -5   6   -7.10   29.80
  -3  -5  -6  -25.50   42.50
   3   5   6   11.40   25.20
   4  -5   6   56.99   32.20
  -4  -5  -6  -55.49   46.20
   4   5   6   35.70   29.00
  15   0  -7  -16.70   25.70
  15   0  -7    3.90   15.00
 -15   0   7    3.40   24.80
 -15   0   7   37.90   36.90
  14   0  -7   -0.10   20.60
  14   0  -7    9.60   15.30
 -14   0   7   -2.80   34.50
  13   0  -7  -23.00   13.10
 -13   0   7   -6.20   22.40
  13   0  -7   -5.60   23.00
  12   0  -7   19.40   18.90
  12   0  -7   -1.00   13.10
 -12   0   7    6.10   29.30
 -12   0   7   18.20   23.40
  11   0  -7    2.90   12.80
 -11   0   7  -27.20   26.90
 -11   0   7    7.20   20.20
  11   0  -7  -15.90   15.30
  10   0  -7   35.70   18.60
 -10   0   7   -6.20   17.30
  10   0  -7   33.90   16.40
 -10   0   7   -7.90   27.00
  10   0  -7    2.40   11.90
   9   0  -7   -0.40   11.50
  -9   0   7  -17.10   21.60
  -9   0   7  -21.40   13.00
   9   0  -7   10.80   14.80
   9   0  -7    4.40   13.60
  -9   0   7   -2.10   15.80
  -9   0   7    0.80   14.70
  -8   0   7  -13.20   10.80
   8   0  -7  -10.60   12.90
   8   0  -7    6.60   19.40
  -8   0   7   -7.10   14.70
   8   0  -7    2.50   14.10
   8   0  -7  -13.90    9.60
  -8   0   7   25.10   23.40
   8   0  -7  -11.70   11.80
   7   0  -7   -4.50    8.70
   7   0  -7  -12.90   12.10
  -7   0   7  -11.20   11.20
  -7   0   7    5.10   11.70
   7   0  -7   -5.20   12.40
  -7   0   7   -9.60   10.70
   7   0  -7   -7.20   17.40
  -7   0   7   19.30   20.20
   6   0  -7    1.80   14.00
   6   0  -7   10.40   11.90
   6   0  -7    3.10   13.40
  -6   0   7   -0.60   11.10
  -6   0   7   -1.90   10.50
  -6   0   7   -2.30   11.40
   6   0  -7   -1.30   12.30
  -6   0   7    1.20   17.50
  -5   0   7    8.70    9.20
  -5   0   7   10.90   10.70
  -5   0   7  -19.20   15.20
  -5   0   7    0.40   10.10
   5   0  -7   10.50   11.60
   5   0  -7   10.60   11.60
   5   0  -7   -7.20   10.70
   5   0  -7   11.00   15.00
   4   0  -7    0.00   12.60
   4   0  -7   -3.50   10.50
  -4   0   7    4.60   14.50
   4   0  -7    1.20    9.20
  -4   0   7   -1.50   10.20
  -4   0   7  -18.00    9.60
  -4   0   7    8.80    8.10
   4   0  -7    3.50   10.10
  -3   0   7    1.90    9.00
   3   0  -7   -7.80   10.00
  -3   0   7    8.60   13.60
   3   0  -7    8.80   10.50
   3   0  -7    0.70   13.70
  -2   0   7    5.50   10.30
   2   0  -7  -10.20    9.60
  -2   0   7    6.70   11.70
   2   0  -7   -0.10   11.50
   2   0  -7   -2.20   10.20
  -2   0   7   14.30   13.00
   1   0  -7    4.70   10.90
   1   0  -7    7.60    9.40
   1   0  -7   -1.20   10.40
  -1   0   7    6.50    9.50
   0   0  -7  -12.50    7.80
   0   0   7   -0.90    9.90
   0   0  -7   10.40    9.60
   0   0  -7    0.20    8.10
  -1   0  -7    6.60   10.60
  -1   0  -7  -13.60    9.80
  -1   0  -7   -8.60    8.90
  -2   0  -7   -3.70   10.50
  -2   0  -7    2.00    7.20
  -2   0  -7   -8.00   11.80
   2   0   7   -3.70   10.20
  -2   0  -7   -7.50   11.30
  -3   0  -7  -10.20    8.00
  -3   0  -7    9.80    9.40
  -3   0  -7   -0.40   12.80
   4   0   7   12.50   12.70
  -4   0  -7  -17.50    9.30
  -4   0  -7   -4.20    9.60
  -4   0  -7   15.40   14.10
   5   0   7   -5.30   13.50
  -5   0  -7  -19.50   16.20
  -5   0  -7   -6.80   10.60
  -5   0  -7   -2.10   11.40
   5   0   7    4.40    9.70
  -6   0  -7   33.70   31.30
  -6   0  -7  -13.40   11.60
  -6   0  -7   -4.90   11.10
   6   0   7    1.20   15.60
  -6   0  -7  -12.10   12.80
   6   0   7    1.00   13.90
  -7   0  -7    6.50   15.30
  -7   0  -7    3.40   10.60
   7   0   7   -7.10   12.40
  -7   0  -7   -6.70   21.10
  -7   0  -7  -25.00   11.50
   7   0   7    2.20   16.60
   7   0   7   -9.30   17.30
  -8   0  -7   25.90   14.00
   8   0   7   22.60   16.30
   8   0   7  -14.70   16.10
  -8   0  -7  -19.40   22.20
  -8   0  -7    2.00   18.60
   9   0   7   15.60   18.50
   9   0   7    7.50   18.80
  -9   0  -7  -14.60   20.10
  -9   0  -7   -7.90   24.60
  10   0   7   17.20   26.90
 -10   0  -7   -0.90   26.00
 -10   0  -7    0.60   24.00
 -11   0  -7    6.20   26.30
  11   0   7  -23.00   22.20
 -11   0  -7   14.70   27.20
 -12   0  -7  -25.20   26.10
 -12   0  -7    1.20   31.20
 -13   0  -7  -28.80   34.70
 -13   0  -7   58.59   31.90
 -14   0  -7    1.30   35.00
 -14   0  -7   63.89   33.80
 -15  -1   7   50.59   42.00
  15  -1  -7   21.80   28.90
 -15  -1   7   55.29   29.50
  15   1  -7   23.80   20.00
 -15   1   7   59.19   26.40
  15   1  -7    5.10   26.00
  14  -1  -7   32.50   22.90
 -14  -1   7   41.30   37.50
 -14  -1   7   30.20   34.60
 -14   1   7   34.20   26.90
  14   1  -7   30.50   19.50
  13  -1  -7   35.30   20.90
 -13  -1   7   -3.90   24.10
 -13  -1   7   45.80   36.60
 -13   1   7   32.50   22.30
  13   1  -7   17.80   18.90
  13   1  -7   31.00   21.90
  12  -1  -7   28.10   23.70
 -12  -1   7   13.80   26.80
 -12  -1   7   49.10   35.00
  12   1  -7   -9.80   16.40
 -12   1   7   18.90   22.90
  12   1  -7   -1.10   17.90
  11  -1  -7   11.00   17.80
 -11  -1   7   -6.40   28.90
 -11  -1   7  -27.60   20.20
 -11   1   7  -20.10   17.60
  11   1  -7    7.60   15.80
  11   1  -7   -2.30   16.90
 -10  -1   7   15.90   28.10
 -10  -1   7  -29.20   18.80
  10  -1  -7   24.60   17.30
 -10  -1   7  -31.50   16.50
  10   1  -7    8.00   14.80
  10   1  -7    7.40   17.20
 -10   1   7   28.50   17.90
 -10   1   7    5.80   13.30
  -9  -1   7   26.40   21.10
   9  -1  -7   25.00   14.90
   9  -1  -7   -1.70   14.30
  -9  -1   7  -17.10   24.80
  -9  -1   7   14.90   16.00
   9   1  -7   26.40   14.90
   9   1  -7   31.50   19.60
  -9   1   7   30.80   18.10
   9   1  -7  -13.10   14.90
  -9   1   7   32.80   14.40
   8  -1  -7   28.40   15.60
   8  -1  -7   32.40   15.70
  -8  -1   7   28.00   15.90
  -8  -1   7   28.40   15.20
  -8  -1   7   46.70   25.80
  -8  -1   7   16.10   18.10
   8  -1  -7   38.50   20.60
   8   1  -7   25.30   13.90
   8   1  -7   31.10   17.10
  -8   1   7   29.80   11.70
  -8   1   7   22.60   13.60
   8   1  -7    6.50   22.60
  -8   1   7   45.30   16.20
  -7  -1   7   20.00   12.80
   7  -1  -7   30.30   12.80
   7  -1  -7   29.70   13.30
  -7  -1   7   35.40   20.30
  -7  -1   7   -7.30   15.70
   7   1  -7    5.30   13.80
  -7   1   7    9.80   13.10
   7   1  -7   17.80   29.30
   7   1  -7   20.00   12.40
  -7   1   7    4.20   11.10
   7   1  -7   21.20   12.40
  -6  -1   7   78.29   17.50
   6  -1  -7  114.19   18.90
   6  -1  -7   98.69   15.00
  -6  -1   7   93.89   19.30
  -6  -1   7  121.89   24.30
   6  -1  -7   88.09   21.50
  -6  -1   7   91.59   16.30
  -6   1   7   66.29   16.10
   6   1  -7   80.89   16.10
  -6   1   7   73.59   17.80
   6   1  -7   95.39   22.20
  -6   1   7   86.39   14.50
   5  -1  -7    1.70    9.60
   5  -1  -7    3.90   15.10
   5  -1  -7   20.10    9.50
  -5  -1   7   20.20   13.10
  -5  -1   7   22.60   16.80
   5  -1  -7   11.00   13.80
  -5  -1   7   11.50   12.70
  -5  -1   7    3.20   10.40
  -5   1   7   11.20   10.90
   5   1  -7    7.90   17.10
  -5   1   7   23.70   10.20
   5   1  -7    7.40   10.70
  -5   1   7   25.10   12.60
   5   1  -7   10.90   13.50
  -4  -1   7   30.40   11.20
   4  -1  -7   58.69   18.00
   4  -1  -7   75.79   15.70
  -4  -1   7   38.40   12.30
   4  -1  -7   70.89   11.60
  -4  -1   7   35.10   16.10
  -4  -1   7   37.10   12.30
  -4   1   7   66.39   14.80
  -4   1   7   24.90   11.40
   4   1  -7   35.80   14.10
   4   1  -7   49.70   17.50
   4   1  -7   37.40   12.50
  -4   1   7   46.30   10.50
   3  -1  -7  292.17   30.00
   3  -1  -7  311.97   26.30
   3  -1  -7  338.97   27.80
  -3  -1   7  263.47   31.50
   3  -1  -7  298.37   33.90
   3  -1  -7  317.97   28.80
  -3  -1   7  295.67   30.50
  -3  -1   7  289.37   27.60
   3   1  -7  295.87   31.90
   3   1  -7  318.37   29.80
  -3   1   7  269.37   29.80
  -3   1   7  285.97   27.40
   2  -1  -7  192.18   21.70
  -2  -1   7  203.58   23.70
   2  -1  -7  164.88   20.90
  -2  -1   7  215.98   24.10
   2  -1  -7  196.18   20.00
   2  -1  -7  261.47   25.20
  -2   1   7  210.18   22.60
   2   1  -7  216.68   26.00
  -2   1   7  186.48   20.40
   2   1  -7  219.28   23.20
   2   1  -7  196.48   25.10
   1  -1  -7  187.38   21.70
  -1  -1   7  128.69   19.00
   1  -1  -7  171.88   19.20
   1  -1  -7  205.98   18.90
  -1  -1   7  133.49   18.90
  -1   1   7  186.68   20.80
   1   1  -7  178.28   19.70
   1   1  -7  165.78   20.40
   0  -1  -7  257.87   24.50
   0  -1  -7  268.47   25.00
   0  -1  -7  267.67   23.90
   0  -1   7  249.58   22.60
   0  -1   7  229.88   26.50
   0  -1   7  191.78   22.20
   0   1  -7  228.18   22.10
   0   1  -7  258.57   27.50
   0   1   7  246.88   24.50
  -1  -1  -7  126.49   17.00
   1  -1   7  115.39   19.90
  -1  -1  -7  141.39   17.70
   1  -1   7  133.09   17.30
  -1  -1  -7  155.48   18.00
   1   1   7  118.49   17.60
  -1   1  -7  131.09   19.00
  -1   1  -7  192.38   17.90
  -2  -1  -7  266.87   30.50
  -2  -1  -7  259.27   27.10
   2  -1   7  256.17   27.80
   2   1   7  263.17   28.40
  -2   1  -7  311.47   27.90
  -2   1  -7  284.97   30.70
   3  -1   7   40.20   13.50
  -3  -1  -7   61.29   16.00
  -3  -1  -7   37.80   11.70
  -3  -1  -7   38.80   14.50
   3   1   7   56.19   14.60
  -3   1  -7   86.69   17.40
  -3   1  -7   76.29   14.80
   4  -1   7   18.20   13.30
  -4  -1  -7   42.50   12.00
  -4  -1  -7   49.99   15.20
  -4  -1  -7   28.50   16.80
  -4   1  -7   32.90   12.90
  -4   1  -7   23.40   14.70
  -4   1  -7   43.90   15.00
   4   1   7   33.70   14.70
  -5  -1  -7  164.98   27.20
  -5  -1  -7  196.68   25.20
   5  -1   7  176.58   17.70
  -5  -1  -7  167.08   22.30
   5  -1   7  150.08   24.30
  -5   1  -7  172.58   26.90
  -5   1  -7  203.88   22.70
  -5   1  -7  192.78   26.00
   5   1   7  178.88   23.20
  -5   1  -7  117.19   20.30
  -6  -1  -7   33.10   13.50
  -6  -1  -7   24.30   17.60
   6  -1   7   10.20    9.50
  -6  -1  -7   15.00   20.90
   6  -1   7    8.20   16.00
  -6   1  -7   21.40   20.00
  -6   1  -7    4.20   12.10
   6   1   7    4.40   14.00
  -6   1  -7   28.00   12.80
  -7  -1  -7   18.20   13.80
  -7  -1  -7   14.30   22.90
   7  -1   7   56.99   13.70
  -7  -1  -7   63.89   25.60
   7  -1   7   34.20   18.20
   7   1   7   27.10   17.50
  -7   1  -7   58.79   23.20
   7   1   7    6.60   16.60
  -8  -1  -7   50.39   23.20
   8  -1   7   53.59   15.30
  -8  -1  -7    5.10   24.40
  -8  -1  -7   13.80   13.90
  -8   1  -7   35.00   24.40
  -8   1  -7   33.10   14.30
   8   1   7    5.10   17.90
  -9  -1  -7   13.10   28.40
   9  -1   7   35.90   15.30
  -9  -1  -7   25.30   25.10
  -9   1  -7    0.10   26.70
  -9   1  -7   16.90   17.50
   9   1   7   11.00   21.70
   9   1   7    3.60   19.40
 -10  -1  -7   13.00   30.40
  10  -1   7    5.90   17.50
 -10  -1  -7    5.40   24.70
  10   1   7   -1.70   22.80
 -10   1  -7    7.40   20.80
 -10   1  -7  -22.10   27.40
  11  -1   7   54.39   21.10
 -11  -1  -7  -16.90   25.60
 -11  -1  -7   37.20   30.60
 -11   1  -7    7.00   27.90
  11   1   7    0.20   19.60
  12  -1   7  -29.90   24.70
 -12  -1  -7   30.70   30.60
 -12  -1  -7  -19.60   28.40
 -12   1  -7    3.50   30.70
  12   1   7   33.60   28.00
 -13  -1  -7    9.40   33.30
 -13  -1  -7   10.60   31.80
 -13   1  -7  -48.50   31.90
  13   1   7  -17.10   26.10
 -14  -1  -7   44.30   37.60
 -14  -1  -7    8.50   35.00
 -14   1  -7  -21.00   29.90
  14   1   7   38.30   26.80
 -14  -2   7    7.90   29.80
  14  -2  -7   27.30   29.70
 -14  -2   7    0.10   36.70
  14   2  -7   36.80   23.90
  14   2  -7   -9.00   19.50
 -14   2   7   -0.40   22.90
  13  -2  -7   14.80   25.10
 -13  -2   7   32.10   37.50
 -13  -2   7   44.20   35.70
  13   2  -7   42.20   22.80
  13   2  -7   18.10   20.60
 -13   2   7   31.00   25.40
 -12  -2   7   19.40   34.00
  12  -2  -7   38.10   26.00
 -12  -2   7   18.40   26.60
  12   2  -7    5.10   19.40
 -12   2   7   19.90   22.00
  12   2  -7   29.80   20.60
 -12   2   7  -13.30   14.20
 -11  -2   7   39.70   27.80
 -11  -2   7  -10.70   31.60
  11  -2  -7   47.80   25.20
 -11   2   7    4.60   13.20
 -11   2   7   28.20   23.90
  11   2  -7   20.30   18.40
  11   2  -7   24.80   22.10
  10  -2  -7   27.20   21.50
 -10  -2   7   53.59   18.00
 -10  -2   7   10.40   29.90
 -10  -2   7   21.60   26.30
  10   2  -7   36.60   19.80
 -10   2   7    7.10   18.50
  10   2  -7   15.50   16.70
 -10   2   7   23.50   13.30
  -9  -2   7  331.17   46.70
   9  -2  -7  272.07   33.80
  -9  -2   7  351.46   43.10
  -9  -2   7  269.37   30.20
   9   2  -7  281.77   38.70
   9   2  -7  248.88   34.80
  -9   2   7  197.18   26.70
  -9   2   7  217.68   34.10
  -8  -2   7   18.10   14.30
  -8  -2   7   23.60   23.20
   8  -2  -7   22.60   19.10
  -8  -2   7    8.70   24.70
  -8   2   7    5.80    9.40
   8   2  -7   11.60   16.00
  -8   2   7    1.80   16.50
   8   2  -7   22.50   16.00
   8   2  -7   13.90   13.70
  -7  -2   7  291.27   40.40
  -7  -2   7  217.78   24.30
   7  -2  -7  320.57   35.20
  -7  -2   7  181.98   30.30
   7  -2  -7  171.38   26.10
   7   2  -7  193.38   27.10
   7   2  -7  198.68   31.80
   7   2  -7  196.08   23.90
  -7   2   7  172.48   21.40
  -7   2   7  187.98   25.80
   7   2  -7  323.07   49.80
  -7   2   7  199.48   31.40
  -6  -2   7   43.60   24.40
  -6  -2   7   58.69   13.60
  -6  -2   7   81.59   20.30
  -6  -2   7   40.70   18.70
   6  -2  -7   42.80   22.40
   6  -2  -7  105.99   20.30
   6   2  -7   78.39   23.00
   6   2  -7   51.29   13.00
   6   2  -7   53.59   19.30
  -6   2   7  104.99   20.90
   5  -2  -7  120.79   23.10
  -5  -2   7  179.38   25.20
  -5  -2   7  192.18   34.70
   5  -2  -7  279.97   30.00
   5  -2  -7  209.98   31.40
   5   2  -7  206.38   28.10
   5   2  -7  204.48   23.20
  -5   2   7  176.18   23.80
   5   2  -7  260.37   33.10
  -4  -2   7   67.99   16.10
  -4  -2   7   56.69   20.90
   4  -2  -7   56.69   15.90
   4  -2  -7   49.80   15.50
   4   2  -7   50.09   19.20
   4   2  -7   43.50   17.50
   4   2  -7   72.29   13.80
  -4   2   7   67.79   15.30
  -3  -2   7  432.06   44.50
   3  -2  -7  340.27   39.90
  -3  -2   7  420.86   41.30
   3  -2  -7  447.26   39.90
   3   2  -7  420.26   37.70
   3   2  -7  464.45   42.90
  -3   2   7  430.96   39.10
   3   2  -7  404.66   42.00
   2  -2  -7  245.88   26.00
   2  -2  -7  210.28   21.50
  -2  -2   7  255.97   27.80
   2  -2  -7  169.38   25.10
  -2  -2   7  282.87   31.20
   2   2  -7  205.18   27.90
  -2   2   7  236.38   22.50
   2   2  -7  252.57   29.90
   2   2  -7  217.68   24.80
  -2   2   7  246.58   25.50
   1  -2  -7  415.16   39.30
  -1  -2   7  456.35   39.60
   1  -2  -7  348.47   36.40
  -1  -2   7  477.55   41.10
   1  -2  -7  387.86   37.00
  -1  -2   7  475.65   41.90
   1   2  -7  409.76   42.00
  -1   2   7  468.95   37.80
  -1   2   7  504.85   39.30
   0  -2  -7  148.09   18.40
   0  -2   7  140.39   21.00
   0  -2   7  162.88   20.40
   0  -2  -7  158.08   19.20
   0  -2  -7  167.58   19.00
   0  -2   7  142.59   20.00
   0   2  -7  165.68   21.90
   0   2   7  137.49   18.70
  -1  -2  -7  339.67   31.80
   1  -2   7  304.67   33.50
  -1  -2  -7  347.27   31.90
   1  -2   7  333.67   31.50
   1  -2   7  327.07   34.30
   1   2   7  325.67   32.50
  -1   2  -7  341.67   35.40
   2  -2   7   73.89   16.70
   2  -2   7   65.99   16.00
  -2  -2  -7  114.69   15.50
   2  -2   7   77.89   13.30
  -2  -2  -7  111.39   15.50
   2   2   7   53.39   15.20
  -2   2  -7  138.59   19.80
  -2   2  -7  123.09   20.10
  -3  -2  -7  121.59   18.20
   3  -2   7   96.49   13.70
  -3  -2  -7  157.18   27.30
   3  -2   7   92.79   19.80
   3  -2   7   92.49   13.60
  -3  -2  -7  160.08   18.80
  -3   2  -7   92.89   16.70
  -3   2  -7  126.09   21.10
  -3   2  -7  147.89   22.20
  -4  -2  -7  108.19   26.20
  -4  -2  -7   47.10   21.20
  -4  -2  -7   53.39   20.90
   4  -2   7   71.79   11.70
   4  -2   7   61.39   19.60
   4  -2   7   70.29   11.60
  -4   2  -7  116.69   21.80
  -4   2  -7   80.79   17.80
   4   2   7   63.39   18.50
  -4   2  -7  132.49   36.80
  -5  -2  -7  221.98   27.80
  -5  -2  -7  226.88   32.70
  -5  -2  -7  258.27   36.10
   5  -2   7  205.08   22.80
  -5   2  -7  241.08   31.20
  -5   2  -7  245.38   28.50
  -5   2  -7  232.68   32.40
   5   2   7  178.38   27.40
  -6  -2  -7   33.10   23.90
  -6  -2  -7   69.19   27.80
   6  -2   7   42.90   11.70
   6  -2   7   54.69   21.20
  -6  -2  -7    3.60   11.60
  -6   2  -7   11.00   18.90
  -6   2  -7   43.90   18.90
  -6   2  -7   28.90   20.60
   6   2   7   16.10   17.60
  -7  -2  -7  189.48   24.10
  -7  -2  -7  271.67   41.60
   7  -2   7  211.48   24.40
  -7  -2  -7  202.78   35.00
  -7   2  -7  201.98   30.10
   7   2   7  173.68   29.70
  -7   2  -7  183.58   33.30
  -7   2  -7  215.18   26.10
  -8  -2  -7   45.90   29.70
  -8  -2  -7   90.89   30.50
  -8   2  -7   90.09   29.40
   8   2   7   41.80   22.10
  -8   2  -7   48.30   15.60
  -8   2  -7   61.19   24.00
   9  -2   7   29.50   15.70
  -9  -2  -7   31.10   32.10
  -9  -2  -7   15.20   15.40
  -9  -2  -7   77.39   31.60
   9   2   7    8.60   20.10
  -9   2  -7   52.19   26.90
  -9   2  -7   80.29   24.20
 -10  -2  -7   35.40   53.69
 -10  -2  -7   10.60   31.10
  10  -2   7   63.39   18.30
 -10   2  -7   23.90   24.60
 -10   2  -7   35.40   34.00
 -11  -2  -7   35.70   36.70
 -11  -2  -7   32.80   34.00
  11  -2   7    1.40   20.30
  11   2   7  -32.60   23.00
 -11   2  -7   56.09   34.20
 -11   2  -7   37.30   25.70
 -12  -2  -7  100.79   42.90
 -12  -2  -7   57.09   36.30
 -12   2  -7   64.59   37.60
 -12   2  -7   72.99   28.80
  12   2   7  118.69   32.30
 -13  -2  -7    0.20   37.20
 -13  -2  -7   -8.50   34.40
  13   2   7   22.50   25.80
 -13   2  -7   20.00   31.60
 -13   2  -7   34.70   29.60
 -13  -3   7  -36.40   32.00
  13  -3  -7   17.50   28.40
 -13  -3   7   34.80   35.70
  13   3  -7   -3.90   24.40
 -13   3   7   -2.60   23.50
 -12  -3   7  -18.10   36.50
  12  -3  -7   32.30   26.30
 -12  -3   7   78.89   36.00
 -12   3   7   42.90   28.00
  12   3  -7   34.70   26.20
  11  -3  -7   25.50   24.80
 -11  -3   7   11.50   37.30
 -11  -3   7   12.70   27.90
 -11   3   7   18.70   25.10
  11   3  -7   46.10   26.20
 -10  -3   7   99.49   39.10
 -10  -3   7   18.80   30.00
  10  -3  -7   97.29   35.00
  10   3  -7   58.59   25.00
   9  -3  -7   91.49   24.70
  -9  -3   7  131.99   34.80
  -9  -3   7   84.99   36.80
   9   3  -7  116.79   28.00
   8  -3  -7  137.19   27.80
  -8  -3   7  163.58   38.20
  -8  -3   7   93.19   29.20
   8   3  -7  164.58   33.60
   8   3  -7  105.89   27.50
   7  -3  -7   32.10   22.00
  -7  -3   7   67.69   33.30
  -7  -3   7   -8.90   21.80
   7   3  -7   19.00   20.60
   7   3  -7   22.20   23.80
   6  -3  -7  143.29   27.40
  -6  -3   7  163.98   36.90
  -6  -3   7  108.19   26.10
   6   3  -7  155.98   29.60
   6   3  -7  136.59   27.20
   5  -3  -7   24.10   18.30
  -5  -3   7   13.30   26.10
   5   3  -7   10.60   19.80
  -5   3   7   43.30   18.00
  -4  -3   7  211.48   30.60
   4  -3  -7  181.18   27.00
  -4  -3   7  244.58   36.90
   4   3  -7  184.38   30.70
  -4   3   7  278.27   29.70
   4   3  -7  163.18   30.30
  -3  -3   7  141.19   24.90
  -3  -3   7  213.48   33.30
   3  -3  -7  148.69   22.70
  -3   3   7  171.48   23.70
   3   3  -7  114.99   25.60
  -2  -3   7  265.77   41.80
   2  -3  -7  305.97   31.90
  -2  -3   7  260.17   33.50
   2   3  -7  275.57   35.30
  -2   3   7  308.17   28.70
  -2   3   7  287.67   31.60
  -1  -3   7  290.27   35.10
  -1  -3   7  294.17   36.00
  -1  -3   7  295.77   34.00
   1  -3  -7  287.37   30.00
  -1   3   7  295.37   29.70
   1   3  -7  253.97   33.80
   1   3  -7  235.08   29.70
   0  -3  -7  387.46   37.00
   0  -3   7  400.66   44.40
   0  -3   7  472.55   44.00
   0  -3   7  408.76   42.40
   0   3  -7  335.47   36.90
   0   3   7  440.56   38.90
   0   3  -7  368.66   46.70
  -1  -3  -7  236.18   26.60
   1  -3   7  247.58   30.10
   1  -3   7  263.47   34.30
  -1  -3  -7  223.68   27.20
  -1  -3  -7  212.88   38.40
  -1   3  -7  359.46   49.60
   1   3   7  251.17   30.30
  -1   3  -7  244.48   28.60
   2  -3   7  515.55   47.90
  -2  -3  -7  380.36   52.89
   2  -3   7  372.36   44.30
  -2  -3  -7  428.16   41.10
   2  -3   7  481.05   45.10
  -2  -3  -7  379.66   42.60
  -2   3  -7  527.95   64.69
   2   3   7  489.55   44.30
  -2   3  -7  453.65   42.60
  -3  -3  -7  118.89   19.60
   3  -3   7   99.89   20.20
  -3  -3  -7  142.99   34.60
   3  -3   7   84.09   23.50
  -3  -3  -7  133.39   22.10
   3   3   7  113.99   22.70
  -3   3  -7  104.29   24.60
  -3   3  -7  123.29   21.10
  -4  -3  -7  221.78   29.50
   4  -3   7  316.97   31.60
  -4  -3  -7  219.08   41.30
   4  -3   7  266.37   29.90
  -4   3  -7  182.68   28.50
   4   3   7  218.58   31.10
  -4   3  -7  249.28   32.00
   5  -3   7   39.50   15.50
   5  -3   7   45.60   15.70
  -5  -3  -7   51.99   19.10
  -5  -3  -7   33.00   26.80
  -5  -3  -7  110.99   37.40
   5   3   7   47.10   22.90
  -5   3  -7   44.40   19.50
  -5   3  -7   16.70   22.60
   6  -3   7  175.08   22.90
  -6  -3  -7  119.49   35.20
   6  -3   7  179.28   23.70
  -6  -3  -7  107.19   38.70
   6   3   7  123.99   30.70
  -6   3  -7  156.38   32.40
  -6   3  -7  193.48   29.60
  -7  -3  -7   23.30   31.60
   7  -3   7   34.90   15.60
  -7  -3  -7   -4.10   33.90
  -7   3  -7   10.30   21.90
   7   3   7   14.20   23.00
  -7   3  -7   33.00   27.40
   8  -3   7   60.69   17.50
  -8  -3  -7   49.30   16.30
  -8  -3  -7   90.09   59.69
  -8  -3  -7   69.49   39.30
  -8   3  -7   78.29   28.10
  -8   3  -7  100.29   32.00
  -9  -3  -7   54.19   15.90
  -9  -3  -7   65.49   41.10
   9  -3   7  -19.10   17.00
  -9  -3  -7   -5.80   33.30
  -9   3  -7    1.20   23.10
   9   3   7   13.20   26.60
  -9   3  -7   34.90   31.70
 -10  -3  -7   32.30   38.20
 -10  -3  -7   80.39   40.10
  10   3   7   52.19   28.20
 -10   3  -7    1.80   25.50
 -10   3  -7    3.00   30.80
 -11  -3  -7   -1.60   42.00
 -11  -3  -7   45.10   43.80
 -11   3  -7   13.90   28.30
  11   3   7  -12.10   25.20
 -11   3  -7  -35.40   27.40
 -10  -4   7   32.20   32.20
 -10  -4   7  -62.19   36.90
  10  -4  -7   52.39   28.10
  10   4  -7  -10.90   27.20
  -9  -4   7   52.29   38.70
  -9  -4   7   33.50   33.00
   9  -4  -7   71.99   28.10
   9   4  -7   38.60   29.90
   8  -4  -7   21.30   23.90
  -8  -4   7  -40.00   29.10
  -8  -4   7   96.59   42.20
   8   4  -7   42.70   29.60
  -7  -4   7  163.48   49.30
   7  -4  -7  196.68   32.50
  -7  -4   7  153.88   35.60
   7   4  -7  232.38   37.40
  -6  -4   7   90.09   41.40
   6  -4  -7   88.69   25.60
   6   4  -7  108.89   30.10
   6   4  -7  126.79   33.80
  -5  -4   7  346.07   51.59
   5  -4  -7  253.47   35.70
   5   4  -7  272.77   40.90
   4  -4  -7   89.09   23.30
  -4  -4   7  146.39   38.80
   4   4  -7  134.89   31.10
   4   4  -7  128.19   29.80
  -4   4   7  115.49   24.40
  -3  -4   7  228.78   44.20
   3  -4  -7  261.07   32.70
  -3   4   7  249.68   29.90
   3   4  -7  257.57   36.50
   2  -4  -7   12.30   16.30
  -2  -4   7    8.00   28.00
  -2   4   7   15.20   13.80
   2   4  -7   25.80   21.10
  -1  -4   7  422.16   54.79
  -1  -4   7  507.55   56.29
   1  -4  -7  408.96   60.69
  -1   4   7  385.96   42.80
   1   4  -7  466.15   49.70
   0  -4   7   47.40   27.70
   0  -4  -7  -25.70   32.00
   0  -4   7   58.19   21.60
   0   4   7   44.70   19.90
   0   4  -7   43.10   22.40
  -1  -4  -7  219.88   44.90
   1  -4   7  303.97   34.80
   1  -4   7  333.57   41.50
   1   4   7  332.27   36.30
  -1   4  -7  256.47   34.70
  -1   4  -7  233.98   30.30
  -2  -4  -7   65.79   19.50
  -2  -4  -7  110.19   41.70
   2  -4   7   98.89   27.20
  -2   4  -7   64.39   19.10
  -2   4  -7  102.49   23.20
   2   4   7   87.49   23.80
   3  -4   7   98.99   27.30
  -3  -4  -7  126.09   22.30
  -3   4  -7   77.99   21.70
  -3   4  -7  105.39   24.10
   3   4   7   69.79   25.00
   4  -4   7  107.49   25.60
  -4  -4  -7   48.40   21.70
  -4  -4  -7   40.50   36.90
   4   4   7  115.29   29.20
  -4   4  -7   55.39   20.70
  -5  -4  -7  189.48   47.90
   5  -4   7   95.49   26.30
   5  -4   7   74.19   26.80
  -5   4  -7  136.49   25.90
   5   4   7  137.59   30.30
   6  -4   7    8.60   23.30
  -6  -4  -7   19.50   43.80
   6  -4   7   64.19   28.60
  -6  -4  -7   19.20   33.50
   6   4   7   23.10   25.40
  -6   4  -7   37.90   21.70
  -7  -4  -7   76.99   44.80
  -7  -4  -7   49.80   37.00
  -7   4  -7   81.19   23.90
   7   4   7   45.60   26.60
  -8  -4  -7   11.90   37.90
  -8  -4  -7   22.70   41.60
  -8   4  -7   -5.70   21.30
   8   4   7  -14.70   29.60
  -9  -4  -7  -14.80   39.70
  -9  -4  -7   51.49   43.80
   9   4   7   50.09   31.80
  -9   4  -7   21.00   23.40
  -5  -5   7   54.39   42.50
   5   5  -7   23.70   29.30
  -4  -5   7  135.99   46.80
   4  -5  -7  125.59   57.59
   4   5  -7  141.99   37.30
  -3  -5   7  160.48   45.90
   3  -5  -7  125.49   49.10
   3   5  -7   82.79   34.40
   3   5  -7   98.69   30.60
  -2  -5   7   66.69   41.30
   2  -5  -7  124.49   45.90
   2   5  -7  104.59   30.10
  -2   5   7   36.70   16.40
   2   5  -7   86.09   28.40
  -1  -5   7  -10.50   44.30
   1  -5  -7   74.99   44.20
   1   5  -7   45.70   24.90
  -1   5   7    3.30   17.30
   1   5  -7   22.90   27.00
   0  -5  -7   60.89   45.80
   0  -5   7   44.40   33.60
   0   5   7  107.09   24.40
   0   5  -7   51.49   27.90
   0   5  -7   21.20   22.00
   1  -5   7  -15.20   30.70
  -1  -5  -7   35.30   50.39
   1   5   7   21.90   24.70
  -1   5  -7   24.80   20.30
  -2  -5  -7   85.59   47.40
   2  -5   7  120.89   36.10
  -2   5  -7   74.19   22.10
  -3  -5  -7  -66.89   47.90
   3  -5   7  109.79   32.40
   3   5   7    3.30   25.70
  -3   5  -7   34.80   18.90
  15   0  -8  140.89   24.00
 -15   0   8  171.68   37.40
  15   0  -8  125.49   32.10
 -15   0   8  160.78   46.00
 -14   0   8    0.90   37.00
 -14   0   8   22.80   36.80
  14   0  -8   20.50   14.50
  14   0  -8   12.20   24.50
  13   0  -8  309.97   33.40
 -13   0   8  253.17   41.00
  13   0  -8  250.07   37.90
 -13   0   8  246.48   49.90
 -12   0   8   40.30   32.60
  12   0  -8   53.99   22.00
 -12   0   8  122.09   28.10
  12   0  -8   89.09   18.10
  11   0  -8  238.48   34.10
  11   0  -8  260.87   30.60
 -11   0   8  280.17   46.90
 -11   0   8  376.46   42.10
  10   0  -8  302.07   31.20
  10   0  -8  331.37   39.20
  10   0  -8  230.88   35.00
 -10   0   8  275.87   35.40
 -10   0   8  263.07   44.20
   9   0  -8  988.90   84.79
  -9   0   8  871.51   97.89
   9   0  -8 1111.19   88.89
   9   0  -8 1091.09   89.79
   9   0  -8 1077.29   89.59
  -9   0   8 1145.19   97.19
  -9   0   8 1004.90   87.79
   8   0  -8  370.06   45.20
  -8   0   8  408.86   47.90
   8   0  -8  374.86   33.40
  -8   0   8  326.27   37.00
   8   0  -8  340.97   38.00
  -8   0   8  347.47   36.80
   8   0  -8  386.06   38.30
   8   0  -8  376.16   38.30
  -8   0   8  288.67   36.40
  -7   0   8  906.11   78.79
  -7   0   8 1021.10   86.09
   7   0  -8  957.50   79.79
   7   0  -8  873.21   83.39
   7   0  -8  994.10   76.59
  -7   0   8  897.31   78.99
   7   0  -8  994.50   79.79
   7   0  -8  905.91   79.59
  -7   0   8  963.40   78.19
   6   0  -8  426.86   39.80
   6   0  -8  407.76   42.90
  -6   0   8  370.66   35.50
  -6   0   8  362.16   36.90
  -6   0   8  396.16   37.30
   6   0  -8  367.86   38.20
  -6   0   8  407.26   44.80
   6   0  -8  358.96   38.60
   5   0  -8 2800.42  220.68
   5   0  -8 2826.12  219.68
  -5   0   8 2781.92  220.38
  -5   0   8 2843.12  218.68
  -5   0   8 2763.62  220.38
   5   0  -8 2853.11  223.48
   5   0  -8 2809.22  220.48
  -5   0   8 2918.31  223.78
  -4   0   8  517.45   47.60
   4   0  -8  586.64   48.60
   4   0  -8  598.64   49.10
  -4   0   8  527.55   44.80
   4   0  -8  580.04   51.79
   4   0  -8  555.24   46.10
  -4   0   8  495.15   47.70
  -4   0   8  551.04   51.69
   3   0  -8 2996.70  232.08
  -3   0   8 2964.40  231.88
  -3   0   8 2871.21  231.88
   3   0  -8 2995.50  232.18
  -3   0   8 3057.19  233.68
   3   0  -8 3026.50  234.08
   2   0  -8 1260.77   94.69
  -2   0   8 1082.79   92.59
   2   0  -8 1236.98   93.59
  -2   0   8 1057.09   92.69
   2   0  -8 1165.28   93.19
  -1   0   8 4733.23  356.66
   1   0  -8 4751.52  356.86
   1   0  -8 4695.83  356.56
   1   0  -8 4301.97  356.56
   0   0   8 2801.42  215.48
   0   0  -8 2674.03  214.48
   0   0  -8 2832.12  215.78
  -1   0  -8 4468.85  346.87
  -1   0  -8 4399.76  346.17
  -1   0  -8 4580.84  345.77
  -2   0  -8  554.74   47.20
  -2   0  -8  466.05   45.40
   2   0   8  553.14   45.40
  -2   0  -8  497.65   43.10
  -2   0  -8  553.84   46.80
  -3   0  -8 1999.70  160.68
  -3   0  -8 2044.10  163.78
  -3   0  -8 2019.80  163.88
   3   0   8 2305.87  163.48
  -3   0  -8 1993.10  162.58
   4   0   8  645.74   52.29
  -4   0  -8  545.45   48.50
  -4   0  -8  539.35   50.09
  -4   0  -8  579.94   53.49
  -5   0  -8 1459.85  113.89
  -5   0  -8 1318.97  109.89
  -5   0  -8 1332.47  108.89
   5   0   8 1363.06  111.79
  -6   0  -8  271.07   34.40
   6   0   8  288.97   33.50
  -6   0  -8  256.67   33.90
   6   0   8  198.48   29.80
  -6   0  -8  248.28   30.00
   7   0   8  452.95   47.80
  -7   0  -8  376.86   42.00
  -7   0  -8  470.05   44.70
  -7   0  -8  448.86   44.00
  -7   0  -8  549.25   53.29
   7   0   8  429.36   42.90
  -8   0  -8  155.78   33.90
  -8   0  -8  161.08   27.20
   8   0   8  186.08   25.10
  -9   0  -8  329.77   43.50
   9   0   8  310.77   39.50
  -9   0  -8  368.66   48.80
 -10   0  -8  118.99   29.40
  10   0   8   88.29   24.70
 -10   0  -8  165.38   39.70
 -11   0  -8   88.99   29.00
 -11   0  -8   59.79   34.20
  11   0   8   25.70   23.00
 -12   0  -8   45.90   33.90
 -12   0  -8   16.00   27.60
 -13   0  -8  253.07   41.50
 -13   0  -8  129.69   39.00
 -14   0  -8  -19.60   31.20
 -14   0  -8    0.70   32.90
  15  -1  -8   29.00   26.00
 -15  -1   8   22.90   27.60
 -15  -1   8  -29.50   36.80
  15   1  -8   18.10   24.30
 -15   1   8   21.50   24.00
  15   1  -8   23.70   21.00
 -14  -1   8  311.17   55.89
  14  -1  -8  208.48   36.00
  14   1  -8  237.18   33.10
  14   1  -8  224.88   36.30
 -14   1   8  228.28   38.10
 -13  -1   8  116.09   30.20
 -13  -1   8   73.39   39.40
  13  -1  -8  162.08   34.70
 -13   1   8  117.29   27.90
  13   1  -8  143.19   29.40
  13   1  -8  125.59   24.50
 -12  -1   8  316.67   44.00
  12  -1  -8  256.97   38.00
 -12  -1   8  257.37   48.90
 -12   1   8  293.97   42.40
  12   1  -8  309.07   36.40
  12   1  -8  281.37   37.00
 -11  -1   8   25.80   21.50
  11  -1  -8   21.30   19.30
 -11  -1   8   -0.30   29.50
  11   1  -8   34.00   15.90
 -11   1   8   21.40   18.30
  11   1  -8   28.00   19.40
 -10  -1   8  585.34   67.69
 -10  -1   8  620.94   59.09
  10  -1  -8  618.04   57.69
  10   1  -8  671.53   56.39
 -10   1   8  507.35   56.19
 -10   1   8  529.85   53.09
  10   1  -8  553.84   53.69
   9  -1  -8   82.99   19.80
   9  -1  -8   97.89   20.60
  -9  -1   8   58.89   24.60
  -9  -1   8   65.49   19.50
  -9  -1   8  106.39   30.90
  -9   1   8   81.99   20.30
  -9   1   8   50.59   15.10
   9   1  -8   96.69   23.10
   9   1  -8   84.79   19.60
   9   1  -8   81.39   18.40
   8  -1  -8 1214.48   98.39
  -8  -1   8 1164.78   96.39
   8  -1  -8 1036.50  106.39
  -8  -1   8 1202.08  104.89
  -8  -1   8 1209.18   98.19
  -8  -1   8 1135.89   98.29
   8  -1  -8 1111.39   97.59
   8   1  -8 1172.08  103.99
   8   1  -8 1272.77   99.99
  -8   1   8 1173.88   95.59
  -8   1   8  994.00  106.19
   8   1  -8 1222.08   96.39
  -8   1   8 1169.18   99.59
   8   1  -8 1252.77   96.99
   7  -1  -8  378.66   37.40
  -7  -1   8  373.36   38.90
  -7  -1   8  344.47   37.20
   7  -1  -8  367.86   43.60
   7  -1  -8  397.06   36.30
   7  -1  -8  394.06   38.90
  -7  -1   8  318.27   38.40
  -7  -1   8  363.06   46.70
  -7   1   8  304.87   37.50
  -7   1   8  314.57   35.00
  -7   1   8  330.87   37.40
   7   1  -8  402.56   37.50
   7   1  -8  459.95   41.80
   7   1  -8  520.85   58.69
   6  -1  -8 1828.22  151.98
   6  -1  -8 1894.01  156.48
   6  -1  -8 1896.31  151.08
   6  -1  -8 1914.61  152.98
  -6  -1   8 1991.90  153.48
  -6  -1   8 1958.40  151.88
  -6  -1   8 2030.50  151.98
  -6   1   8 1907.31  152.18
   6   1  -8 1941.01  156.48
  -6   1   8 1908.41  151.08
   6   1  -8 1916.81  154.08
  -6   1   8 1885.21  152.58
   6   1  -8 1897.81  151.68
  -5  -1   8  426.46   42.50
  -5  -1   8  433.66   40.20
   5  -1  -8  469.35   46.30
  -5  -1   8  490.55   40.30
   5  -1  -8  428.56   39.40
   5  -1  -8  415.46   39.70
  -5  -1   8  475.45   46.60
   5  -1  -8  457.95   42.50
   5   1  -8  425.56   40.60
  -5   1   8  435.76   40.40
   5   1  -8  431.66   43.50
  -5   1   8  434.76   40.90
   5   1  -8  395.96   45.70
  -4  -1   8 1577.84  129.89
  -4  -1   8 1507.15  125.89
   4  -1  -8 1682.93  126.59
   4  -1  -8 1677.23  128.49
  -4  -1   8 1534.15  126.99
   4  -1  -8 1788.92  131.89
  -4  -1   8 1503.65  128.29
   4   1  -8 1785.62  127.89
  -4   1   8 1500.65  126.19
   4   1  -8 1668.83  130.69
  -4   1   8 1504.85  127.69
   4   1  -8 1624.24  129.19
  -3  -1   8  393.26   44.70
  -3  -1   8  535.95   47.80
   3  -1  -8  532.75   47.30
   3  -1  -8  489.65   40.80
   3  -1  -8  516.75   42.20
   3  -1  -8  492.75   44.50
   3  -1  -8  514.55   42.20
   3   1  -8  543.55   46.80
  -3   1   8  419.26   41.60
  -3   1   8  412.06   43.20
   3   1  -8  543.25   44.20
   3   1  -8  523.15   46.10
   2  -1  -8 2685.43  206.08
   2  -1  -8 2698.63  206.68
   2  -1  -8 2723.63  206.78
   2  -1  -8 2701.53  207.68
  -2  -1   8 2401.36  207.48
  -2  -1   8 2657.13  208.48
   2   1  -8 2609.34  207.98
   2   1  -8 2768.32  208.88
  -2   1   8 2684.53  207.58
   2   1  -8 2727.03  207.38
  -2   1   8 2661.13  206.48
   1  -1  -8   47.50   12.80
   1  -1  -8   49.70   11.70
   1  -1  -8   47.60   11.20
  -1  -1   8   75.29   15.60
  -1  -1   8   76.39   12.60
   1   1  -8   61.39   14.70
   1   1  -8   43.80   12.20
   1   1  -8   55.99   15.90
   0  -1   8 2974.70  229.68
   0  -1   8 3079.19  226.98
   0  -1  -8 3033.10  228.68
   0  -1  -8 2858.11  228.58
   0  -1  -8 2954.50  228.28
   0  -1   8 2888.91  227.08
   0   1  -8 2840.32  226.78
   0   1  -8 2928.51  229.98
  -1  -1  -8  715.63   58.29
  -1  -1  -8  691.23   58.79
   1  -1   8  696.23   57.39
  -1  -1  -8  694.83   59.19
   1  -1   8  658.83   59.89
  -1   1  -8  698.63   60.49
  -1   1  -8  700.73   57.09
   1   1   8  748.43   58.89
  -2  -1  -8 1554.84  126.09
   2  -1   8 1539.15  125.29
  -2  -1  -8 1569.84  125.39
  -2  -1  -8 1595.84  126.89
  -2   1  -8 1686.53  125.39
   2   1   8 1590.74  125.79
  -2   1  -8 1551.34  127.09
  -3  -1  -8  411.06   44.10
  -3  -1  -8  436.66   42.00
  -3  -1  -8  457.05   44.10
   3  -1   8  502.75   43.30
  -3   1  -8  519.15   43.30
  -3   1  -8  452.15   44.50
   3   1   8  471.05   43.40
  -4  -1  -8 1589.14  124.89
  -4  -1  -8 1545.45  123.59
   4  -1   8 1423.06  123.39
  -4  -1  -8 1469.05  122.39
  -4   1  -8 1570.34  123.99
  -4   1  -8 1564.54  124.19
  -4   1  -8 1555.04  122.49
  -5  -1  -8  370.96   39.20
   5  -1   8  308.17   38.70
  -5  -1  -8  402.36   46.30
   5   1   8  385.36   38.30
  -5   1  -8  377.76   40.80
  -5   1  -8  351.46   39.90
  -5   1  -8  330.77   36.10
   6  -1   8  705.53   68.89
   6  -1   8  724.63   60.79
  -6  -1  -8  707.53   65.69
  -6  -1  -8  865.91   69.29
  -6  -1  -8  856.61   73.19
  -6   1  -8  606.74   64.59
  -6   1  -8  844.92   71.69
   6   1   8  800.32   67.49
  -6   1  -8  839.12   69.59
   7  -1   8  104.19   14.50
   7  -1   8  118.79   25.80
  -7  -1  -8  124.29   30.00
  -7  -1  -8   56.29   17.10
  -7   1  -8   77.09   19.00
  -7   1  -8   63.99   23.00
   7   1   8  101.39   22.30
  -7   1  -8  145.29   29.40
   8  -1   8  549.25   50.79
  -8  -1  -8  606.84   60.19
  -8  -1  -8  629.84   65.29
  -8  -1  -8  541.95   61.49
   8   1   8  547.15   55.99
  -8   1  -8  586.84   63.69
   9  -1   8  175.48   22.20
  -9  -1  -8   94.89   29.10
  -9  -1  -8   73.89   32.20
   9   1   8  150.18   27.60
   9   1   8  141.99   27.30
  -9   1  -8   99.99   31.90
 -10  -1  -8  137.59   33.20
  10  -1   8  174.78   24.90
 -10  -1  -8  195.58   40.30
 -10   1  -8  172.28   40.90
  10   1   8  122.69   30.70
 -11  -1  -8   36.50   27.80
  11  -1   8   28.60   21.20
  11   1   8   45.30   35.80
 -11   1  -8   42.00   37.00
 -12  -1  -8   35.80   29.90
 -12  -1  -8   69.19   37.40
  12  -1   8    2.70   35.00
 -12   1  -8   70.39   38.70
  12   1   8   20.00   24.50
 -13  -1  -8   50.49   36.20
 -13  -1  -8   41.30   32.50
  13   1   8  -29.60   24.80
 -13   1  -8   22.10   31.60
 -14  -2   8   52.89   41.90
 -14  -2   8    6.20   29.60
  14  -2  -8   68.89   30.60
 -14   2   8   32.20   24.90
  14   2  -8    7.90   23.00
  14   2  -8    7.40   22.50
 -13  -2   8  113.79   32.60
 -13  -2   8  151.48   45.10
  13  -2  -8  108.09   31.30
 -13   2   8  103.19   27.20
  13   2  -8  124.29   28.30
  13   2  -8  116.29   27.80
 -12  -2   8  129.59   34.60
 -12  -2   8   72.89   38.00
  12  -2  -8  113.09   28.90
 -12   2   8  113.19   31.00
  12   2  -8  129.99   27.00
  12   2  -8   70.49   29.60
  11  -2  -8  265.67   35.60
 -11  -2   8  193.98   47.00
 -11  -2   8  204.08   38.30
 -11   2   8  197.98   30.10
 -11   2   8  242.78   39.20
  11   2  -8  245.08   33.60
  11   2  -8  202.48   30.70
 -10  -2   8   61.79   26.60
 -10  -2   8   -0.90   30.70
  10  -2  -8   27.10   21.80
 -10  -2   8   17.90   17.40
  10   2  -8   25.30   21.60
  10   2  -8   52.09   23.00
 -10   2   8   11.70   12.60
 -10   2   8   35.00   18.70
  10   2  -8   31.50   17.60
  -9  -2   8  452.65   59.99
  -9  -2   8  360.06   42.20
   9  -2  -8  434.66   48.20
  -9  -2   8  381.46   50.99
  -9   2   8  459.35   48.60
  -9   2   8  432.06   39.60
   9   2  -8  446.66   50.89
   9   2  -8  449.06   46.00
   9   2  -8  439.76   43.10
  -8  -2   8   41.60   15.60
   8  -2  -8   94.79   24.50
  -8  -2   8   45.40   24.90
  -8  -2   8   45.90   28.30
   8   2  -8   43.70   18.50
  -8   2   8   43.80   19.90
  -8   2   8   86.19   13.40
   8   2  -8   59.59   16.70
   8   2  -8   54.79   23.20
   7  -2  -8  599.14   58.89
  -7  -2   8  698.73   68.29
  -7  -2   8  621.74   55.89
   7  -2  -8  701.33   60.39
  -7  -2   8  644.44   61.09
  -7   2   8  604.74   60.19
   7   2  -8  673.53   63.29
   7   2  -8  677.33   56.29
  -7   2   8  610.84   53.39
   7   2  -8  691.13   60.19
  -6  -2   8   94.19   27.70
  -6  -2   8  132.89   24.40
   6  -2  -8  115.09   29.10
  -6  -2   8  125.29   22.70
   6  -2  -8  103.79   20.20
   6   2  -8   90.99   17.10
   6   2  -8   92.09   27.20
  -6   2   8  119.59   19.90
   6   2  -8   92.69   22.50
  -5  -2   8 1128.09   95.69
   5  -2  -8 1136.69   98.59
   5  -2  -8 1005.80   93.69
   5  -2  -8 1169.38   94.49
  -5  -2   8 1136.09   93.59
  -5  -2   8 1235.98   99.69
   5   2  -8 1141.19   91.79
   5   2  -8 1193.98   97.09
   5   2  -8 1137.19   98.19
  -5   2   8 1136.69   93.99
   4  -2  -8  419.16   39.70
  -4  -2   8  407.96   40.80
  -4  -2   8  430.66   44.20
   4  -2  -8  311.27   38.40
  -4   2   8  401.36   38.90
   4   2  -8  381.06   42.50
   4   2  -8  376.46   43.00
   4   2  -8  402.76   37.20
   3  -2  -8  782.92   77.49
   3  -2  -8  902.41   77.69
  -3  -2   8 1069.39   79.79
  -3  -2   8 1033.20   80.79
   3   2  -8  873.61   76.09
   3   2  -8  885.81   82.19
   3   2  -8  845.82   78.79
  -3   2   8 1104.09   78.09
   2  -2  -8  281.57   29.90
   2  -2  -8  228.98   21.60
  -2  -2   8  178.88   26.60
   2  -2  -8  200.68   21.30
  -2  -2   8  136.99   26.30
   2  -2  -8  248.68   27.00
  -2   2   8  207.18   24.80
   2   2  -8  211.58   27.30
   2   2  -8  235.18   25.50
   2   2  -8  224.28   27.40
   1  -2  -8 1327.37  104.99
  -1  -2   8 1339.57  106.99
   1  -2  -8 1242.38  103.19
  -1  -2   8 1341.47  105.99
  -1  -2   8 1200.68  105.99
   1  -2  -8 1299.37  103.69
  -1   2   8 1442.96  104.19
   1   2  -8 1294.87  107.29
   0  -2   8  212.48   27.20
   0  -2   8  212.08   25.50
   0  -2  -8  211.88   25.40
   0  -2  -8  190.58   23.80
   0  -2  -8  221.68   23.90
   0  -2   8  222.18   25.90
   0   2   8  213.88   24.70
   0   2  -8  253.27   30.60
   1  -2   8 1192.38   95.59
   1  -2   8 1191.48   96.89
  -1  -2  -8 1214.88   95.09
  -1  -2  -8 1075.69   94.49
   1  -2   8 1201.98   93.79
   1   2   8 1197.28   95.39
  -1   2  -8 1189.38   97.49
   2  -2   8  170.38   20.40
  -2  -2  -8  195.98   23.50
  -2  -2  -8  200.18   23.50
   2  -2   8  232.58   27.20
  -2  -2  -8  246.88   34.50
   2  -2   8  206.78   27.50
  -2   2  -8  162.38   26.20
   2   2   8  203.58   24.00
  -2   2  -8  193.68   24.80
  -3  -2  -8 1336.37  101.79
   3  -2   8 1415.06  104.49
  -3  -2  -8 1283.17  107.99
  -3  -2  -8 1352.86  102.69
   3  -2   8 1097.89   97.89
   3  -2   8 1096.09   98.09
  -3   2  -8 1347.17  104.19
   3   2   8 1372.96  103.49
  -3   2  -8 1256.47  108.19
  -4  -2  -8   55.49   21.70
  -4  -2  -8   83.69   18.90
   4  -2   8   90.39   19.70
  -4  -2  -8   64.89   22.30
  -4   2  -8  114.09   22.30
   4   2   8   97.09   21.00
   5  -2   8  883.31   81.09
  -5  -2  -8  829.32   82.19
  -5  -2  -8  913.91   80.09
  -5   2  -8  891.61   78.29
  -5   2  -8  858.01   77.39
   5   2   8  854.01   75.49
  -6  -2  -8  301.07   41.90
  -6  -2  -8  258.37   38.80
   6  -2   8  206.38   34.00
   6  -2   8  235.48   23.20
  -6   2  -8  291.97   37.80
  -6   2  -8  330.77   35.70
   6   2   8  280.67   33.60
  -6   2  -8  238.78   30.30
  -7  -2  -8  450.65   56.89
  -7  -2  -8  396.46   42.70
   7  -2   8  504.85   39.70
  -7  -2  -8  468.65   56.89
  -7   2  -8  495.45   55.49
  -7   2  -8  430.46   45.20
  -7   2  -8  443.16   50.49
   7   2   8  454.75   49.40
   8  -2   8   82.79   14.10
  -8  -2  -8  122.89   33.40
  -8  -2  -8   39.20   16.80
  -8  -2  -8   65.79   30.40
  -8   2  -8   63.69   25.10
  -8   2  -8   89.19   27.90
   8   2   8   76.89   23.60
   9  -2   8  219.58   31.40
  -9  -2  -8  219.38   44.00
  -9  -2  -8  329.57   47.80
  -9   2  -8  246.78   37.90
   9   2   8  224.08   35.30
  -9   2  -8  267.97   41.80
 -10  -2  -8   -6.40   32.60
  10  -2   8   88.59   16.90
 -10  -2  -8   23.70   38.50
  10   2   8   55.29   27.60
 -10   2  -8  -11.70   24.30
 -10   2  -8   29.60   35.20
 -11  -2  -8   18.70   36.30
 -11  -2  -8   48.00   36.50
  11  -2   8   17.50   20.40
 -11   2  -8  113.59   28.80
 -11   2  -8   93.29   38.10
  11   2   8   60.59   27.50
 -12  -2  -8    0.70   36.60
 -12  -2  -8   -3.00   32.40
  12   2   8   32.70   29.10
 -12   2  -8   31.70   29.20
 -12   2  -8    4.00   29.60
 -13   2  -8   56.39   35.40
 -13   2  -8   93.49   32.40
  12  -3  -8   97.79   34.40
 -12  -3   8   58.89   34.10
 -12  -3   8   43.70   40.40
 -12   3   8  138.99   34.90
  12   3  -8   71.69   29.10
 -11  -3   8   19.80   38.00
 -11  -3   8   41.20   32.50
  11  -3  -8   44.50   25.90
  11   3  -8   50.99   26.50
 -10  -3   8  141.09   35.00
  10  -3  -8  252.17   55.39
 -10  -3   8  188.18   42.20
  10   3  -8  171.48   34.30
   9  -3  -8   98.39   27.10
  -9  -3   8  100.49   28.70
  -9  -3   8  156.18   40.40
   9   3  -8   88.89   33.20
   9   3  -8   95.79   30.50
  -8  -3   8  197.08   36.70
   8  -3  -8  215.28   35.00
  -8  -3   8  227.28   44.00
   8   3  -8  203.18   32.30
   8   3  -8  196.98   33.30
  -7  -3   8   35.60   24.10
   7  -3  -8   57.59   23.50
  -7  -3   8   76.19   31.70
   7   3  -8   68.59   25.10
   7   3  -8   43.80   21.70
  -6  -3   8  465.15   58.49
  -6  -3   8  409.56   48.90
   6  -3  -8  492.75   47.00
   6   3  -8  421.96   51.59
   6   3  -8  360.46   47.80
   5  -3  -8   63.29   19.80
  -5  -3   8   56.59   29.50
  -5   3   8   80.19   21.00
   5   3  -8   62.29   24.70
   4  -3  -8  556.44   54.49
  -4  -3   8  573.14   63.89
   4   3  -8  625.04   60.19
   4   3  -8  595.24   60.49
  -3  -3   8   85.39   21.40
  -3  -3   8   68.89   25.10
  -3  -3   8   63.09   21.00
   3   3  -8   29.10   21.20
  -3   3   8   55.89   17.00
  -2  -3   8  982.40   94.39
  -2  -3   8  741.93   67.79
   2  -3  -8  824.32   65.09
  -2  -3   8  710.23   67.39
   2   3  -8  752.72   63.09
  -2   3   8  718.13   64.19
  -2   3   8  675.23   61.89
   2   3  -8  798.02   69.69
   1  -3  -8  130.19   19.10
  -1  -3   8  109.69   23.10
  -1  -3   8  140.79   22.70
  -1  -3   8  105.19   25.50
  -1   3   8  105.49   17.80
   1   3  -8   83.09   18.20
   1   3  -8   90.19   22.40
   0  -3   8  972.80   88.19
   0  -3  -8 1013.20   84.49
   0  -3   8 1150.18   88.89
   0   3  -8 1082.59   89.09
   0   3   8  971.50   85.29
  -1  -3  -8  218.08   39.10
  -1  -3  -8  246.38   27.40
   1  -3   8  142.99   31.40
  -1  -3  -8  212.98   25.80
  -1  -3  -8  220.38   25.40
   1  -3   8  207.28   27.00
  -1   3  -8  229.78   29.50
  -1   3  -8  177.18   24.70
   1   3   8  191.68   26.50
  -2  -3  -8  288.27   33.60
   2  -3   8  376.76   37.00
   2  -3   8  327.67   39.30
  -2  -3  -8  324.27   47.60
  -2  -3  -8  268.27   32.90
  -2  -3  -8  293.47   35.20
  -2   3  -8  304.17   35.30
  -2   3  -8  335.97   40.00
   2   3   8  442.66   38.20
  -3  -3  -8   62.09   29.60
   3  -3   8   83.79   22.80
  -3  -3  -8   93.49   18.40
  -3  -3  -8   75.39   16.10
   3  -3   8   82.49   18.30
   3   3   8   48.60   20.50
  -3   3  -8  104.89   21.80
  -3   3  -8   84.89   22.30
  -4  -3  -8  416.76   54.89
   4  -3   8  382.56   42.00
   4  -3   8  397.56   37.50
  -4   3  -8  338.47   43.80
   4   3   8  349.57   42.50
  -4   3  -8  338.47   40.90
  -5  -3  -8   91.29   18.40
  -5  -3  -8   56.49   32.70
  -5  -3  -8   93.99   29.50
   5  -3   8   72.69   16.30
   5  -3   8   76.79   15.30
  -5  -3  -8   43.40   20.00
  -5   3  -8   67.79   23.50
   5   3   8   60.09   23.00
  -5   3  -8  105.29   26.60
   6  -3   8  250.27   28.20
  -6  -3  -8  265.37   45.30
  -6  -3  -8  236.98   29.00
  -6  -3  -8  272.47   42.70
  -6  -3  -8  230.38   27.30
   6  -3   8  258.37   28.80
   6   3   8  266.47   36.20
  -6   3  -8  281.07   35.90
  -6   3  -8  304.67   39.90
  -7  -3  -8   23.50   14.60
  -7  -3  -8   25.80   35.60
   7  -3   8   56.49   14.20
  -7  -3  -8   14.80   34.20
  -7  -3  -8   33.10   17.80
   7  -3   8   56.09   13.90
  -7   3  -8   92.99   31.50
  -7   3  -8   35.90   25.10
   7   3   8   32.90   23.00
  -8  -3  -8   97.69   19.50
  -8  -3  -8   53.59   42.50
   8  -3   8  136.79   18.40
  -8  -3  -8   93.09   34.70
   8  -3   8  118.29   24.00
   8   3   8   60.99   28.90
  -8   3  -8  102.49   33.80
  -8   3  -8   90.69   30.90
  -9  -3  -8   30.00   37.00
  -9  -3  -8    8.70   35.90
  -9   3  -8   46.00   27.50
  -9   3  -8   21.80   31.60
   9   3   8   22.40   28.50
 -10  -3  -8   58.69   43.60
 -10  -3  -8   73.39   41.00
 -10   3  -8   76.59   37.40
 -10   3  -8   25.00   29.00
  10   3   8   84.89   29.60
 -11  -3  -8   33.30   40.60
 -11  -3  -8  -10.30   39.70
 -11   3  -8    7.00   31.20
 -11   3  -8  -32.40   29.90
  11   3   8   28.30   32.30
 -10  -4   8   97.69   44.70
 -10  -4   8   31.80   34.00
  10  -4  -8   23.70   29.60
  10   4  -8  -28.20   26.30
   9  -4  -8   84.09   32.70
  -9  -4   8   41.00   39.80
  -9  -4   8   76.19   35.10
   9   4  -8  114.19   34.10
  -8  -4   8   28.50   40.50
  -8  -4   8  -10.90   30.20
   8  -4  -8   25.80   26.10
   8   4  -8   47.40   29.60
   7  -4  -8  220.28   33.10
  -7  -4   8  174.88   45.50
  -7  -4   8   62.39   29.60
   7   4  -8  138.39   34.00
   6  -4  -8   56.69   23.30
  -6  -4   8   48.20   36.80
   6   4  -8   -5.70   25.30
   6   4  -8   -1.30   25.50
   5  -4  -8  279.77   37.60
  -5  -4   8  303.07   51.09
   5   4  -8  284.97   43.10
   5   4  -8  311.57   43.70
  -4  -4   8   38.50   33.00
   4  -4  -8    7.80   18.80
  -4   4   8   43.80   21.10
   4   4  -8   15.70   25.90
   4   4  -8   48.10   25.60
   3  -4  -8  286.87   33.10
  -3  -4   8  257.27   43.80
   3   4  -8  219.98   37.60
  -2  -4   8   33.80   29.70
   2  -4  -8   66.09   18.50
   2   4  -8   56.69   24.50
  -2   4   8   31.70   14.60
   1  -4  -8  265.47   52.89
  -1  -4   8  223.68   39.10
  -1   4   8  182.48   27.30
   1   4  -8  271.27   34.30
   0  -4   8  158.98   33.60
   0  -4  -8  215.98   50.09
   0   4  -8  167.68   30.10
   0   4   8  167.48   26.90
   1  -4   8  133.49   28.50
  -1  -4  -8  133.99   46.50
  -1   4  -8  141.89   27.00
  -1   4  -8  101.39   20.20
   1   4   8   89.89   24.30
  -2  -4  -8  139.59   22.70
   2  -4   8  129.09   28.20
   2   4   8  149.69   27.50
  -2   4  -8  113.39   27.70
   3  -4   8  163.28   32.90
  -3  -4  -8  100.59   42.30
  -3  -4  -8  156.18   25.50
   3   4   8  154.58   29.40
  -3   4  -8  143.09   28.20
  -3   4  -8  162.18   28.90
  -4  -4  -8   37.60   20.50
   4  -4   8    0.90   30.70
  -4  -4  -8   52.79   42.20
   4  -4   8   49.00   19.90
  -4   4  -8   28.30   22.00
   4   4   8   -5.40   21.50
  -5  -4  -8  191.28   52.29
   5  -4   8  159.28   28.00
  -5   4  -8  156.98   30.00
   6  -4   8   -5.70   25.20
  -6  -4  -8   35.80   35.90
   6  -4   8   28.50   18.80
  -6  -4  -8    6.80   40.60
   6   4   8   58.19   28.30
  -6   4  -8   13.10   23.30
  -7  -4  -8  141.59   51.49
  -7  -4  -8   59.29   39.30
   7  -4   8   80.09   20.20
  -7   4  -8   32.50   25.00
   7   4   8   75.89   32.10
  -8  -4  -8  -19.90   39.60
  -8  -4  -8   11.90   44.70
  -8   4  -8   -0.40   23.80
   8   4   8   32.20   30.40
  -4  -5   8   43.10   39.00
   4   5  -8   48.40   30.20
  -3  -5   8   53.59   40.50
   3  -5  -8   41.30   53.49
   3   5  -8   41.80   28.30
   3   5  -8  104.09   34.80
  -2  -5   8   58.09   47.10
   2  -5  -8   97.09   54.39
   2   5  -8   46.00   29.70
  -2   5   8   44.70   17.90
   2   5  -8   68.19   29.10
   1  -5  -8  169.68   56.89
  -1  -5   8   46.20   36.90
  -1   5   8   75.49   20.50
   1   5  -8   48.60   29.40
   1   5  -8  -14.10   23.60
   0  -5   8   85.09   37.60
   0  -5  -8   66.29   50.69
   0   5  -8   92.69   26.50
   0   5   8   72.59   23.80
   1  -5   8    5.10   32.50
  -1  -5  -8  -16.50   39.60
   1   5   8   38.80   24.60
  -1   5  -8   16.60   21.70
   2  -5   8   76.29   32.20
  -2  -5  -8  158.28   54.69
   2   5   8  101.89   34.40
  -2   5  -8   57.09   23.70
  -3   5  -8   22.20   20.40
 -15   0   9  -44.40   24.00
  15   0  -9    4.80   14.60
  15   0  -9  -14.60   20.00
 -15   0   9  -13.30   33.90
  14   0  -9   17.80   23.10
  14   0  -9    7.20   14.40
 -14   0   9    5.80   21.20
 -14   0   9  -25.40   31.90
  13   0  -9    9.10   14.30
 -13   0   9   -3.30   20.40
 -13   0   9   -2.20   33.20
 -12   0   9    8.40   19.50
 -12   0   9   20.00   32.10
  12   0  -9   -1.10   20.50
  12   0  -9    4.30   13.40
  11   0  -9    6.20   12.80
 -11   0   9  -16.60   28.20
 -11   0   9    4.20   18.10
  11   0  -9    1.60   16.80
  10   0  -9    0.60   12.20
  10   0  -9  -15.70   13.30
  10   0  -9   -2.00   17.40
 -10   0   9   -7.80   24.70
 -10   0   9  -15.50   15.10
  -9   0   9   -3.90   23.40
  -9   0   9  -14.40   14.10
   9   0  -9   38.60   17.10
   9   0  -9   -0.20   15.70
  -9   0   9    0.30   16.00
   9   0  -9   11.40   16.00
   9   0  -9   -9.00   11.10
   8   0  -9    1.30   12.90
  -8   0   9   -1.60   15.30
  -8   0   9   -7.70   21.00
   8   0  -9   -5.10   14.00
   8   0  -9   -4.50   13.50
   8   0  -9   -6.50    9.60
  -8   0   9   -3.90   22.00
  -8   0   9   -3.20   12.70
   8   0  -9    7.60   21.30
  -7   0   9   -5.10   10.40
   7   0  -9   -4.80   12.50
  -7   0   9  -20.20   25.00
  -7   0   9   -3.40   11.30
  -7   0   9   -2.30   19.90
   7   0  -9  -14.00   13.50
   6   0  -9  -28.90   10.50
  -6   0   9  -13.30   11.80
   6   0  -9   16.50   16.90
  -6   0   9   17.00   13.00
  -6   0   9  -15.00    9.50
   6   0  -9    2.50   13.20
   5   0  -9   -3.80   13.20
  -5   0   9  -17.30   16.00
   5   0  -9    5.10   12.00
  -5   0   9   -0.40   12.60
   5   0  -9    9.10   15.80
  -5   0   9    5.70   10.90
   5   0  -9   -8.60    9.80
  -5   0   9   -0.40    8.20
   4   0  -9    7.60   12.10
  -4   0   9    0.50   11.60
   4   0  -9    7.40   12.70
   4   0  -9   -1.50   14.20
  -4   0   9  -20.80   10.70
  -4   0   9    6.10   15.10
   3   0  -9    2.10   12.20
  -3   0   9   -4.60   11.50
   3   0  -9    0.30   11.70
  -3   0   9    5.40   13.00
  -3   0   9   -2.80   10.70
   3   0  -9   -0.30   13.30
   2   0  -9   -8.20   10.60
  -2   0   9    8.80   11.30
   2   0  -9    7.70   11.60
   2   0  -9    2.80   13.00
   1   0  -9   -1.60   11.90
  -1   0   9   -5.10    9.60
   1   0  -9   -5.10   11.90
   1   0  -9    4.40   11.60
   0   0  -9   16.80   12.70
   0   0  -9   -6.10    9.80
   0   0  -9   15.80   11.90
   0   0   9    1.70    9.70
  -1   0  -9   -0.90    9.80
  -1   0  -9   -3.20   10.00
  -1   0  -9  -10.80   11.10
  -2   0  -9   -6.00   10.00
  -2   0  -9   -1.70   12.20
  -2   0  -9    0.60    8.30
  -2   0  -9   -8.40   12.40
  -3   0  -9   -5.20   13.10
  -3   0  -9  -10.40   13.10
  -3   0  -9   -2.30    9.00
  -3   0  -9   -6.00   10.90
   3   0   9   -6.50   11.50
  -4   0  -9   -1.20   11.20
  -4   0  -9   -7.30   10.10
   4   0   9  -15.10   13.30
  -4   0  -9   24.60   15.40
  -5   0  -9  -13.60   20.80
  -5   0  -9  -13.60   11.50
  -5   0  -9   12.70   16.70
   5   0   9   -4.30   14.60
   6   0   9    4.40   16.70
  -6   0  -9  -28.00   12.30
  -6   0  -9    8.90   14.70
  -6   0  -9   10.60   20.90
  -7   0  -9  -16.80   21.00
  -7   0  -9   -6.90   14.90
   7   0   9    3.20   18.00
  -8   0  -9  -28.30   22.00
   8   0   9  -21.70   14.00
  -8   0  -9   -1.40   18.30
  -9   0  -9   46.60   26.60
   9   0   9   35.90   17.60
  -9   0  -9   13.20   20.60
  10   0   9   29.50   20.20
 -10   0  -9   18.30   29.00
 -10   0  -9   -7.70   23.20
 -11   0  -9   -3.00   24.50
 -11   0  -9  -42.00   41.70
  11   0   9  -14.00   23.10
 -12   0  -9   34.00   27.80
 -12   0  -9   48.60   32.70
 -13   0  -9   31.70   30.10
 -13   0  -9  -10.30   34.20
 -15  -1   9   33.10   35.80
  15  -1  -9   18.20   20.10
 -15  -1   9   14.40   28.20
  15   1  -9   28.30   19.80
 -15   1   9   25.80   23.60
  15   1  -9   13.90   26.60
 -14  -1   9   40.30   35.40
 -14  -1   9   50.59   29.90
  14  -1  -9  -17.50   19.70
  14   1  -9   14.00   23.90
  14   1  -9    2.70   17.30
 -14   1   9   17.40   23.00
 -13  -1   9   83.49   37.90
  13  -1  -9   24.40   20.40
 -13  -1   9  -10.10   21.80
  13   1  -9    9.60   17.30
 -13   1   9    0.70   20.80
  13   1  -9   25.70   23.50
 -12  -1   9    1.30   46.30
 -12  -1   9   32.70   23.30
  12  -1  -9  -37.40   23.90
 -12   1   9  -11.60   17.60
  12   1  -9    8.50   18.00
  12   1  -9  -32.40   17.50
 -11  -1   9   -5.20   29.60
  11  -1  -9   -2.90   18.40
 -11  -1   9   -1.40   19.60
  11   1  -9   14.40   15.60
  11   1  -9   -6.60   18.40
 -11   1   9   10.70   21.60
 -10  -1   9   37.50   19.60
 -10  -1   9    9.50   28.40
  10  -1  -9   16.60   19.20
  10   1  -9   10.50   21.80
  10   1  -9   23.50   18.00
  10   1  -9   14.20   16.20
 -10   1   9    5.10   10.90
 -10   1   9   20.90   19.70
  -9  -1   9  111.39   22.80
   9  -1  -9  154.68   26.10
   9  -1  -9  132.59   24.30
  -9  -1   9  147.29   28.40
  -9  -1   9  120.89   32.40
   9   1  -9  125.79   21.50
   9   1  -9  105.99   26.60
  -9   1   9  100.09   22.70
   9   1  -9   88.79   21.00
  -9   1   9  107.89   21.20
   8  -1  -9   79.29   21.90
   8  -1  -9   94.49   21.10
   8  -1  -9  107.19   20.30
  -8  -1   9   92.69   28.10
  -8  -1   9   83.89   20.10
   8   1  -9   89.59   23.60
  -8   1   9   91.69   18.80
   8   1  -9   40.40   16.60
   8   1  -9   82.19   18.90
   7  -1  -9  206.18   28.50
   7  -1  -9  332.97   35.50
   7  -1  -9  254.47   29.30
   7  -1  -9  294.97   38.00
  -7  -1   9  240.98   29.30
  -7  -1   9  282.17   38.00
  -7  -1   9  283.17   29.60
  -7  -1   9  166.78   28.20
  -7   1   9  238.88   30.20
  -7   1   9  211.08   27.40
  -7   1   9  296.57   32.20
   7   1  -9  241.48   35.00
   7   1  -9  257.17   33.00
   6  -1  -9   23.00   14.60
  -6  -1   9   14.60   13.50
   6  -1  -9   -2.30   11.40
  -6  -1   9   -7.70   23.90
  -6  -1   9    0.60   21.30
  -6  -1   9   20.70   12.50
   6  -1  -9   21.60   11.40
   6   1  -9   16.60   15.60
  -6   1   9   12.30   10.70
  -6   1   9   25.80   13.00
   6   1  -9    1.80   13.00
   6   1  -9   14.80   18.30
   5  -1  -9  200.08   23.60
  -5  -1   9  170.28   22.70
  -5  -1   9  161.88   24.90
   5  -1  -9  160.98   22.10
  -5  -1   9  216.18   29.60
  -5  -1   9  192.08   21.40
   5  -1  -9  209.48   30.20
  -5   1   9  166.28   22.70
  -5   1   9  194.08   24.50
   5   1  -9  224.78   31.00
   5   1  -9  244.08   26.00
   5   1  -9  234.78   31.40
   4  -1  -9   63.09   19.70
   4  -1  -9   50.39   14.60
  -4  -1   9   35.80   12.40
   4  -1  -9   71.39   13.40
  -4  -1   9   35.30   13.60
  -4  -1   9   50.79   17.50
   4   1  -9   66.59   19.30
  -4   1   9   60.89   15.40
   4   1  -9   49.99   14.40
  -4   1   9   44.20   14.70
   4   1  -9   99.59   19.60
   3  -1  -9  115.29   14.30
   3  -1  -9  137.69   20.40
  -3  -1   9   42.70   15.80
  -3  -1   9   42.10   16.20
   3  -1  -9  105.09   14.60
   3  -1  -9  112.19   20.70
   3  -1  -9  135.99   16.60
   3   1  -9  112.29   17.20
  -3   1   9   80.29   15.50
   3   1  -9  107.59   19.20
  -3   1   9   78.59   16.00
   3   1  -9   71.49   18.60
   2  -1  -9  326.17   31.50
   2  -1  -9  328.37   32.60
  -2  -1   9  362.16   34.50
   2  -1  -9  340.57   31.60
   2  -1  -9  336.97   34.30
  -2  -1   9  336.27   34.00
   2   1  -9  348.27   36.90
   2   1  -9  369.96   34.30
  -2   1   9  363.06   33.80
  -2   1   9  343.77   33.70
   2   1  -9  338.57   34.60
  -1  -1   9   97.79   18.30
  -1  -1   9  100.99   15.60
   1  -1  -9  102.19   15.60
   1  -1  -9   90.99   15.10
   1  -1  -9  125.29   17.30
   1   1  -9  109.19   19.30
   1   1  -9   99.39   19.00
   1   1  -9   97.89   15.80
   0  -1  -9  113.89   16.50
   0  -1  -9  143.49   19.30
   0  -1   9   95.59   13.10
   0  -1  -9   81.09   15.10
   0  -1   9   95.39   15.00
   0   1  -9  100.39   18.80
   0   1  -9  107.69   13.00
  -1  -1  -9  345.97   34.30
  -1  -1  -9  336.37   35.20
   1  -1   9  399.56   33.40
   1  -1   9  354.86   36.40
  -1  -1  -9  371.96   36.20
  -1   1  -9  351.56   37.80
  -1   1  -9  385.26   32.70
  -2  -1  -9  128.29   19.30
  -2  -1  -9   89.39   19.00
  -2  -1  -9  136.29   18.40
   2  -1   9   94.89   16.20
  -2  -1  -9  112.79   18.80
  -2   1  -9  110.69   16.60
   2   1   9  125.39   19.10
  -2   1  -9  121.49   20.80
  -3  -1  -9  152.18   19.50
   3  -1   9  124.99   19.70
  -3  -1  -9  162.08   23.10
  -3  -1  -9  140.69   21.60
   3   1   9  107.09   19.70
  -3   1  -9  129.79   22.40
  -3   1  -9  114.39   19.50
  -4  -1  -9   55.09   16.10
   4  -1   9   83.89   18.80
  -4  -1  -9   89.59   18.90
  -4  -1  -9  101.89   22.60
  -4   1  -9   79.89   19.50
   4   1   9   68.39   18.80
  -4   1  -9  106.09   19.80
  -4   1  -9  100.89   18.10
  -5  -1  -9  281.37   36.50
  -5  -1  -9  258.67   31.10
  -5  -1  -9  224.98   30.70
   5  -1   9  287.97   34.10
  -5   1  -9  278.57   33.70
  -5   1  -9  251.27   32.70
   5   1   9  259.87   32.60
  -6  -1  -9   30.60   23.40
  -6  -1  -9    8.10   16.90
  -6   1  -9   28.60   21.20
  -6   1  -9   38.10   19.50
  -6   1  -9   29.70   12.90
   6   1   9   -1.60   16.90
  -7  -1  -9   59.59   27.30
  -7  -1  -9    2.50   14.80
  -7  -1  -9   40.00   24.60
   7  -1   9    9.00   20.40
  -7   1  -9   77.09   26.50
  -7   1  -9   58.39   22.70
   7   1   9   29.90   19.40
   8  -1   9   50.39   12.90
  -8  -1  -9   62.79   24.90
  -8  -1  -9   60.49   30.90
  -8   1  -9   50.69   27.60
   8   1   9   22.70   21.80
  -8   1  -9   38.90   24.10
  -9  -1  -9   13.10   27.10
  -9  -1  -9   35.20   26.00
   9   1   9   12.70   21.40
  -9   1  -9   27.00   24.80
  -9   1  -9   60.59   29.00
 -10  -1  -9   38.00   26.20
  10  -1   9  -41.10   14.40
 -10  -1  -9   -8.10   28.00
 -10   1  -9   -3.20   27.70
  10   1   9  -10.10   21.00
  11  -1   9  -31.80   18.30
 -11  -1  -9   29.10   27.50
 -11  -1  -9   48.50   32.60
 -11   1  -9  -17.30   32.90
  11   1   9    8.50   24.30
 -12  -1  -9   -6.70   30.40
 -12  -1  -9   26.60   29.60
 -12   1  -9    2.80   32.20
  12   1   9   -6.20   26.70
 -13  -1  -9   20.10   32.80
 -13  -1  -9   39.30   32.00
 -13   1  -9  -23.00   32.20
  13   1   9   22.60   27.80
 -14  -2   9  -18.40   38.00
 -14  -2   9    9.00   26.70
  14  -2  -9   71.29   27.70
  14   2  -9   36.20   38.40
  14   2  -9    4.80   20.40
 -14   2   9    9.10   24.20
 -13  -2   9   40.70   38.30
  13  -2  -9   29.80   24.10
 -13  -2   9   28.30   27.40
  13   2  -9   71.09   24.10
  13   2  -9   26.40   21.60
 -13   2   9   39.40   23.50
 -12  -2   9  122.89   40.90
  12  -2  -9  102.99   26.40
 -12  -2   9  126.79   32.70
 -12   2   9   88.89   28.10
 -12   2   9   37.00   19.00
  12   2  -9  127.29   24.30
 -11  -2   9   93.79   27.80
  11   2  -9   69.19   22.90
 -11   2   9   66.09   23.40
  11   2  -9   60.09   22.60
 -11   2   9   16.90   18.50
 -10  -2   9  -18.00   17.50
  10  -2  -9   32.90   20.20
 -10  -2   9    4.10   31.00
 -10  -2   9   18.80   22.90
 -10   2   9   19.30   23.60
 -10   2   9    4.80   11.60
  10   2  -9   12.40   18.10
  10   2  -9   24.00   26.20
  10   2  -9   26.60   17.60
  -9  -2   9  229.58   43.40
   9  -2  -9  270.17   37.50
  -9  -2   9  189.38   33.70
   9   2  -9  200.48   27.70
  -9   2   9  178.38   32.40
  -9   2   9  206.98   24.50
   9   2  -9  163.18   29.00
   9   2  -9  230.68   36.10
   8  -2  -9   45.60   21.00
  -8  -2   9   -4.80   14.10
  -8  -2   9    4.70   24.30
  -8  -2   9   14.10   28.40
  -8   2   9  -12.90   10.00
   8   2  -9   11.70   17.40
  -8   2   9   -1.00   18.40
   8   2  -9   13.60   19.60
  -7  -2   9   85.09   29.90
   7  -2  -9  112.09   24.40
  -7  -2   9   84.09   17.00
  -7  -2   9   85.69   23.20
   7  -2  -9   84.49   18.90
  -7   2   9   72.19   14.30
   7   2  -9   72.59   24.00
   7   2  -9   64.89   17.30
  -6  -2   9  118.39   22.90
   6  -2  -9  145.39   23.30
  -6  -2   9  119.29   30.40
   6   2  -9  152.48   28.50
  -6   2   9  118.79   20.60
   6   2  -9  159.38   21.00
   6   2  -9  149.69   27.30
  -5  -2   9   73.59   17.80
  -5  -2   9   75.89   24.50
   5  -2  -9  100.79   19.50
   5  -2  -9   67.79   17.80
   5  -2  -9   87.29   25.40
  -5  -2   9   54.79   17.90
  -5   2   9   85.39   12.60
   5   2  -9  102.99   22.20
   5   2  -9   60.79   21.50
  -5   2   9   78.19   19.30
   5   2  -9   54.69   16.00
   4  -2  -9  254.87   32.60
  -4  -2   9  256.07   33.40
  -4  -2   9  284.87   35.50
   4  -2  -9  245.68   31.10
   4   2  -9  296.07   34.40
  -4   2   9  246.48   31.50
   4   2  -9  296.77   31.30
   4   2  -9  302.77   37.20
   3  -2  -9   45.30   14.70
   3  -2  -9   88.49   11.30
  -3  -2   9   47.60   18.90
   3  -2  -9   96.39   17.70
  -3  -2   9   46.60   17.90
   3   2  -9   69.69   18.60
  -3   2   9   43.80   14.20
   3   2  -9   64.89   16.30
   3   2  -9   61.29   18.60
  -2  -2   9  385.46   40.80
  -2  -2   9  424.96   39.50
  -2  -2   9  412.66   41.50
   2  -2  -9  420.96   35.50
   2  -2  -9  396.56   40.00
   2  -2  -9  456.05   39.80
   2  -2  -9  372.36   35.60
   2   2  -9  382.96   42.80
   2   2  -9  401.66   38.70
   2   2  -9  402.36   39.70
  -2   2   9  410.76   39.00
   1  -2  -9   31.70   11.00
   1  -2  -9    7.80    9.70
   1  -2  -9   49.70   14.70
  -1  -2   9   18.80   15.70
  -1  -2   9   26.20   13.80
   1   2  -9   39.20   22.40
   1   2  -9   37.70   14.80
  -1   2   9   38.00   12.10
   1   2  -9   18.20   14.10
   0  -2   9  159.68   22.00
   0  -2  -9  207.38   23.50
   0  -2   9  175.88   21.50
   0  -2   9  167.88   26.00
   0  -2  -9  193.78   22.90
   0  -2  -9  198.18   23.80
   0   2   9  205.18   23.80
   1  -2   9   66.09   17.80
  -1  -2  -9  132.49   18.20
   1  -2   9   93.59   14.00
   1  -2   9   77.69   16.70
  -1  -2  -9  134.89   18.70
  -1  -2  -9   87.09   17.10
  -1   2  -9   94.09   33.60
   1   2   9  101.39   18.30
  -2  -2  -9  445.66   50.89
  -2  -2  -9  384.86   40.70
   2  -2   9  533.55   43.70
  -2  -2  -9  386.36   40.90
   2  -2   9  455.25   43.80
  -2   2  -9  451.05   45.60
  -2   2  -9  432.56   42.20
   3  -2   9  216.58   28.20
  -3  -2  -9  240.78   28.50
  -3  -2  -9  200.38   35.70
  -3  -2  -9  218.78   34.10
   3   2   9  213.28   29.00
  -3   2  -9  201.28   29.30
  -3   2  -9  195.48   28.00
  -4  -2  -9  359.66   48.00
  -4  -2  -9  347.27   39.20
   4  -2   9  457.25   44.00
  -4  -2  -9  366.76   45.70
  -4   2  -9  484.25   47.00
   4   2   9  416.26   41.40
  -4   2  -9  292.17   42.50
  -5  -2  -9   93.59   25.00
   5  -2   9   42.90   20.80
  -5  -2  -9   93.69   28.80
   5   2   9   76.79   22.90
  -5   2  -9   82.39   19.60
  -5   2  -9  118.49   25.10
  -5   2  -9   58.69   23.00
  -6  -2  -9   72.79   26.70
  -6  -2  -9   79.59   28.60
   6   2   9   67.79   22.30
  -6   2  -9   17.10   20.90
  -6   2  -9   68.29   25.80
  -7  -2  -9  -35.60   12.10
  -7  -2  -9   46.50   25.90
  -7  -2  -9   33.10   28.10
   7   2   9    4.50   19.50
  -7   2  -9   32.10   22.00
  -7   2  -9    8.70   24.30
  -8  -2  -9   75.99   31.10
  -8  -2  -9   58.49   16.20
  -8  -2  -9  108.29   33.10
   8   2   9   57.09   24.20
  -8   2  -9   45.10   24.80
  -8   2  -9   24.60   27.40
  -9  -2  -9   28.50   32.60
  -9  -2  -9   33.30   32.30
  -9   2  -9    6.90   23.50
   9   2   9    7.80   24.70
  -9   2  -9   21.40   29.20
  10  -2   9    4.50   12.80
 -10  -2  -9   60.99   34.90
 -10  -2  -9   28.10   34.40
  10   2   9   15.80   26.30
 -10   2  -9   37.50   26.30
 -11  -2  -9  -11.40   38.30
 -11   2  -9   14.70   27.70
 -11   2  -9   37.90   32.70
  11   2   9   47.00   28.20
 -12  -2  -9   10.60   33.50
 -12  -2  -9    5.90   37.30
 -12   2  -9   13.70   29.10
 -12   2  -9    9.10   29.90
  12   2   9   48.40   31.30
 -12  -3   9   36.20   41.60
 -12  -3   9  115.29   41.80
  12  -3  -9  102.39   33.40
  12   3  -9    0.50   25.00
  11  -3  -9  130.09   34.00
 -11  -3   9  122.19   32.10
 -11  -3   9  126.99   44.90
  11   3  -9  138.09   32.90
  11   3  -9   62.39   20.50
  10  -3  -9   72.49   26.70
 -10  -3   9  -19.20   28.60
 -10  -3   9   29.50   33.40
  10   3  -9   56.79   26.00
   9  -3  -9  136.79   29.00
  -9  -3   9  156.18   41.30
  -9  -3   9  147.29   32.70
   9   3  -9  145.79   36.90
  -8  -3   9   57.99   35.30
   8  -3  -9   82.19   24.90
  -8  -3   9   51.69   25.10
   8   3  -9   41.00   28.20
   8   3  -9   46.30   22.70
  -7  -3   9  227.98   35.70
   7  -3  -9  320.67   38.90
  -7  -3   9  227.38   41.90
   7   3  -9  213.48   34.70
   7   3  -9  241.38   39.70
  -6  -3   9  136.49   34.10
  -6  -3   9   56.29   23.50
   6  -3  -9  119.29   24.40
   6   3  -9   95.89   26.90
  -5  -3   9  278.97   41.90
   5  -3  -9  283.17   35.20
   5   3  -9  230.18   36.40
  -4  -3   9  116.19   31.60
   4  -3  -9  142.69   24.20
   4   3  -9  151.38   30.10
  -4   3   9  134.29   25.80
   4   3  -9  120.09   27.30
   4   3  -9  122.89   19.20
   3  -3  -9  199.28   28.70
  -3  -3   9  214.78   30.20
  -3  -3   9  321.27   38.00
   3   3  -9  207.18   25.80
  -3   3   9  267.27   31.00
   3   3  -9  246.38   34.70
  -2  -3   9  114.09   43.00
  -2  -3   9   86.99   20.80
   2  -3  -9   68.69   20.80
  -2  -3   9   77.29   22.70
  -2   3   9   43.80   13.60
  -2   3   9   74.49   17.70
   2   3  -9   79.79   24.00
   2   3  -9   38.00   16.00
  -1  -3   9  289.57   38.40
   1  -3  -9  371.86   36.10
  -1  -3   9  369.96   42.40
  -1  -3   9  309.67   40.40
  -1   3   9  273.37   33.80
   1   3  -9  343.17   36.40
   1   3  -9  414.06   43.30
   0  -3  -9   45.30   12.00
   0  -3   9   70.89   19.80
   0  -3   9   68.09   20.60
   0  -3   9   49.00   20.20
   0  -3  -9   30.60   14.70
   0  -3  -9   36.80   15.30
   0   3   9   56.09   18.80
   0   3  -9   31.10   20.10
  -1  -3  -9  225.98   24.40
   1  -3   9  211.08   30.70
   1  -3   9  191.28   26.00
  -1  -3  -9  140.09   36.20
  -1  -3  -9  152.08   23.40
  -1  -3  -9  191.38   24.20
  -1   3  -9  188.88   28.70
   1   3   9  154.08   25.70
   2  -3   9   88.89   17.90
  -2  -3  -9  -16.80   27.40
  -2  -3  -9   29.20   16.90
  -2  -3  -9    0.10   14.90
  -2  -3  -9   42.00   14.90
   2  -3   9   47.50   21.40
  -2   3  -9   25.80   19.80
  -2   3  -9   26.50   20.50
   2   3   9   52.69   19.30
  -3  -3  -9   24.90   16.70
  -3  -3  -9  122.39   34.40
   3  -3   9   67.39   15.30
  -3  -3  -9   55.89   17.60
   3  -3   9   47.70   22.10
  -3   3  -9   52.39   18.50
  -3   3  -9   38.50   22.20
   3   3   9  110.29   22.20
  -4  -3  -9   85.99   18.90
   4  -3   9   83.09   14.40
  -4  -3  -9   61.59   19.80
   4  -3   9   88.69   15.30
  -4  -3  -9  110.69   33.60
   4   3   9  114.69   23.50
  -4   3  -9   83.79   25.50
   5  -3   9  121.09   16.20
  -5  -3  -9  135.39   22.40
  -5  -3  -9  112.69   33.40
   5  -3   9  149.09   18.20
  -5  -3  -9  212.78   43.70
  -5   3  -9  137.69   29.50
   5   3   9  125.89   27.60
  -6  -3  -9  124.49   21.80
  -6  -3  -9   75.79   17.70
  -6  -3  -9   93.49   32.70
  -6  -3  -9   83.19   38.10
  -6   3  -9  117.09   29.80
  -6   3  -9  133.09   28.70
   6   3   9   85.49   29.10
  -7  -3  -9  151.88   50.49
  -7  -3  -9   94.99   19.70
  -7  -3  -9  167.78   35.40
  -7  -3  -9  162.58   42.30
  -7   3  -9  164.88   32.00
  -7   3  -9  156.98   36.70
   7   3   9  122.89   30.40
  -8  -3  -9    8.20   32.20
  -8   3  -9    6.10   26.30
  -8   3  -9   39.10   33.80
   8   3   9   -6.80   25.80
  -9  -3  -9  112.89   40.10
  -9  -3  -9  101.19   42.70
   9   3   9   22.70   28.60
  -9   3  -9   31.60   32.20
  -9   3  -9  107.49   31.40
 -10  -3  -9   39.40   42.50
 -10  -3  -9   34.40   36.90
  10   3   9   57.49   31.20
 -10   3  -9   47.20   34.20
 -10   3  -9  -32.30   34.80
 -11  -3  -9  -12.70   41.10
 -11   3  -9  -49.90   26.70
 -11   3  -9  -38.50   31.90
  -9  -4   9   53.79   52.79
  -9  -4   9   98.59   45.50
   9  -4  -9   59.29   27.40
   9   4  -9   76.29   30.70
  -8  -4   9   77.99   30.60
  -8  -4   9  136.49   43.40
   8   4  -9   91.39   36.40
   8   4  -9   90.49   30.90
  -7  -4   9   88.89   39.70
  -7  -4   9   52.49   28.70
   7  -4  -9   81.89   26.20
   7   4  -9   23.60   27.20
   7   4  -9   49.70   31.20
  -6  -4   9  137.19   41.00
  -6  -4   9   78.99   29.60
   6  -4  -9  158.88   29.10
   6   4  -9  149.79   34.50
   6   4  -9  111.39   31.40
  -5  -4   9   44.20   35.60
   5  -4  -9   21.80   21.40
   5   4  -9  -10.80   23.60
   5   4  -9   28.80   26.80
   4  -4  -9  171.28   28.30
  -4  -4   9  111.89   37.50
   4   4  -9  206.78   34.70
   3  -4  -9   66.89   21.40
  -3  -4   9   85.99   31.90
   3   4  -9   99.09   28.40
  -2  -4   9   63.49   30.70
   2  -4  -9   47.50   19.90
   2   4  -9   46.00   25.00
  -2   4   9   71.29   17.10
  -1  -4   9  315.37   41.30
   1  -4  -9  251.77   31.10
   1   4  -9  254.47   38.20
  -1   4   9  201.88   30.20
   0  -4   9  104.49   29.60
   0   4  -9   88.59   19.70
   0   4  -9   56.89   17.50
   0   4  -9   97.39   27.60
   0   4   9   84.49   22.40
  -1  -4  -9   60.09   49.80
   1  -4   9   54.69   25.00
   1   4   9   65.49   22.20
  -1   4  -9   36.60   18.40
  -1   4  -9   98.59   25.50
  -2  -4  -9  126.29   49.00
   2  -4   9  169.88   36.30
  -2  -4  -9  156.08   23.20
  -2  -4  -9  140.49   24.10
   2   4   9  164.08   30.50
  -2   4  -9  152.28   26.70
  -2   4  -9  167.68   30.40
  -3  -4  -9   30.70   41.30
  -3  -4  -9   -6.20   18.00
   3  -4   9   37.20   22.90
   3   4   9   22.70   24.00
  -3   4  -9   22.00   22.60
  -4  -4  -9  132.59   25.60
   4  -4   9  120.79   24.80
  -4  -4  -9  109.19   41.70
   4  -4   9  123.29   23.50
   4   4   9   90.19   29.60
  -4   4  -9   93.39   27.20
  -5  -4  -9    9.00   44.40
   5  -4   9  -40.10   19.30
   5  -4   9   29.30   17.20
  -5  -4  -9  -15.00   32.40
   5   4   9   25.40   24.00
  -5   4  -9   37.20   24.60
   6  -4   9   18.30   15.30
  -6  -4  -9   -6.50   35.00
  -6  -4  -9   74.89   48.20
  -6   4  -9   44.50   26.10
   6   4   9   42.00   31.20
  -7  -4  -9  -29.00   34.90
  -7  -4  -9    5.00   40.90
  -7   4  -9  -28.00   24.20
   7   4   9   14.80   28.40
  -8  -4  -9   12.30   44.60
  -8  -4  -9  -38.30   42.20
   8   4   9   68.79   32.70
  -8   4  -9   25.70   27.10
   3  -5  -9  -21.80   46.30
  -3  -5   9   53.19   40.10
   3   5  -9   62.09   32.40
   2  -5  -9   59.49   45.00
   2   5  -9   14.30   26.30
   2   5  -9   39.50   30.40
  -2   5   9   28.50   15.60
   1  -5  -9  165.08   50.39
  -1  -5   9   82.79   38.00
  -1   5   9   70.39   22.70
   1   5  -9   98.79   31.30
   1   5  -9  140.99   31.60
   0  -5  -9   70.89   48.00
   0  -5   9  108.89   37.80
   0   5  -9   71.19   27.40
   0   5   9   70.79   24.90
  -1  -5  -9  164.78   58.59
   1  -5   9  178.68   38.10
   1   5   9  157.68   29.70
  -1   5  -9  122.69   29.80
  15   0 -10   41.10   16.60
 -15   0  10  -23.50   34.00
 -15   0  10   61.59   27.70
  15   0 -10   24.40   22.40
  14   0 -10  116.89   20.70
  14   0 -10   79.79   24.80
 -14   0  10  109.69   31.10
 -14   0  10  129.39   41.90
  13   0 -10   25.40   15.10
  13   0 -10   30.70   21.40
 -13   0  10   20.60   22.60
 -13   0  10    9.90   33.30
 -12   0  10  633.44   71.19
 -12   0  10  487.45   55.09
  12   0 -10  484.85   48.40
  12   0 -10  594.84   56.89
 -11   0  10   54.89   20.90
  11   0 -10   20.40   14.00
 -11   0  10   37.40   30.80
  11   0 -10   34.30   21.50
 -10   0  10  441.96   64.79
  10   0 -10  548.65   55.29
 -10   0  10  474.55   52.29
  10   0 -10  609.44   49.40
  10   0 -10  592.34   54.89
  -9   0  10   45.50   27.60
   9   0 -10   14.70   15.70
  -9   0  10    8.20   12.10
   9   0 -10   54.29   17.30
   9   0 -10   22.20   13.20
   9   0 -10   52.89   20.60
  -9   0  10   -3.30   15.20
  -8   0  10 1439.76  127.29
   8   0 -10 1627.64  128.49
   8   0 -10 1538.65  124.59
  -8   0  10 1534.85  125.89
   8   0 -10 1647.34  127.39
  -8   0  10 1523.35  133.99
   8   0 -10 1639.34  128.49
  -8   0  10 1637.24  129.89
  -7   0  10  120.29   27.80
  -7   0  10   92.09   17.80
   7   0 -10  152.88   27.60
  -7   0  10  103.59   22.80
   7   0 -10  122.19   23.80
   7   0 -10  127.09   22.20
  -7   0  10   92.79   17.30
   7   0 -10  116.79   19.80
  -6   0  10 3588.54  272.57
  -6   0  10 3644.04  279.07
   6   0 -10 3600.14  275.27
   6   0 -10 3587.04  273.47
   6   0 -10 3513.45  275.47
  -6   0  10 3372.66  274.77
   6   0 -10 3458.15  278.47
  -6   0  10 3412.96  274.77
  -5   0  10  152.48   18.60
  -5   0  10  129.59   26.60
   5   0 -10  237.08   28.40
   5   0 -10  208.48   30.20
   5   0 -10  149.69   21.80
  -5   0  10  131.59   20.80
   5   0 -10  174.88   20.40
  -5   0  10  196.38   24.40
   4   0 -10 2950.30  234.68
   4   0 -10 2965.80  236.98
  -4   0  10 3077.49  234.68
  -4   0  10 2939.41  234.38
  -4   0  10 3113.79  236.78
   4   0 -10 2966.70  234.68
  -3   0  10  136.19   20.00
   3   0 -10  114.49   21.50
  -3   0  10  162.68   22.10
   3   0 -10  147.49   20.90
   3   0 -10  108.59   19.50
  -2   0  10 2995.60  256.07
   2   0 -10 3390.46  256.47
   2   0 -10 3323.27  259.17
   2   0 -10 3468.85  256.77
   1   0 -10  151.78   22.40
   1   0 -10  120.49   19.50
  -1   0  10  119.09   19.70
   1   0 -10  137.89   20.80
   0   0 -10 1106.49   89.09
   0   0 -10 1167.28   89.69
   0   0 -10 1042.10   87.69
   0   0  10 1042.00   88.29
  -1   0 -10  155.18   20.50
  -1   0 -10  203.08   22.50
  -1   0 -10  174.88   23.30
  -2   0 -10 2347.36  183.08
  -2   0 -10 2329.97  185.48
  -2   0 -10 2404.46  186.68
  -2   0 -10 2358.46  185.28
  -3   0 -10  106.29   19.70
  -3   0 -10  117.89   14.90
  -3   0 -10   76.79   17.90
  -4   0 -10 2225.68  171.98
  -4   0 -10 2186.68  171.78
  -4   0 -10 2058.49  167.58
   4   0  10 2133.89  170.28
  -4   0 -10 2170.58  171.98
  -5   0 -10  170.78   26.20
  -5   0 -10  103.99   19.80
   5   0  10  146.39   23.60
  -5   0 -10  126.99   18.80
  -5   0 -10  117.79   24.30
  -6   0 -10 2008.60  146.69
  -6   0 -10 1596.64  139.69
   7   0  10    3.90   18.80
  -7   0 -10   -4.90   22.50
  -7   0 -10    9.10   15.70
  -8   0 -10  444.16   48.70
  -8   0 -10  537.85   58.49
  -9   0 -10   26.80   27.10
  -9   0 -10   33.30   21.90
 -10   0 -10  268.07   48.20
 -10   0 -10  241.48   43.70
 -11   0 -10   10.70   23.80
 -11   0 -10   25.60   32.60
 -12   0 -10  117.39   37.30
 -12   0 -10  149.49   34.30
 -13   0 -10   32.10   28.60
 -13   0 -10  -23.80   33.70
  15  -1 -10   36.60   23.80
 -15  -1  10   54.59   28.50
 -15  -1  10   39.10   42.10
  15   1 -10   14.30   19.30
  15   1 -10   52.79   24.00
 -15   1  10   20.50   24.40
  14  -1 -10  -14.50   20.50
 -14  -1  10   24.20   26.30
 -14  -1  10   71.49   38.70
  14   1 -10   10.60   18.90
 -14   1  10   12.10   21.80
  14   1 -10   -4.70   20.00
  13  -1 -10  180.48   32.00
 -13  -1  10  176.88   33.60
 -13  -1  10  187.28   45.30
  13   1 -10  125.29   25.50
  13   1 -10  193.58   31.50
 -13   1  10  200.98   33.40
  12  -1 -10  -16.40   21.80
 -12  -1  10   38.50   23.10
 -12  -1  10   63.79   44.70
  12   1 -10    5.60   21.00
  12   1 -10    2.90   15.70
 -12   1  10   -3.20   19.90
  11  -1 -10  544.55   58.29
 -11  -1  10  685.13   72.79
 -11  -1  10  613.94   58.59
  11   1 -10  513.05   54.09
  11   1 -10  579.04   57.09
 -11   1  10  514.25   56.79
  11   1 -10  614.44   61.99
  10  -1 -10   64.49   19.70
 -10  -1  10   38.50   20.00
 -10  -1  10   21.70   29.40
  10   1 -10   13.00   15.70
  10   1 -10   27.10   18.40
 -10   1  10   37.10   20.70
 -10   1  10   16.60   12.70
  10   1 -10   43.30   19.10
  -9  -1  10  778.12   65.39
   9  -1 -10  693.13   65.29
   9  -1 -10  713.63   67.19
  -9  -1  10  772.62   75.49
  -9   1  10  679.03   66.89
   9   1 -10  695.03   63.69
   9   1 -10  759.42   65.69
   9   1 -10  741.13   68.99
  -9   1  10  697.83   65.19
   8  -1 -10   66.39   17.70
  -8  -1  10   80.29   28.50
  -8  -1  10   80.39   19.20
   8  -1 -10   39.70   16.40
  -8  -1  10   38.80   15.40
   8  -1 -10   63.19   16.30
   8   1 -10   82.39   22.10
   8   1 -10   26.50   16.30
  -8   1  10   37.20   13.30
  -7  -1  10  994.80   94.89
  -7  -1  10 1115.79   91.79
   7  -1 -10 1252.57   93.19
  -7  -1  10 1169.08  100.69
   7  -1 -10 1173.78   93.39
  -7  -1  10 1089.79   93.69
   7  -1 -10 1168.08   95.49
   7  -1 -10 1134.39  101.89
  -7   1  10 1101.39   93.19
   7   1 -10 1205.68  100.99
  -7   1  10 1042.30   92.09
  -7   1  10 1059.99   94.39
   7   1 -10 1204.28   97.09
   7   1 -10 1137.49   93.89
   6  -1 -10  117.89   27.10
  -6  -1  10  120.89   26.00
  -6  -1  10  136.39   21.10
  -6  -1  10  116.39   23.60
  -6  -1  10  114.59   17.10
   6  -1 -10  115.59   19.30
   6  -1 -10  128.39   18.80
   6  -1 -10   92.69   21.50
  -6   1  10  102.69   18.30
   6   1 -10   93.39   25.80
  -6   1  10   89.39   20.30
  -6   1  10  118.09   19.40
   6   1 -10   82.49   21.10
  -5  -1  10 1370.56  117.29
  -5  -1  10 1393.26  118.99
  -5  -1  10 1563.14  121.79
   5  -1 -10 1455.25  116.79
   5  -1 -10 1482.15  118.79
   5  -1 -10 1483.35  116.59
   5  -1 -10 1548.55  122.79
  -5   1  10 1458.35  118.59
   5   1 -10 1557.84  120.39
  -5   1  10 1431.36  116.59
   5   1 -10 1335.07  120.99
   5   1 -10 1495.15  118.09
  -4  -1  10   26.60   14.00
   4  -1 -10   39.00   11.60
   4  -1 -10   48.20   18.10
  -4  -1  10   23.60   17.00
   4  -1 -10   34.80   10.80
   4   1 -10   26.10   14.10
  -4   1  10   35.50   15.70
  -4   1  10   17.50   10.70
   4   1 -10   -6.80   16.90
   4   1 -10   29.90   17.90
   3  -1 -10 2629.14  208.78
   3  -1 -10 2722.83  211.48
  -3  -1  10 2735.03  209.68
  -3  -1  10 2661.63  209.48
   3  -1 -10 2640.04  206.78
   3  -1 -10 2795.22  207.78
   3  -1 -10 2512.85  206.48
   3   1 -10 2766.82  208.58
   3   1 -10 2439.46  209.38
  -3   1  10 2689.83  208.68
   3   1 -10 2702.43  209.98
  -3   1  10 2671.53  207.48
   2  -1 -10  217.38   23.80
   2  -1 -10  203.38   21.70
  -2  -1  10  165.78   23.10
  -2  -1  10  183.28   26.10
   2  -1 -10  184.38   21.10
   2  -1 -10  186.48   23.50
  -2   1  10  163.38   22.40
   2   1 -10  167.28   23.50
   2   1 -10  188.78   25.00
  -2   1  10  157.88   20.70
   2   1 -10  261.17   27.50
   1  -1 -10 3159.08  247.78
  -1  -1  10 3103.39  247.68
  -1  -1  10 3151.78  249.88
   1  -1 -10 3353.06  248.68
   1  -1 -10 3233.98  248.98
   1   1 -10 3189.88  250.07
   1   1 -10 3382.26  249.28
   1   1 -10 3006.70  247.68
   0  -1 -10  252.37   28.60
   0  -1 -10  276.07   26.70
   0  -1  10  165.78   24.80
   0  -1 -10  264.97   28.10
   0   1 -10  255.57   31.20
   0   1 -10  239.58   23.10
  -1  -1 -10 2860.41  228.28
  -1  -1 -10 2873.11  227.68
   1  -1  10 2970.00  226.28
   1  -1  10 2757.82  228.68
  -1  -1 -10 3003.20  228.38
  -1   1 -10 2942.31  225.88
  -1   1 -10 3030.40  229.78
  -2  -1 -10   44.10   17.00
   2  -1  10   63.09   14.30
  -2  -1 -10   37.50   15.60
  -2  -1 -10   59.29   17.40
  -2  -1 -10   42.30   13.50
  -2   1 -10   58.79   13.60
  -3  -1 -10 1495.85  124.49
  -3  -1 -10 1478.25  125.69
   3  -1  10 1693.73  124.89
  -3  -1 -10 1557.84  126.59
  -3  -1 -10 1508.55  125.29
  -3   1 -10 1422.46  126.39
  -3   1 -10 1588.64  124.59
   3   1  10 1669.13  125.59
  -4  -1 -10   52.29   16.70
   4  -1  10   62.99   18.30
  -4  -1 -10   29.40   20.10
  -4  -1 -10   59.69   16.10
  -4   1 -10   61.59   17.00
  -4   1 -10   80.19   18.80
   4   1  10   28.50   16.50
  -4   1 -10   32.90   17.90
  -5  -1 -10  832.92   76.89
  -5  -1 -10  823.02   75.69
   5  -1  10 1032.30   78.89
  -5  -1 -10  863.71   79.69
  -5   1 -10  867.31   82.09
  -5   1 -10  839.92   78.39
   5   1  10 1002.00   77.69
  -5   1 -10  844.92   75.79
   6  -1  10  -20.50   18.60
  -6  -1 -10   15.80   18.20
  -6  -1 -10   25.20   24.00
   6   1  10   36.60   19.20
  -6   1 -10   51.29   22.70
  -6   1 -10   27.00   20.70
  -7  -1 -10  714.23   67.39
  -7  -1 -10  719.73   72.19
   7   1  10  613.24   65.09
  -7   1 -10  759.92   71.19
  -7   1 -10  712.83   68.09
  -8  -1 -10   83.39   34.10
  -8  -1 -10  114.29   27.10
   8   1  10   87.59   26.10
  -8   1 -10  139.69   32.50
  -8   1 -10   96.69   28.20
  -9  -1 -10  373.26   48.20
  -9  -1 -10  439.26   54.09
  -9   1 -10  303.37   49.40
   9   1  10  313.67   42.40
  -9   1 -10  388.76   47.40
 -10  -1 -10   29.50   25.50
 -10  -1 -10   -4.40   28.60
 -10   1 -10   17.50   27.60
  10   1  10  -14.60   30.10
 -10   1 -10  -15.30   30.20
 -11  -1 -10  153.38   34.30
 -11  -1 -10  128.39   38.30
 -11   1 -10  160.18   41.70
 -11   1 -10  129.59   34.20
  11   1  10  111.59   32.90
 -12  -1 -10  -10.80   31.90
 -12  -1 -10   24.70   30.20
 -12   1 -10  -10.90   27.50
 -12   1 -10   -2.80   34.60
  12   1  10    7.30   25.80
 -13  -1 -10   79.49   40.00
 -13  -1 -10   58.69   40.20
 -13   1 -10   39.90   36.30
 -13   1 -10   98.79   36.00
  14  -2 -10   98.09   33.00
 -14  -2  10   71.59   42.90
 -14  -2  10   63.29   28.40
  14   2 -10   90.39   29.80
 -14   2  10   94.29   29.00
  14   2 -10  115.29   27.80
 -13  -2  10   -7.10   37.70
  13  -2 -10    9.60   21.30
 -13  -2  10   -2.70   25.80
  13   2 -10  -11.10   20.80
 -13   2  10   14.40   22.70
  13   2 -10   23.60   22.00
  12  -2 -10  240.58   36.70
 -12  -2  10  224.48   50.39
 -12  -2  10  292.17   38.70
 -12   2  10  154.48   32.00
  12   2 -10  246.88   33.30
  12   2 -10  184.98   34.30
 -12   2  10  261.77   37.40
  11  -2 -10   23.80   24.60
 -11  -2  10   31.10   54.79
 -11  -2  10   41.20   26.60
  11   2 -10  -19.50   18.00
  11   2 -10    1.10   19.70
  11   2 -10    1.00   25.20
 -11   2  10   -5.60   19.60
 -10  -2  10  333.37   51.29
  10  -2 -10  326.27   41.90
 -10  -2  10  369.66   45.70
  10   2 -10  402.46   49.60
  10   2 -10  295.27   39.20
 -10   2  10  313.57   34.60
  10   2 -10  324.27   38.10
 -10   2  10  325.57   41.50
  -9  -2  10    5.30   16.00
  -9  -2  10   15.70   28.50
   9  -2 -10   28.10   18.60
  -9  -2  10   14.20   22.50
  -9   2  10   23.30   20.90
   9   2 -10   -8.10   15.30
   9   2 -10    0.20   20.00
   9   2 -10   10.00   17.50
   8  -2 -10  803.52   69.69
  -8  -2  10  740.23   65.79
  -8  -2  10  644.44   69.09
  -8  -2  10  803.22   77.99
   8   2 -10  737.83   68.49
   8   2 -10  763.82   65.59
  -8   2  10  751.72   62.69
   8   2 -10  754.72   72.49
   7  -2 -10    5.30   14.40
   7  -2 -10   13.70   17.20
  -7  -2  10   40.30   20.10
  -7  -2  10   23.40   25.90
   7   2 -10    9.90   18.80
  -7   2  10   43.20   21.70
  -6  -2  10 1211.38  104.69
  -6  -2  10 1173.38   97.49
   6  -2 -10 1146.99  101.89
   6  -2 -10 1213.28   99.39
  -6   2  10 1196.98   94.09
   6   2 -10 1180.88  104.39
   6   2 -10 1153.38   96.69
   6   2 -10 1171.48  101.89
   5  -2 -10   47.10   11.00
   5  -2 -10   58.39   19.00
   5  -2 -10   47.00   15.50
  -5  -2  10   44.20   16.50
  -5  -2  10   69.69   22.90
   5   2 -10   81.39   22.30
   5   2 -10   46.30   21.10
   5   2 -10   40.00   17.20
  -5   2  10   44.90   10.90
  -5   2  10   51.69   17.90
   4  -2 -10  940.01   87.79
   4  -2 -10 1064.69   93.29
  -4  -2  10 1021.20   86.19
  -4  -2  10 1065.99   91.99
   4  -2 -10 1114.89   89.49
   4  -2 -10 1084.19   84.59
   4   2 -10 1178.18   92.09
   4   2 -10 1027.70   91.49
   4   2 -10 1088.79   87.79
   3  -2 -10   -1.30    9.60
   3  -2 -10   -6.40   14.40
  -3  -2  10  -13.70   15.60
  -3  -2  10   -8.10   11.00
   3  -2 -10    6.20   12.10
   3  -2 -10    8.20    8.70
  -3  -2  10   13.30   16.90
  -3   2  10    3.40   13.20
   3   2 -10   21.40   16.80
   3   2 -10    2.30   14.90
   3   2 -10   -9.50   13.70
   2  -2 -10 1314.97  111.79
   2  -2 -10 1351.66  108.79
  -2  -2  10 1450.05  112.59
   2  -2 -10 1231.78  108.79
  -2  -2  10 1353.16  118.59
  -2  -2  10 1445.16  109.29
   2  -2 -10 1455.55  112.19
   2   2 -10 1329.57  111.39
   2   2 -10 1375.86  114.29
   2   2 -10 1475.75  111.39
  -2   2  10 1396.36  111.49
   1  -2 -10   53.59   16.80
   1  -2 -10   48.30   12.70
  -1  -2  10   49.40   15.20
   1  -2 -10   50.89   14.40
  -1  -2  10   61.59   29.40
  -1  -2  10   57.29   14.70
   1   2 -10   68.79   20.20
   1   2 -10   78.59   16.60
   1   2 -10   74.79   18.00
   0  -2  10 1579.54  126.29
   0  -2  10 1651.63  126.99
   0  -2 -10 1556.04  127.79
   0  -2 -10 1558.54  127.09
   0  -2 -10 1604.84  127.09
   0  -2  10 1632.84  132.69
   0   2 -10 1568.94  130.49
   0   2  10 1652.33  127.49
   1  -2  10   99.59   18.30
   1  -2  10   80.19   38.50
   1  -2  10   93.49   13.50
  -1  -2 -10  140.09   20.50
  -1  -2 -10  128.19   18.70
  -1  -2 -10  171.28   21.10
   1   2  10   92.89   19.20
  -1   2 -10  114.29   23.30
  -2  -2 -10 1409.06  112.09
   2  -2  10 1373.16  112.19
  -2  -2 -10 1404.26  111.89
  -2  -2 -10 1508.85  118.49
  -2  -2 -10 1411.76  112.69
   2   2  10 1245.38  112.29
  -2   2 -10 1342.77  114.59
  -3  -2 -10  168.88   30.80
  -3  -2 -10  188.68   25.40
  -3  -2 -10  233.08   27.30
   3  -2  10  233.18   28.60
  -3   2 -10  187.68   29.80
   3   2  10  241.18   30.50
  -3   2 -10  182.78   26.80
  -4  -2 -10  564.24   55.79
  -4  -2 -10  577.54   57.99
   4  -2  10  569.34   55.09
  -4   2 -10  657.23   57.79
  -4   2 -10  577.54   54.99
   4   2  10  437.16   52.99
   5  -2  10  -22.00   19.90
  -5  -2 -10   26.60   24.60
  -5  -2 -10  -18.50   22.30
  -5   2 -10   13.80   20.90
   5   2  10  -17.50   18.70
  -5   2 -10   10.80   19.50
  -6  -2 -10  472.15   57.19
  -6  -2 -10  538.55   58.39
   6   2  10  460.95   51.59
  -6   2 -10  405.46   53.59
  -6   2 -10  555.94   55.69
  -7  -2 -10    1.10   26.00
  -7  -2 -10  -46.30   13.60
  -7  -2 -10   13.70   26.40
   7   2  10   -3.10   23.70
  -7   2 -10  -12.50   22.80
  -7   2 -10  -10.30   22.10
  -8  -2 -10  217.28   43.80
  -8  -2 -10  259.47   44.40
   8   2  10  229.08   36.00
  -8   2 -10  227.28   37.70
  -8   2 -10  248.18   44.00
  -9  -2 -10   49.10   30.50
  -9  -2 -10   25.50   58.49
  -9   2 -10   77.09   33.20
   9   2  10    8.20   24.60
  -9   2 -10  -11.00   24.80
 -10  -2 -10  130.39   37.20
 -10  -2 -10   86.29   38.10
  10   2  10  121.89   31.80
 -10   2 -10   89.79   41.30
 -10   2 -10  109.29   39.00
 -11  -2 -10   49.30   59.39
 -11  -2 -10  -26.30   35.30
 -11   2 -10   39.90   34.30
 -11   2 -10    3.90   26.90
  11   2  10   15.20   29.10
 -12  -2 -10   43.50   34.80
 -12  -2 -10   64.29   39.20
  12   2  10  -34.30   28.40
 -12   2 -10   58.79   29.50
 -12   2 -10   39.50   39.40
  12  -3 -10   -5.20   26.40
 -12  -3  10  -28.90   36.20
 -12  -3  10  -37.00   49.99
  12   3 -10   -5.10   19.90
  12   3 -10    8.10   25.50
 -11  -3  10   90.79   33.90
 -11  -3  10  193.08   48.80
  11  -3 -10  255.97   42.50
  11   3 -10  171.88   25.90
  11   3 -10  210.48   36.10
 -10  -3  10   14.60   26.50
  10  -3 -10   11.90   26.90
 -10  -3  10  -44.90   34.70
  10   3 -10   35.20   25.20
  10   3 -10   -4.00   28.00
  10   3 -10  -12.50   16.30
   9  -3 -10  305.07   40.40
  -9  -3  10  204.48   35.20
  -9  -3  10  237.38   51.19
   9   3 -10  173.88   33.60
   9   3 -10  223.68   43.20
   8  -3 -10   30.90   22.70
  -8  -3  10   37.20   30.80
  -8  -3  10   18.70   25.50
   8   3 -10   79.09   31.50
   8   3 -10   58.59   16.30
   8   3 -10   -4.80   21.20
  -7  -3  10  511.15   64.39
  -7  -3  10  498.35   50.99
   7  -3 -10  441.96   49.30
   7   3 -10  413.76   53.79
   7   3 -10  443.46   49.70
   7   3 -10  366.66   40.60
  -6  -3  10   30.20   29.80
   6  -3 -10   46.90   22.70
  -6  -3  10   58.39   22.00
   6   3 -10   36.60   26.00
   6   3 -10   41.20   15.40
  -5  -3  10  483.05   60.09
   5  -3 -10  543.25   51.49
   5   3 -10  479.65   45.00
   5   3 -10  458.65   56.59
  -4  -3  10   76.09   27.40
  -4  -3  10   39.70   20.80
   4  -3 -10   49.20   20.20
   4   3 -10   81.49   24.90
   4   3 -10   58.69   16.70
  -4   3  10   87.89   20.40
   4   3 -10   82.39   24.50
   3  -3 -10  635.84   58.39
  -3  -3  10  613.74   58.59
  -3  -3  10  718.73   64.99
   3   3 -10  592.14   55.29
   3   3 -10  599.44   63.19
  -3   3  10  605.74   57.39
   2  -3 -10   25.90   17.20
  -2  -3  10   34.70   25.70
  -2  -3  10   34.20   18.80
   2   3 -10    6.10   16.40
   2   3 -10   37.40   22.30
   1  -3 -10  243.88   29.30
  -1  -3  10  303.57   38.40
  -1  -3  10  250.17   33.70
   1  -3 -10  360.06   48.10
   1   3 -10  272.67   31.90
  -1   3  10  273.47   31.00
   1   3 -10  263.37   36.20
   0  -3 -10   22.90   13.80
   0  -3  10    2.70   17.60
   0  -3  10   12.80   17.90
   0  -3 -10    1.30   13.70
   0  -3 -10   14.80   16.40
   0   3  10   -0.70   16.30
   0   3 -10   10.80   20.00
  -1  -3 -10  508.25   58.99
  -1  -3 -10  440.96   41.80
  -1  -3 -10  386.36   41.10
   1  -3  10  445.06   42.30
  -1  -3 -10  344.87   41.90
  -1   3 -10  492.65   50.69
   1   3  10  382.86   43.30
  -2  -3 -10   14.40   28.60
   2  -3  10   26.80   21.00
  -2  -3 -10   -7.90   16.50
  -2  -3 -10   19.20   17.30
   2  -3  10   36.20   14.20
  -2   3 -10   14.40   16.50
   2   3  10   34.00   19.00
  -2   3 -10    6.70   20.10
   3  -3  10  511.85   61.99
   3  -3  10  507.75   47.50
   3  -3  10  584.54   47.70
  -3  -3 -10  551.74   52.19
  -3  -3 -10  684.83   70.49
  -3   3 -10  640.54   59.49
   3   3  10  581.74   55.59
  -4  -3 -10   31.70   18.80
  -4  -3 -10   40.80   33.30
   4   3  10   64.49   25.30
  -4   3 -10   65.69   24.60
  -5  -3 -10  164.48   39.30
  -5  -3 -10  163.48   25.90
  -5  -3 -10  111.69   34.30
  -5   3 -10  217.38   33.00
   5   3  10  216.58   36.30
  -6  -3 -10    8.80   15.40
  -6  -3 -10   58.09   33.20
  -6  -3 -10   73.29   27.10
  -6  -3 -10   88.59   38.70
   6   3  10   66.39   25.20
  -6   3 -10   77.39   30.10
  -6   3 -10   78.09   28.30
  -7  -3 -10  241.48   49.40
  -7  -3 -10  219.28   28.80
  -7  -3 -10  109.89   38.80
  -7   3 -10  177.78   34.80
   7   3  10  158.38   35.70
  -7   3 -10  157.78   36.80
  -8  -3 -10   76.09   37.70
  -8  -3 -10   -3.40   36.50
  -8  -3 -10   82.29   23.80
  -8  -3 -10   19.50   17.90
   8   3  10   69.59   29.90
  -8   3 -10   90.79   30.50
  -9  -3 -10  110.19   47.10
  -9  -3 -10   77.49   38.80
   9   3  10   46.70   31.40
  -9   3 -10   37.70   34.30
  -9   3 -10   70.59   31.20
 -10  -3 -10   37.60   40.20
 -10  -3 -10    6.90   40.00
 -10   3 -10   25.10   36.70
  10   3  10    4.40   30.60
 -10   3 -10  -27.30   27.10
  -9  -4  10  109.89   44.60
  -9  -4  10   13.60   49.00
   9  -4 -10   76.99   29.90
   9   4 -10   81.09   35.60
   9   4 -10   77.59   32.90
  -8  -4  10   16.50   25.90
  -8  -4  10   77.69   43.10
   8  -4 -10    9.90   24.60
   8   4 -10    2.10   26.50
   8   4 -10   56.19   32.80
  -7  -4  10   31.30   36.50
  -7  -4  10   20.80   26.90
   7  -4 -10   18.50   23.30
   7   4 -10  -13.20   28.20
   7   4 -10    3.30   26.60
   6  -4 -10  100.79   27.70
  -6  -4  10   74.19   27.70
  -6  -4  10  120.59   37.80
   6   4 -10   65.69   30.80
   6   4 -10   92.69   40.60
   5  -4 -10   40.80   23.00
  -5  -4  10   37.30   33.00
   5   4 -10   35.60   25.80
   5   4 -10   16.50   27.40
  -4  -4  10  259.07   42.80
   4  -4 -10  204.18   32.30
   4   4 -10  172.18   36.60
   3  -4 -10   63.09   21.60
  -3  -4  10  -11.80   30.30
   3   4 -10   19.00   26.10
  -2  -4  10  314.67   40.50
   2  -4 -10  218.38   28.90
   2   4 -10  198.08   34.70
  -2   4  10  155.58   24.10
  -1  -4  10   54.29   28.40
  -1   4  10   43.30   17.40
   1   4 -10   93.59   28.50
   0  -4 -10  202.38   49.99
   0  -4  10  237.58   34.50
   0  -4 -10  182.28   25.60
   0   4 -10  160.38   25.70
   0   4 -10  215.18   36.10
   0   4  10  196.98   29.30
  -1  -4 -10  -10.40   36.90
   1  -4  10   25.00   25.20
   1   4  10   41.90   21.90
  -1   4 -10   37.30   21.60
  -1   4 -10   41.60   26.10
  -2  -4 -10  188.78   46.40
  -2  -4 -10  213.78   29.70
   2  -4  10  242.58   34.90
  -2  -4 -10  215.98   26.70
  -2   4 -10  223.88   35.20
   2   4  10  218.98   33.80
  -3  -4 -10    0.90   19.00
  -3  -4 -10    2.00   40.30
   3  -4  10   33.90   19.00
  -3  -4 -10    9.90   19.20
  -3   4 -10   12.80   23.40
   3   4  10   29.00   23.80
   4  -4  10  112.79   20.40
   4  -4  10   67.59   20.70
  -4  -4 -10  165.18   49.10
  -4   4 -10  118.69   28.50
   4   4  10  109.49   29.60
  -5  -4 -10   55.69   36.80
   5  -4  10    9.00   11.80
   5  -4  10  -13.90   15.30
  -5  -4 -10  -31.40   39.70
   5   4  10   26.50   28.00
  -5   4 -10   25.10   27.10
  -6  -4 -10   69.99   39.20
  -6  -4 -10  100.19   49.50
   6   4  10   84.89   33.80
  -6   4 -10   75.59   29.40
  -7  -4 -10   -0.40   44.50
  -7  -4 -10   71.59   44.00
  -7   4 -10  -33.70   25.70
   7   4  10   17.60   29.30
  15   0 -11   -1.00   19.80
  15   0 -11    7.50   15.80
 -15   0  11  -41.90   30.70
 -15   0  11   10.00   22.30
 -14   0  11   33.90   22.90
 -14   0  11   12.70   33.30
  14   0 -11   -9.60   19.70
  14   0 -11    2.40   14.30
  13   0 -11   23.20   19.90
 -13   0  11  -12.00   18.20
  13   0 -11  -31.70   12.50
 -13   0  11    4.60   31.30
  12   0 -11  -16.20   16.70
  12   0 -11    4.70   13.40
 -12   0  11   19.00   18.80
 -11   0  11   23.30   30.30
  11   0 -11    2.90   17.50
  11   0 -11   12.30   15.00
 -11   0  11   -6.70   17.40
  11   0 -11    8.60   13.20
  10   0 -11   -4.40   15.20
  10   0 -11  -16.70   19.30
  10   0 -11    3.20   22.80
  10   0 -11   -9.70   17.80
 -10   0  11   10.80   16.00
 -10   0  11  -30.90   24.90
   9   0 -11   34.10   20.10
   9   0 -11   23.70   14.50
   9   0 -11   16.00   12.10
  -9   0  11   -3.30   13.70
  -9   0  11  -13.10   23.20
   9   0 -11   -9.20   14.60
   8   0 -11   10.90   13.30
  -8   0  11  -10.80   13.10
   8   0 -11    4.00   15.70
   8   0 -11   -6.80   16.30
  -8   0  11  -27.80   10.40
  -8   0  11   -8.30   23.50
   7   0 -11   12.40   16.60
  -7   0  11    7.30   11.50
   7   0 -11    6.80   16.30
  -7   0  11  -17.10   20.40
   7   0 -11   38.00   23.30
  -7   0  11    7.40   17.40
  -7   0  11   -9.00   17.20
   7   0 -11    6.40   11.60
   6   0 -11    9.10   10.70
   6   0 -11    3.20   16.10
  -6   0  11   33.90   21.30
  -6   0  11  -15.50   15.30
   6   0 -11    2.50   22.70
  -6   0  11   -7.80    9.70
   6   0 -11   18.50   15.80
  -6   0  11   -6.40   12.10
  -5   0  11   25.00   14.40
   5   0 -11   -6.60   14.10
  -5   0  11    5.70   10.70
   5   0 -11   -5.60   16.60
  -5   0  11    5.70   17.50
   5   0 -11   -7.00   14.60
  -4   0  11   19.60   13.90
   4   0 -11    3.30   14.00
  -4   0  11    1.70   11.10
   4   0 -11   -7.00   15.20
   3   0 -11   15.80   14.00
  -3   0  11   10.70   10.90
   3   0 -11   -2.20   14.20
   3   0 -11   22.20   15.30
  -2   0  11    6.30   12.90
   2   0 -11   -7.30   13.80
   2   0 -11    6.30   13.00
   2   0 -11   -8.50   12.90
   1   0 -11   -3.10   13.10
  -1   0  11    0.30   13.40
   1   0 -11  -11.90   11.70
   1   0 -11    1.40   13.40
   0   0 -11   -2.90   15.30
   0   0  11   18.90   13.50
   0   0 -11  -13.70   10.50
   0   0 -11    6.40   14.00
  -1   0 -11   18.50   14.00
  -1   0 -11   -5.50   10.50
  -1   0 -11   -0.20   11.50
  -1   0 -11  -10.20    9.30
  -2   0 -11   -0.30   28.80
  -2   0 -11   -6.10   12.00
  -2   0 -11   -7.60   13.20
  -2   0 -11   -1.50   10.10
  -3   0 -11    5.50   16.50
  -3   0 -11   10.10   16.50
  -3   0 -11  -26.20   14.50
  -3   0 -11    8.80    9.80
  -4   0 -11   19.30   13.30
  -4   0 -11  -13.50   10.10
  -4   0 -11   17.60   18.90
  -4   0 -11   -5.60   17.20
  -5   0 -11   -3.60   12.10
   5   0  11    3.70   16.40
  -5   0 -11   -4.30   19.00
  -5   0 -11  -11.00   13.60
  -6   0 -11    2.00   19.60
  -6   0 -11   23.90   21.40
   6   0  11  -19.00   17.70
  -6   0 -11  -17.80   13.30
  -7   0 -11  -13.10   13.80
  -7   0 -11   -1.60   22.50
  -8   0 -11   -9.00   24.50
  -8   0 -11   21.20   17.50
  -9   0 -11   42.00   21.30
  -9   0 -11   -0.90   28.60
 -10   0 -11  -38.60   27.40
 -10   0 -11   54.39   44.40
 -11   0 -11   48.20   36.50
 -11   0 -11   79.69   27.50
 -12   0 -11   12.80   25.70
 -12   0 -11   35.20   36.20
 -13   0 -11   11.80   26.80
 -13   0 -11    5.50   35.60
  14  -1 -11   28.50   25.00
 -14  -1  11  -25.90   35.60
 -14  -1  11   47.60   25.30
  14   1 -11   15.10   23.10
 -14   1  11    0.80   21.50
  14   1 -11    7.30   17.00
 -13  -1  11    9.90   21.80
 -13  -1  11   17.70   37.30
  13  -1 -11   -9.60   19.70
  13   1 -11   -2.30   15.70
 -13   1  11   18.20   20.80
 -12  -1  11    7.70   20.60
 -12  -1  11   88.89   37.00
  12  -1 -11    1.10   19.10
 -12   1  11    8.00   18.20
  12   1 -11   43.10   18.10
  12   1 -11   18.50   20.00
 -11  -1  11   95.19   24.70
 -11  -1  11   69.59   33.60
  11  -1 -11   50.69   21.80
 -11   1  11   96.49   23.80
  11   1 -11   75.09   19.40
  11   1 -11   76.39   30.20
  11   1 -11   63.79   22.20
 -10  -1  11   47.50   30.80
  10  -1 -11   30.80   17.40
 -10  -1  11   41.50   20.10
  10  -1 -11   52.09   19.10
  10   1 -11   39.50   19.30
  10   1 -11   40.80   22.70
 -10   1  11   17.50   18.30
 -10   1  11   45.50   18.40
  10   1 -11   41.90   16.60
   9  -1 -11  165.08   29.30
  -9  -1  11  151.48   24.10
   9  -1 -11  118.29   22.90
   9  -1 -11  212.48   31.90
  -9  -1  11  111.89   34.30
  -9   1  11  143.09   23.00
  -9   1  11  172.68   28.30
   9   1 -11  175.18   27.60
   9   1 -11  101.59   21.80
   9   1 -11  158.18   27.50
   8  -1 -11  135.29   23.10
   8  -1 -11  117.59   21.20
  -8  -1  11   65.49   20.40
  -8  -1  11  123.29   32.00
  -8  -1  11  136.49   20.20
   8  -1 -11  108.59   24.70
  -8   1  11  109.69   19.20
  -8   1  11  145.39   25.40
   8   1 -11  100.79   22.50
   8   1 -11   74.89   23.90
   7  -1 -11  207.68   26.40
  -7  -1  11  175.58   34.50
  -7  -1  11  167.28   23.10
   7  -1 -11  217.88   32.70
  -7  -1  11  199.98   29.50
   7  -1 -11  255.17   28.60
   7   1 -11  253.97   38.10
  -7   1  11  246.48   29.10
  -7   1  11  184.28   27.70
   7   1 -11  222.18   31.60
   7   1 -11  256.17   30.80
  -6  -1  11   28.40   15.90
   6  -1 -11   37.10   14.80
  -6  -1  11   66.49   23.80
   6  -1 -11   76.09   22.70
  -6  -1  11   30.30   17.00
   6  -1 -11   63.29   19.10
   6  -1 -11   48.40   14.00
  -6   1  11   40.40   14.40
   6   1 -11   72.29   28.20
   6   1 -11   79.99   21.60
   6   1 -11   49.30   18.90
  -6   1  11   34.10   18.00
   5  -1 -11  121.79   21.30
   5  -1 -11  126.19   20.00
  -5  -1  11  104.09   19.30
  -5  -1  11  101.79   20.20
   5  -1 -11  112.79   17.30
  -5  -1  11  113.49   25.60
   5   1 -11  173.58   26.70
  -5   1  11  110.59   22.00
  -5   1  11  113.99   18.40
   5   1 -11  171.58   27.70
   4  -1 -11  141.99   19.20
   4  -1 -11   86.79   19.90
   4  -1 -11   99.09   23.00
   4  -1 -11   86.39   23.40
  -4  -1  11   38.00   14.50
  -4  -1  11   65.29   20.00
   4   1 -11   86.69   21.80
   4   1 -11   69.69   19.10
  -4   1  11   66.79   14.70
   4   1 -11   74.49   20.50
  -4   1  11   20.50   16.80
   3  -1 -11   86.79   20.20
   3  -1 -11   84.09   21.70
   3  -1 -11   64.19   14.60
   3  -1 -11  120.99   19.30
  -3  -1  11   85.59   19.70
  -3  -1  11   56.89   15.70
   3  -1 -11   81.39   13.50
  -3   1  11   84.79   14.80
   3   1 -11   59.09   18.90
   3   1 -11  102.79   19.00
   3   1 -11   87.39   19.70
  -3   1  11   90.79   18.20
   2  -1 -11  144.99   24.90
   2  -1 -11  190.78   21.30
   2  -1 -11  174.68   21.60
  -2  -1  11  218.78   27.40
   2  -1 -11  172.88   24.40
  -2  -1  11  180.18   23.50
   2  -1 -11  261.97   26.50
  -2   1  11  168.78   21.70
   2   1 -11  174.58   26.50
   2   1 -11  185.38   25.40
   1  -1 -11  182.68   22.50
   1  -1 -11  206.38   26.90
  -1  -1  11  182.88   27.00
   1  -1 -11  235.78   25.60
  -1  -1  11  146.79   20.70
   1   1 -11  161.98   22.10
   1   1 -11  245.48   28.90
   1   1 -11  250.37   31.40
   0  -1 -11   17.60   15.40
   0  -1  11   31.80   14.90
   0  -1 -11   14.30   12.30
   0  -1 -11   11.70   12.20
   0   1 -11   13.50    8.90
   0   1 -11   14.60   16.80
  -1  -1 -11  152.58   24.30
   1  -1  11   76.39   15.40
  -1  -1 -11  119.29   18.20
  -1  -1 -11  148.79   19.40
  -1  -1 -11  141.39   20.90
  -1   1 -11   97.09   14.60
  -1   1 -11  120.29   23.20
  -2  -1 -11   61.29   17.00
  -2  -1 -11   38.40   17.20
   2  -1  11   77.39   19.00
  -2  -1 -11   46.10   14.20
  -2  -1 -11   32.00   15.90
  -2   1 -11   65.39   13.60
  -2   1 -11   60.79   19.80
   3  -1  11   52.19   16.50
  -3  -1 -11   42.30   16.00
  -3  -1 -11   46.60   18.70
  -3  -1 -11   42.60   18.10
  -3  -1 -11   52.49   17.50
  -3   1 -11   33.80   15.10
  -3   1 -11   39.90   16.50
  -3   1 -11   70.39   20.90
  -4  -1 -11   12.20   16.70
  -4  -1 -11   12.70   18.80
   4  -1  11   15.10   15.50
  -4  -1 -11   11.40   31.90
  -4  -1 -11   25.00   15.50
  -4   1 -11    0.50   14.80
  -4   1 -11   57.99   18.60
  -4   1 -11   34.40   19.30
  -5  -1 -11  140.79   26.30
   5  -1  11  195.78   28.90
  -5  -1 -11  175.98   30.20
  -5   1 -11  122.29   27.00
   5   1  11  195.08   27.80
  -5   1 -11  198.78   44.10
   6  -1  11   44.70   21.30
  -6  -1 -11  -12.80   18.20
  -6  -1 -11   33.20   24.90
  -6   1 -11   38.50   22.50
  -6   1 -11   28.70   22.30
   6   1  11   22.60   20.20
  -7  -1 -11   61.59   29.00
  -7  -1 -11   37.10   21.70
  -7   1 -11   54.89   24.10
  -7   1 -11   73.39   26.10
   7   1  11   53.39   23.40
  -8  -1 -11   25.70   22.50
  -8  -1 -11   42.20   29.70
  -8   1 -11   36.00   26.00
   8   1  11   38.10   23.10
  -8   1 -11   44.80   25.20
  -9  -1 -11   -9.40   24.10
  -9  -1 -11   54.29   31.50
   9   1  11    4.60   24.00
  -9   1 -11   -1.90   23.80
  -9   1 -11   16.40   29.50
 -10  -1 -11   19.00   25.20
 -10   1 -11   56.69   31.40
  10   1  11   -0.70   25.20
 -10   1 -11   19.30   29.50
 -11  -1 -11    2.80   25.20
 -11  -1 -11   58.59   34.40
 -11   1 -11  -10.10   30.60
 -11   1 -11   25.70   32.40
 -12  -1 -11   43.20   29.90
 -12  -1 -11   59.99   39.00
 -12   1 -11   40.30   32.90
 -12   1 -11   29.30   32.50
 -13  -2  11   40.80   27.10
  13  -2 -11   16.60   25.10
 -13  -2  11   -1.00   39.60
  13   2 -11   44.00   23.00
 -13   2  11   39.50   27.00
  13   2 -11   31.40   21.80
 -12  -2  11   41.10   26.60
  12  -2 -11   11.60   19.40
 -12  -2  11  -16.10   35.80
  12   2 -11   24.20   21.40
 -12   2  11   24.90   25.30
  12   2 -11   66.89   23.30
 -11  -2  11  -11.90   22.20
 -11  -2  11   32.80   35.20
  11  -2 -11   -1.50   21.40
 -11   2  11   17.50   20.60
 -11   2  11  -15.60   16.80
  11   2 -11   46.90   22.90
  11   2 -11   28.90   21.90
  11   2 -11   30.40   27.70
 -10  -2  11   33.20   34.20
  10  -2 -11   32.10   20.90
 -10  -2  11   46.30   22.60
  10   2 -11   15.60   20.60
  10   2 -11    8.00   25.70
  10   2 -11   32.00   18.90
 -10   2  11   -1.70   18.60
 -10   2  11   27.00   14.30
  -9  -2  11  203.28   26.70
  -9  -2  11  142.99   30.40
  -9  -2  11  215.28   42.30
   9  -2 -11  158.98   29.80
   9   2 -11  170.78   26.90
  -9   2  11  169.08   22.90
   9   2 -11  197.68   32.80
   9   2 -11  187.38   28.90
  -8  -2  11  168.18   23.90
  -8  -2  11  173.88   37.00
   8  -2 -11  199.78   31.20
  -8  -2  11  153.38   28.10
   8   2 -11  147.49   24.60
  -8   2  11  136.59   20.90
   8   2 -11  165.98   32.30
  -7  -2  11  234.38   38.40
  -7  -2  11  229.88   31.30
   7  -2 -11  304.27   37.60
   7  -2 -11  202.98   31.00
  -7   2  11  227.38   26.40
   7   2 -11  266.07   31.10
   7   2 -11  249.58   36.90
  -6  -2  11  246.68   33.70
  -6  -2  11  321.17   41.80
   6  -2 -11  334.27   39.10
   6  -2 -11  274.17   35.30
   6  -2 -11  263.27   29.40
   6   2 -11  306.67   38.80
   6   2 -11  340.37   51.29
   6   2 -11  365.76   45.30
   5  -2 -11  299.17   29.20
   5  -2 -11  243.98   32.90
  -5  -2  11  267.47   32.30
  -5  -2  11  324.37   39.90
   5  -2 -11  335.87   35.80
  -5   2  11  352.86   37.10
  -5   2  11  251.67   27.80
   5   2 -11  293.67   35.00
   5   2 -11  293.77   37.80
   5   2 -11  323.47   53.09
   4  -2 -11  122.09   23.20
  -4  -2  11   81.79   16.20
   4  -2 -11  109.89   15.80
   4  -2 -11   79.09   19.40
  -4  -2  11  100.29   24.70
  -4   2  11  121.89   22.20
   4   2 -11   83.69   23.30
   4   2 -11  114.69   21.50
   4   2 -11   90.59   24.10
   3  -2 -11  139.79   24.10
   3  -2 -11  136.09   22.40
   3  -2 -11  119.69   17.50
  -3  -2  11  125.89   25.40
  -3  -2  11  132.99   24.30
   3  -2 -11  135.59   20.60
   3   2 -11   92.99   21.30
   3   2 -11  127.19   26.20
   3   2 -11  108.69   22.70
   2  -2 -11  132.09   16.90
   2  -2 -11   98.99   17.70
   2  -2 -11  126.49   21.90
  -2  -2  11   83.19   20.70
   2  -2 -11   98.29   20.10
  -2  -2  11  133.49   21.70
   2   2 -11  125.49   21.30
   2   2 -11  118.09   25.20
   2   2 -11  125.59   20.70
   1  -2 -11  118.69   17.80
  -1  -2  11  108.39   16.90
  -1  -2  11   95.19   18.70
   1  -2 -11  140.79   35.90
   1  -2 -11  107.49   18.80
  -1  -2  11   87.59   23.80
   1   2 -11   91.99   23.90
   1   2 -11  135.49   24.30
   1   2 -11  162.98   19.60
   0  -2 -11  384.76   38.20
   0  -2  11  373.96   35.00
   0  -2  11  386.76   38.70
   0  -2 -11  375.86   37.00
   0  -2  11  357.96   40.10
   0  -2 -11  355.16   43.20
   0   2 -11  379.26   43.80
   1  -2  11  263.37   36.80
  -1  -2 -11  297.27   36.80
  -1  -2 -11  348.37   35.10
   1  -2  11  326.97   35.00
  -1  -2 -11  393.86   36.80
  -1   2 -11  411.36   41.80
   1   2  11  272.27   35.20
  -2  -2 -11  244.58   32.10
   2  -2  11  321.27   32.20
  -2  -2 -11  255.67   37.60
  -2  -2 -11  215.18   28.50
  -2   2 -11  207.68   32.60
   2   2  11  224.98   30.30
   3  -2  11   33.00   17.80
  -3  -2 -11   64.09   21.00
  -3  -2 -11   20.20   20.40
  -3  -2 -11   40.70   16.20
  -3  -2 -11   70.49   24.60
  -3  -2 -11   43.50   19.60
   3   2  11    2.90   19.30
  -3   2 -11   65.69   22.80
  -3   2 -11   42.90   17.90
  -4  -2 -11   25.90   23.30
  -4  -2 -11   24.00   22.30
  -4  -2 -11    4.20   17.80
   4  -2  11   25.10   20.80
  -4   2 -11    0.10   17.50
   4   2  11   -8.20   19.10
  -4   2 -11   -5.90   20.60
  -5  -2 -11   34.50   26.40
   5  -2  11   27.00   21.30
  -5  -2 -11   51.89   26.20
  -5   2 -11   45.70   23.50
  -5   2 -11   42.50   23.90
   5   2  11   35.80   22.80
  -6  -2 -11   49.99   27.60
  -6  -2 -11   73.79   28.10
   6   2  11   45.20   25.40
  -6   2 -11   96.19   27.40
  -6   2 -11   45.80   25.30
  -7  -2 -11   85.19   31.60
  -7  -2 -11   79.39   31.20
  -7   2 -11   41.90   25.70
   7   2  11  111.19   28.70
  -7   2 -11   52.09   28.80
  -8  -2 -11   57.89   30.90
  -8  -2 -11   34.60   33.60
   8   2  11   55.59   28.90
  -8   2 -11   53.69   27.60
  -8   2 -11   55.69   28.20
  -9  -2 -11   55.89   32.20
  -9  -2 -11  126.99   39.50
   9   2  11   68.59   29.40
  -9   2 -11   41.00   27.60
  -9   2 -11   -5.00   28.80
 -10  -2 -11  -40.40   35.60
 -10  -2 -11  -17.80   30.70
 -10   2 -11  -23.20   30.10
 -10   2 -11    1.70   26.40
  10   2  11   -0.50   27.10
 -11  -2 -11   33.60   33.40
 -11  -2 -11  -34.80   37.00
  11   2  11  -23.80   26.50
 -11   2 -11   -7.80   32.80
 -11   2 -11   31.20   29.50
 -12  -3  11   25.80   31.50
 -12  -3  11   16.10   39.50
  12  -3 -11   15.70   27.60
  12   3 -11   -3.50   19.40
  12   3 -11  -57.49   21.40
 -11  -3  11   31.20   29.80
  11  -3 -11   39.60   29.50
 -11  -3  11   58.49   40.50
  11   3 -11   27.60   25.60
  11   3 -11   24.80   19.00
 -10  -3  11   36.40   26.70
  10  -3 -11   22.10   26.20
 -10  -3  11   67.89   38.00
  10   3 -11   31.20   32.50
  10   3 -11   15.80   22.80
  10   3 -11   41.10   18.90
  -9  -3  11   41.50   27.20
   9   3 -11   -6.90   22.80
   9   3 -11   60.19   18.50
   9   3 -11   18.20   29.30
  -8  -3  11  157.98   30.50
   8  -3 -11  115.29   26.60
  -8  -3  11  160.68   38.10
   8   3 -11   69.39   40.20
   8   3 -11   91.19   30.20
  -7  -3  11   88.39   24.80
  -7  -3  11  164.58   36.40
   7  -3 -11  120.99   28.30
   7   3 -11   59.59   17.70
   7   3 -11  112.89   30.40
   6  -3 -11   35.20   21.40
  -6  -3  11   43.80   31.20
  -6  -3  11   38.60   21.60
   6   3 -11   61.09   28.50
   6   3 -11   60.29   17.00
   5  -3 -11  192.48   27.80
  -5  -3  11  173.58   36.50
   5   3 -11  148.09   22.60
   5   3 -11  145.89   30.90
  -4  -3  11  232.08   38.30
  -4  -3  11  241.48   32.10
   4  -3 -11  280.97   33.50
   4   3 -11  234.48   29.30
   4   3 -11  219.08   36.80
   4   3 -11  240.38   36.10
  -3  -3  11  162.88   27.70
  -3  -3  11  200.88   32.10
   3  -3 -11  181.88   28.20
   3   3 -11  184.78   31.70
  -3   3  11  159.38   27.40
   3   3 -11  203.08   26.20
  -2  -3  11  173.98   31.40
   2  -3 -11  189.58   27.10
  -2  -3  11  175.98   27.10
   2   3 -11  145.59   25.70
   2   3 -11  179.18   32.10
  -1  -3  11  159.98   28.10
  -1  -3  11  213.58   29.40
   1  -3 -11  207.68   27.80
   1  -3 -11  189.58   24.60
   1   3 -11  268.17   42.50
   1   3 -11  189.88   32.90
   0  -3 -11   94.99   19.70
   0  -3  11  131.29   22.00
   0  -3  11  138.59   23.30
   0  -3 -11   89.69   21.90
   0  -3 -11   98.29   21.10
   0   3  11  114.09   21.20
   0   3 -11  123.49   27.50
  -1  -3 -11  251.17   29.90
   1  -3  11  167.58   23.60
  -1  -3 -11  287.87   47.10
   1  -3  11  144.99   35.90
  -1  -3 -11  159.88   25.40
  -1   3 -11  197.28   32.60
   1   3  11  173.08   28.80
   2  -3  11  248.28   33.90
   2  -3  11  227.68   24.60
  -2  -3 -11  179.78   40.90
  -2  -3 -11  250.87   41.70
  -2  -3 -11  235.08   31.10
  -2   3 -11  250.67   36.00
   2   3  11  213.08   31.80
  -3  -3 -11  164.18   25.70
  -3  -3 -11   98.79   35.50
   3  -3  11   99.49   36.30
  -3   3 -11   84.69   26.30
   3   3  11   66.69   24.40
  -4  -3 -11  140.69   33.20
  -4  -3 -11  133.79   34.60
  -4  -3 -11  235.88   45.10
  -4   3 -11  128.29   30.30
   4   3  11  125.39   29.60
  -5  -3 -11    9.00   29.50
  -5  -3 -11   39.60   34.00
  -5  -3 -11   41.30   21.00
  -5   3 -11   30.60   26.70
   5   3  11   11.50   23.40
  -6  -3 -11   -1.40   32.50
  -6  -3 -11   13.80   31.70
  -6  -3 -11   19.10   20.90
  -6   3 -11   36.40   25.90
  -6   3 -11   43.90   26.60
   6   3  11   53.69   26.50
  -7  -3 -11   42.90   33.60
  -7  -3 -11   40.80   22.50
  -7  -3 -11   20.00   17.10
   7   3  11   33.80   30.30
  -7   3 -11   28.90   28.40
  -7   3 -11   18.90   26.90
  -8  -3 -11    3.00   22.00
  -8  -3 -11    6.60   39.30
  -8  -3 -11    8.80   36.40
  -8   3 -11   -6.60   26.40
   8   3  11   58.19   30.10
  -8   3 -11   51.79   35.40
  -9  -3 -11   48.00   41.60
  -9  -3 -11   23.50   39.10
  -9  -3 -11   43.40   24.60
  -9   3 -11   29.30   32.20
  -9   3 -11   37.00   28.50
   9   3  11   24.10   30.00
 -10  -3 -11   99.59   43.30
 -10  -3 -11   54.49   40.50
  10   3  11  106.39   36.40
 -10   3 -11   36.60   33.40
 -10   3 -11   72.09   34.60
  -9  -4  11   80.39   40.40
  -9  -4  11   39.60   29.80
   9  -4 -11   19.10   26.70
   9   4 -11   41.80   32.60
   9   4 -11   37.90   30.00
   8  -4 -11   47.20   25.70
  -8  -4  11   18.40   28.80
  -8  -4  11   54.09   39.50
   8   4 -11   23.50   33.00
   8   4 -11   34.20   29.40
  -7  -4  11   72.59   36.80
   7  -4 -11   38.90   26.00
  -7  -4  11   13.90   24.90
   7   4 -11   23.80   27.80
   7   4 -11   19.00   31.00
   6  -4 -11   91.59   26.00
  -6  -4  11  111.19   39.90
  -6  -4  11   66.79   27.20
   6   4 -11   67.79   31.60
   6   4 -11   67.99   30.40
  -5  -4  11  192.58   39.00
   5  -4 -11   91.59   27.70
   4  -4 -11  113.79   26.30
  -4  -4  11  137.39   36.50
   4   4 -11   68.39   30.40
   3  -4 -11  198.28   31.10
  -3  -4  11  209.68   39.60
   3   4 -11  202.38   37.80
   2  -4 -11   70.49   22.40
  -2  -4  11   30.80   28.80
   2   4 -11   71.69   29.20
   1  -4 -11  189.48   27.30
  -1  -4  11  156.08   32.40
   1   4 -11  204.88   35.50
   1   4 -11  143.39   24.70
  -1   4  11  148.89   25.70
   1   4 -11  213.28   40.50
   0  -4  11   48.00   24.20
   0  -4 -11   67.39   45.90
   0   4  11   90.69   24.90
   0   4 -11   25.90   19.90
   0   4 -11   67.59   28.10
  -1  -4 -11  129.99   22.20
   1  -4  11  157.98   35.30
  -1  -4 -11  180.78   49.40
  -1   4 -11   47.80   26.40
  -1   4 -11  117.89   31.40
   1   4  11  120.29   27.70
  -2  -4 -11  167.78   42.80
  -2  -4 -11   57.49   18.30
   2  -4  11   73.09   21.00
  -2  -4 -11   57.49   21.20
   2   4  11   23.30   24.20
  -2   4 -11   75.99   28.80
  -3  -4 -11  126.69   26.00
  -3  -4 -11   98.09   41.50
   3  -4  11  104.59   20.10
   3  -4  11   90.19   26.80
  -3   4 -11  117.29   29.80
   3   4  11  140.09   30.80
  -4  -4 -11   37.00   24.60
  -4  -4 -11   74.79   46.50
  -4   4 -11   49.10   28.50
   4   4  11   16.00   35.70
  -5  -4 -11   42.20   37.40
  -5  -4 -11  116.29   46.50
  -5   4 -11   56.09   28.00
  -6  -4 -11  -42.90   42.70
  -6  -4 -11   69.59   38.60
   6   4  11   63.99   32.40
  -6   4 -11   73.69   30.30
  -7  -4 -11   81.99   50.79
  -7  -4 -11   62.49   41.30
  -7   4 -11   13.10   38.90
   7   4  11   17.50   29.80
 -14   0  12  -56.79   29.60
  14   0 -12    6.80   19.70
 -14   0  12   31.30   21.90
  14   0 -12   34.70   15.70
  13   0 -12  217.98   27.50
  13   0 -12  182.88   33.00
 -13   0  12  230.48   33.80
 -13   0  12  173.08   44.20
 -12   0  12   64.79   21.70
 -12   0  12   15.30   33.00
  12   0 -12   31.70   15.00
  11   0 -12  496.85   51.19
  11   0 -12  488.35   47.70
  11   0 -12  480.85   52.79
 -11   0  12  425.06   60.49
 -11   0  12  402.16   47.70
  11   0 -12  460.55   43.50
  10   0 -12  210.78   26.30
  10   0 -12  178.48   27.50
  10   0 -12  135.79   27.30
 -10   0  12  245.18   30.20
  10   0 -12  247.58   34.50
 -10   0  12  242.68   43.10
  -9   0  12  982.40   75.49
   9   0 -12  804.12   74.69
   9   0 -12  765.42   77.99
   9   0 -12  855.11   78.29
  -9   0  12 1021.40   88.19
  -8   0  12  151.08   22.30
   8   0 -12  172.58   23.60
  -8   0  12  172.88   34.60
   8   0 -12  156.58   27.40
   8   0 -12  155.58   27.30
   7   0 -12  391.56   50.99
   7   0 -12  470.95   56.69
  -7   0  12  538.05   49.80
  -7   0  12  601.44   58.69
  -7   0  12  610.24   46.00
   7   0 -12  426.66   50.79
   6   0 -12  519.35   48.40
  -6   0  12  418.26   46.80
   6   0 -12  466.35   56.09
   6   0 -12  524.95   48.50
  -6   0  12  421.56   51.39
   5   0 -12 2136.89  176.78
  -5   0  12 2200.38  173.88
   5   0 -12 2120.89  173.88
   5   0 -12 2273.77  174.18
   4   0 -12  231.58   29.20
  -4   0  12  152.18   26.20
  -4   0  12  131.19   21.60
   3   0 -12 2520.85  203.78
   3   0 -12 2666.13  203.08
  -3   0  12 2511.75  202.08
  -2   0  12  157.08   22.40
   2   0 -12  143.59   23.70
   2   0 -12  162.48   24.50
   2   0 -12  112.89   22.20
   1   0 -12 3002.90  231.78
   1   0 -12 2909.61  231.48
   1   0 -12 2835.02  230.78
  -1   0  12 3039.90  231.08
   0   0 -12  278.77   50.59
   0   0 -12  299.67   33.70
   0   0 -12  241.58   29.70
   0   0  12  253.57   30.90
  -1   0 -12 2701.73  216.98
  -1   0 -12 2842.42  215.38
  -1   0 -12 2619.54  215.48
  -1   0 -12 2919.31  218.68
  -2   0 -12   21.20   14.60
  -2   0 -12   40.70   12.40
  -2   0 -12   19.80   17.00
  -3   0 -12 1197.28   97.59
  -3   0 -12 1297.07  104.09
  -3   0 -12 1232.38  101.79
  -3   0 -12 1214.68  101.19
  -4   0 -12  103.19   24.10
  -4   0 -12   70.49   22.00
  -4   0 -12  129.59   22.70
  -4   0 -12   93.79   15.80
  -5   0 -12  606.64   57.19
  -5   0 -12  531.25   48.80
  -5   0 -12  553.64   57.49
  -6   0 -12  306.27   38.30
  -6   0 -12  194.58   27.90
  -7   0 -12  355.46   45.40
  -7   0 -12  419.36   48.30
  -7   0 -12  286.17   35.90
  -8   0 -12   27.80   25.70
  -8   0 -12   38.30   26.70
  -8   0 -12   74.79   20.30
  -9   0 -12  724.13   71.79
  -9   0 -12  611.74   69.19
  -9   0 -12  601.14   60.49
 -10   0 -12   32.10   34.90
 -10   0 -12   54.39   24.80
 -11   0 -12  109.59   29.70
 -11   0 -12  111.89   40.20
 -12   0 -12  -46.70   31.40
 -12   0 -12    9.20   25.70
  14  -1 -12  175.78   34.30
 -14  -1  12  161.68   47.80
 -14  -1  12  192.68   33.60
 -14   1  12  215.28   35.50
  14   1 -12  180.28   35.00
  14   1 -12  132.49   41.20
 -13  -1  12   15.60   20.70
  13  -1 -12    3.10   19.80
 -13  -1  12   25.20   37.00
 -13   1  12   -1.10   19.70
  13   1 -12    5.20   17.60
  13   1 -12    7.70   22.60
 -12  -1  12  253.77   35.30
 -12  -1  12  179.88   46.40
  12  -1 -12  209.08   35.70
  12   1 -12  270.67   37.40
 -12   1  12  277.67   38.00
  12   1 -12  196.88   30.90
 -11  -1  12   28.80   19.50
 -11  -1  12   32.30   32.90
  11  -1 -12   16.30   20.10
 -11   1  12   31.50   20.10
  11   1 -12    6.10   19.00
  11   1 -12   -8.10   16.80
  11   1 -12  -24.60   22.10
  10  -1 -12  454.05   51.19
 -10  -1  12  569.84   65.69
  10  -1 -12  432.86   46.30
  10   1 -12  400.86   45.70
  10   1 -12  429.36   49.20
 -10   1  12  504.15   48.90
  10   1 -12  436.46   52.89
  -9  -1  12  -26.50   26.50
   9  -1 -12    3.10   14.20
  -9  -1  12   12.90   15.90
   9  -1 -12   12.70   19.80
  -9   1  12   13.30   16.90
   9   1 -12    8.70   19.80
   9   1 -12    5.30   17.70
   9   1 -12  -11.40   14.20
  -9   1  12  -23.90   13.10
   8  -1 -12 1077.69   88.99
  -8  -1  12 1132.69   99.29
   8  -1 -12 1059.29   91.69
  -8  -1  12 1083.09   86.79
   8  -1 -12 1048.50   88.69
  -8   1  12 1003.30   88.99
   8   1 -12 1007.10   89.99
  -8   1  12 1092.69   88.79
   8   1 -12  987.40   93.19
   7  -1 -12  292.37   34.60
  -7  -1  12  134.89   25.30
   7  -1 -12  191.68   25.00
  -7  -1  12  197.68   36.80
   7   1 -12  185.58   30.90
   7   1 -12  173.68   35.40
   7   1 -12  180.68   29.30
  -7   1  12  198.78   25.30
  -6  -1  12 1897.41  147.89
   6  -1 -12 1833.62  149.99
   6  -1 -12 1638.94  140.39
   6  -1 -12 1833.42  143.99
  -6  -1  12 1676.33  142.39
   6  -1 -12 1643.44  141.39
   6   1 -12 1812.12  143.09
   6   1 -12 1827.12  152.28
  -6   1  12 1787.72  141.69
   6   1 -12 1842.22  145.39
   5  -1 -12  494.25   53.49
  -5  -1  12  512.85   49.20
   5  -1 -12  491.55   49.60
   5  -1 -12  477.45   44.00
   5  -1 -12  568.64   47.80
   5   1 -12  449.66   53.19
   5   1 -12  491.85   49.40
  -5   1  12  469.25   45.80
   5   1 -12  496.95   51.39
  -5   1  12  521.65   49.10
   4  -1 -12 2167.68  169.78
   4  -1 -12 2173.08  168.18
  -4  -1  12 2296.57  171.48
   4  -1 -12 1999.90  166.18
   4  -1 -12 2121.99  174.88
  -4  -1  12 2017.50  169.78
   4   1 -12 1900.81  170.68
  -4   1  12 2125.49  167.88
   4   1 -12 2177.48  170.68
  -4   1  12 2189.18  169.68
   4   1 -12 2240.18  169.38
   3  -1 -12   26.00   18.30
   3  -1 -12   22.80   13.40
   3  -1 -12   33.10   15.80
   3  -1 -12   16.60   17.00
   3  -1 -12   39.00   10.70
  -3  -1  12   66.29   17.90
  -3  -1  12  125.49   36.00
   3   1 -12   55.89   18.10
   3   1 -12   49.40   18.30
  -3   1  12   55.29   14.50
   3   1 -12   24.00   18.10
   2  -1 -12 1078.59   92.99
   2  -1 -12 1222.98   98.79
   2  -1 -12 1145.99   94.49
   2  -1 -12 1228.68   95.89
   2  -1 -12 1118.49   96.69
  -2  -1  12 1124.89   95.49
   2   1 -12 1246.08   98.79
   2   1 -12 1177.28   99.09
   2   1 -12 1275.97   99.29
  -2   1  12 1122.09   94.79
   1  -1 -12  156.28   25.30
   1  -1 -12  196.88   25.60
   1  -1 -12  122.09   20.00
   1   1 -12  150.58   25.10
   1   1 -12  148.29   21.50
   1   1 -12  188.38   27.80
   0  -1 -12 1485.85  118.09
   0  -1 -12 1524.15  119.59
   0  -1 -12 1518.95  119.09
   0   1 -12 1379.56  115.09
   1  -1  12   75.89   14.20
  -1  -1 -12   76.09   17.30
  -1  -1 -12   93.89   17.30
  -1  -1 -12  108.79   23.50
   1  -1  12   58.29   16.70
  -1  -1 -12   96.99   19.10
  -1   1 -12   50.09   20.40
  -1   1 -12  111.29   13.50
  -2  -1 -12 1965.60  156.18
  -2  -1 -12 1902.21  156.68
  -2  -1 -12 1996.80  156.68
  -2  -1 -12 2015.60  157.08
  -2   1 -12 1947.01  153.68
  -2   1 -12 1890.81  157.98
  -3  -1 -12   94.29   23.60
  -3  -1 -12  121.89   22.90
  -3  -1 -12  140.49   22.10
   3  -1  12  145.79   21.90
  -3  -1 -12  112.59   23.10
  -3   1 -12  129.19   20.80
  -3   1 -12  112.79   24.90
  -3   1 -12  100.69   21.20
  -4  -1 -12 1401.96  114.99
  -4  -1 -12 1355.16  116.89
  -4  -1 -12 1408.86  116.79
   4  -1  12 1329.87  114.19
  -4   1 -12 1466.25  115.09
  -4   1 -12 1422.06  118.19
  -5  -1 -12   62.99   23.80
   5  -1  12   41.40   19.80
  -5  -1 -12   68.09   20.80
  -5  -1 -12   30.80   23.80
  -5   1 -12   46.70   21.60
  -5   1 -12   32.70   22.10
  -6  -1 -12  536.55   58.19
  -6  -1 -12  555.64   72.59
   6  -1  12  516.85   54.59
  -6   1 -12  485.55   56.09
  -6   1 -12  477.55   55.49
  -7  -1 -12   80.39   31.20
  -7  -1 -12   54.79   24.50
  -7   1 -12   76.29   27.20
  -7   1 -12  152.78   30.20
  -8  -1 -12  164.18   31.50
  -8  -1 -12  203.78   38.20
  -8   1 -12  197.38   37.10
  -8   1 -12  245.28   38.90
  -9  -1 -12    7.50   23.50
  -9  -1 -12   75.29   32.80
  -9   1 -12   47.70   28.80
  -9   1 -12   34.90   29.50
 -10  -1 -12  143.59   31.60
 -10  -1 -12  124.89   36.80
 -10   1 -12  122.89   59.39
 -10   1 -12  135.49   37.00
 -11  -1 -12   16.00   33.60
 -11  -1 -12   44.00   27.10
 -11   1 -12   13.10   31.90
 -11   1 -12   -4.40   24.30
 -12  -1 -12   26.30   30.50
 -12  -1 -12   80.89   40.50
 -12   1 -12   88.49   33.60
 -12   1 -12   49.20   35.70
  13  -2 -12  146.99   35.50
 -13  -2  12   17.80   38.70
 -13  -2  12   87.09   28.30
  13   2 -12   59.59   23.60
 -13   2  12   62.49   24.90
  13   2 -12  109.49   31.20
 -12  -2  12   31.90   39.40
  12  -2 -12   15.40   20.70
 -12  -2  12   34.60   24.50
  12   2 -12   17.90   21.50
  12   2 -12   -6.00   22.70
  12   2 -12    5.10   20.50
 -12   2  12  -15.00   19.80
  11  -2 -12  273.07   42.10
 -11  -2  12  307.07   53.19
 -11  -2  12  243.58   36.10
 -11   2  12  279.97   39.00
  11   2 -12  258.47   35.00
 -11   2  12  219.98   30.80
  11   2 -12  217.48   38.60
  11   2 -12  212.68   42.40
 -10  -2  12   -7.40   21.40
 -10  -2  12  -33.00   30.60
  10   2 -12   27.50   37.50
 -10   2  12    3.40   14.90
  10   2 -12  -14.90   17.90
  10   2 -12    0.60   19.30
   9  -2 -12  436.16   51.89
  -9  -2  12  526.75   63.59
   9   2 -12  486.15   50.09
  -9   2  12  417.46   43.30
   9   2 -12  470.55   47.70
   9   2 -12  435.46   54.39
  -8  -2  12   -5.60   28.90
   8  -2 -12   15.00   20.60
  -8  -2  12   38.50   19.20
   8   2 -12   53.69   19.10
  -8   2  12   28.60   12.80
   8   2 -12   24.40   21.90
   7  -2 -12  436.36   45.30
  -7  -2  12  363.56   40.60
   7  -2 -12  384.76   37.20
  -7  -2  12  460.45   56.39
   7  -2 -12  336.97   39.90
   7   2 -12  411.26   48.70
   7   2 -12  371.56   42.50
  -7   2  12  376.36   36.90
  -6  -2  12  146.49   33.60
   6  -2 -12  168.28   27.90
   6  -2 -12  112.19   21.00
  -6  -2  12  165.38   23.30
   6  -2 -12  166.68   20.80
  -6   2  12  157.18   19.60
   6   2 -12  126.99   24.40
   6   2 -12  158.78   29.70
   6   2 -12  152.28   32.70
   5  -2 -12  874.81   74.59
  -5  -2  12  881.51   78.09
   5  -2 -12  734.73   70.49
   5  -2 -12  762.72   68.19
   5   2 -12  938.91   73.29
   5   2 -12  843.12   77.59
  -4  -2  12   17.80   24.10
   4  -2 -12   64.79   20.60
   4  -2 -12    9.50   14.00
   4  -2 -12   44.50   13.60
  -4   2  12   28.00   17.80
   4   2 -12   41.20   19.40
   4   2 -12   42.60   21.70
   4   2 -12    8.20   18.90
   3  -2 -12 1303.67  105.69
   3  -2 -12 1362.66  104.99
   3  -2 -12 1405.26  109.39
   3  -2 -12 1232.98  107.49
  -3  -2  12 1271.87  109.99
   3   2 -12 1446.06  112.39
   3   2 -12 1301.17  109.39
  -3   2  12 1327.47  108.79
   3   2 -12 1247.28  108.69
   2  -2 -12  115.69   23.20
   2  -2 -12   71.99   17.10
   2  -2 -12   84.59   16.00
  -2  -2  12   51.39   18.20
   2  -2 -12   63.19   18.30
   2   2 -12   60.79   23.10
   2   2 -12   96.09   18.50
   2   2 -12   49.10   19.20
   1  -2 -12 1128.59   94.69
  -1  -2  12 1116.49   94.29
  -1  -2  12 1025.20  102.39
   1  -2 -12 1267.57   97.19
   1  -2 -12 1146.69   94.39
   1   2 -12 1144.29   93.49
   1   2 -12 1221.68   97.39
   1   2 -12 1228.58  100.39
   0  -2 -12   82.29   17.60
   0  -2 -12   59.39   19.80
   0  -2  12   49.60   12.80
   0  -2  12   32.40   18.70
   0  -2 -12  102.99   19.70
   0   2 -12   83.09   22.80
   1  -2  12  723.73   59.69
  -1  -2 -12  646.14   60.99
  -1  -2 -12  674.33   60.89
  -1   2 -12  646.04   64.59
  -2  -2 -12   86.69   19.10
  -2  -2 -12   75.39   20.10
  -2  -2 -12   70.29   26.50
  -2  -2 -12   69.39   19.60
   2  -2  12  128.19   22.50
   2   2  12   82.69   21.70
  -2   2 -12   64.09   23.60
   3  -2  12  834.12   65.19
  -3  -2 -12  676.43   64.09
  -3  -2 -12  616.04   65.49
  -3  -2 -12  664.33   69.89
  -3  -2 -12  623.74   63.19
   3   2  12  738.83   64.19
  -3   2 -12  700.63   67.59
  -3   2 -12  668.43   62.29
  -4  -2 -12   81.09   23.40
  -4  -2 -12   94.59   27.80
  -4  -2 -12   53.99   23.30
   4  -2  12  135.79   26.20
  -4  -2 -12   82.99   27.20
  -4   2 -12  132.09   28.10
   4   2  12   73.99   23.70
  -4   2 -12  112.59   23.60
  -5  -2 -12  622.84   66.69
   5  -2  12  719.33   65.59
  -5  -2 -12  687.43   68.59
  -5   2 -12  645.54   65.69
  -5   2 -12  672.73   63.59
   5   2  12  512.75   62.09
  -6  -2 -12   -9.10   26.10
  -6  -2 -12   37.50   26.50
  -6   2 -12   -8.10   21.90
   6   2  12   -7.30   23.80
  -6   2 -12   -9.30   23.10
  -7  -2 -12  296.87   47.60
  -7  -2 -12  448.56   52.99
  -7   2 -12  385.76   47.50
   7   2  12  267.27   43.00
  -7   2 -12  329.17   45.70
  -8  -2 -12   19.00   28.80
  -8  -2 -12  -12.80   30.40
  -8   2 -12   30.70   27.90
   8   2  12  -11.20   23.30
  -8   2 -12  -23.20   24.50
  -9  -2 -12  243.78   42.30
  -9  -2 -12  312.47   51.09
  -9   2 -12  178.68   39.40
   9   2  12  210.18   41.20
  -9   2 -12  193.78   42.00
 -10  -2 -12   12.60   31.70
 -10  -2 -12    7.60   37.10
 -10   2 -12  -18.50   29.40
  10   2  12    1.60   29.70
 -10   2 -12    0.60   33.70
 -11  -2 -12   15.50   40.60
 -11  -2 -12  106.69   38.20
 -11   2 -12   67.79   31.40
 -11   2 -12   44.60   38.60
  11   2  12  108.49   37.00
 -11  -3  12   66.99   42.80
  11  -3 -12   73.19   28.70
 -11  -3  12   29.00   28.40
  11   3 -12    9.20   19.50
  11   3 -12   55.49   28.30
  11   3 -12   98.29   39.40
  10  -3 -12  158.78   34.40
 -10  -3  12  138.39   44.50
 -10  -3  12  127.29   33.00
  10   3 -12  115.79   31.40
  10   3 -12  123.29   37.00
  10   3 -12  142.59   25.50
   9  -3 -12   -5.20   19.90
  -9  -3  12   40.60   40.90
  -9  -3  12   42.10   25.70
   9   3 -12   40.60   18.40
   9   3 -12   -2.60   23.30
   9   3 -12  -10.90   25.70
   8  -3 -12  323.47   38.80
  -8  -3  12  190.38   32.70
  -8  -3  12  193.58   43.70
   8   3 -12  229.18   29.30
   8   3 -12  291.27   43.30
   8   3 -12  236.38   37.10
   7  -3 -12   -6.80   19.50
  -7  -3  12    2.70   21.50
  -7  -3  12   20.60   32.70
   7   3 -12   -3.90   25.30
   7   3 -12    4.80   16.20
  -6  -3  12  279.87   51.69
   6  -3 -12  325.47   40.70
  -6  -3  12  317.67   46.40
   6   3 -12  320.97   49.50
   6   3 -12  262.77   42.80
   5  -3 -12   13.20   19.20
  -5  -3  12   36.10   27.70
  -5  -3  12   30.00   20.10
  -5  -3  12   -1.20   18.60
   5   3 -12   -3.20   23.80
   5   3 -12    9.90   33.10
   4  -3 -12  356.16   44.10
  -4  -3  12  319.27   40.60
  -4  -3  12  454.15   51.59
   4   3 -12  369.36   48.30
   4   3 -12  381.26   47.60
  -3  -3  12   87.49   20.90
  -3  -3  12   94.69   27.10
   3  -3 -12   97.39   24.30
   3   3 -12   79.99   24.30
   3   3 -12   65.39   28.30
   2  -3 -12  450.25   48.20
  -2  -3  12  448.46   45.90
  -2  -3  12  523.95   51.49
   2  -3 -12  401.06   40.90
   2   3 -12  463.85   54.69
   2   3 -12  459.05   47.30
  -1  -3  12  124.09   22.50
   1  -3 -12   84.99   17.20
   1  -3 -12  126.69   23.60
  -1  -3  12  106.69   23.60
   1  -3 -12   82.19   18.40
   1   3 -12   86.59   27.30
   1   3 -12  113.59   24.40
   0  -3 -12  691.33   62.99
   0  -3 -12  642.84   63.29
   0  -3  12  780.22   63.89
   0  -3  12  690.93   65.89
   0  -3 -12  725.03   65.59
   0   3  12  780.52   65.09
   0   3 -12  773.42   72.39
   1  -3  12   36.50   13.00
   1  -3  12   57.69   24.30
  -1  -3 -12    7.40   19.30
  -1  -3 -12   27.90   34.30
  -1  -3 -12   27.70   18.90
   1   3  12   34.30   21.00
  -1   3 -12    6.80   23.60
   2  -3  12  372.26   44.30
  -2  -3 -12  270.37   35.60
  -2  -3 -12  333.97   39.20
  -2  -3 -12  239.78   45.50
  -2   3 -12  365.26   44.20
   2   3  12  297.07   38.10
  -3  -3 -12   67.89   32.80
  -3  -3 -12   19.40   19.40
  -3  -3 -12   41.00   20.70
   3   3  12   37.90   23.60
  -3   3 -12   40.10   25.70
  -4  -3 -12  456.25   60.69
  -4  -3 -12  446.26   48.00
  -4  -3 -12  336.37   43.30
  -4  -3 -12  274.27   48.40
  -4   3 -12  414.96   52.09
   4   3  12  415.76   47.90
  -5  -3 -12  -53.49   27.20
  -5  -3 -12   17.50   33.10
  -5  -3 -12   12.50   21.20
   5   3  12    4.80   26.60
  -5   3 -12   22.90   26.10
  -6  -3 -12  187.48   29.90
  -6  -3 -12  152.88   43.70
  -6  -3 -12  135.59   42.70
  -6   3 -12  192.78   36.50
  -6   3 -12  215.78   38.40
   6   3  12  185.88   39.00
  -7  -3 -12   62.39   41.30
  -7  -3 -12  -36.40   31.90
  -7  -3 -12   32.00   21.80
   7   3  12   20.30   31.70
  -7   3 -12   25.80   27.80
  -7   3 -12   -6.10   26.90
  -8  -3 -12   99.79   27.60
  -8  -3 -12  168.68   43.10
  -8  -3 -12  100.39   43.10
  -8   3 -12  153.78   37.40
   8   3  12   79.79   33.20
  -8   3 -12  116.79   33.80
  -9  -3 -12   44.70   41.40
  -9  -3 -12   46.70   25.30
  -9  -3 -12   40.80   40.00
   9   3  12   56.69   33.10
  -9   3 -12   -8.10   33.70
  -9   3 -12   47.90   31.70
  -8  -4  12   35.00   28.80
  -8  -4  12   19.70   35.90
   8  -4 -12   30.60   26.70
   8   4 -12   43.90   28.00
   8   4 -12   18.00   32.10
  -7  -4  12  110.19   31.80
  -7  -4  12  187.78   41.80
   7  -4 -12  167.48   37.10
   7   4 -12  182.58   40.20
   7   4 -12  187.78   38.10
  -6  -4  12   65.09   42.40
   6  -4 -12   92.49   28.20
  -6  -4  12   79.59   27.30
   6   4 -12   29.20   28.10
   6   4 -12   77.29   33.40
   5  -4 -12  195.88   34.30
  -5  -4  12  262.37   43.50
   5   4 -12  165.78   38.10
  -4  -4  12   76.29   32.90
   4  -4 -12   59.09   24.20
  -3  -4  12  237.78   38.20
   3  -4 -12  157.58   31.40
   3   4 -12  190.98   39.80
   2  -4 -12   60.29   23.60
  -2  -4  12   66.49   27.80
   2   4 -12   62.09   31.10
  -1  -4  12  222.58   33.10
   1  -4 -12  185.68   28.90
   1   4 -12  166.38   35.70
   1   4 -12  127.89   27.00
   0  -4 -12   27.20   19.60
   0  -4  12   80.09   30.10
   0  -4 -12   -7.90   43.00
   0   4 -12   42.60   21.50
   0   4 -12   63.59   26.20
   0   4  12   29.60   20.90
   0   4 -12   11.70   27.80
  -1  -4 -12  141.89   25.70
  -1  -4 -12  182.98   49.60
   1  -4  12  166.48   26.20
  -1   4 -12  179.98   30.80
   1   4  12  137.29   30.20
  -1   4 -12  221.08   37.60
  -2  -4 -12   31.80   18.20
  -2  -4 -12   -0.40   19.70
  -2  -4 -12   59.59   40.80
   2  -4  12   52.99   17.20
   2   4  12   56.29   25.90
  -2   4 -12   13.70   28.20
  -3  -4 -12   63.19   40.30
  -3  -4 -12  137.79   27.30
   3   4  12   70.19   28.70
  -3   4 -12  125.29   32.80
  -4  -4 -12    0.50   43.40
  -4  -4 -12   59.39   37.00
  -4  -4 -12   83.89   25.70
   4   4  12   11.60   26.90
  -4   4 -12   75.79   30.70
  -5  -4 -12   45.00   46.20
  -5  -4 -12  131.09   30.00
  -5  -4 -12   23.30   37.80
   5   4  12   66.19   33.10
  -5   4 -12  115.19   34.00
  -6  -4 -12  -12.80   37.90
  -6  -4 -12  -65.59   41.70
   6   4  12   42.10   30.10
  -6   4 -12  -18.60   35.50
 -14   0  13  -20.80   20.90
 -14   0  13   12.30   34.20
  14   0 -13    2.20   19.50
  14   0 -13  -15.30   13.20
  13   0 -13    4.60   14.00
 -13   0  13   10.30   32.90
 -13   0  13  -10.80   18.20
  13   0 -13   14.80   20.60
 -12   0  13  -25.90   17.80
  12   0 -13   -3.50   19.50
 -12   0  13   10.40   30.50
  12   0 -13    8.70   13.80
  11   0 -13   17.30   19.80
  11   0 -13   -8.00   12.50
  11   0 -13    5.80   15.20
 -11   0  13  -21.50   27.60
  11   0 -13   22.80   19.40
 -11   0  13   -4.00   16.80
  10   0 -13    7.30   20.70
 -10   0  13   -3.80   27.10
  10   0 -13    9.90   13.20
  10   0 -13    7.10   13.10
  10   0 -13   27.70   18.30
  -9   0  13   19.30   26.30
   9   0 -13  -12.40   19.20
   9   0 -13  -35.10   16.00
  -9   0  13   13.90   14.20
   9   0 -13    3.60   12.00
   8   0 -13   12.30   19.10
   8   0 -13   17.80   18.90
  -8   0  13  -20.10   23.10
  -8   0  13   -1.60   12.60
   8   0 -13   -2.50   10.40
  -7   0  13    3.30   17.30
   7   0 -13  -26.50   16.30
  -7   0  13  -25.50   20.60
   7   0 -13    5.40   18.40
   6   0 -13  -20.50   20.80
   6   0 -13   19.90   18.90
  -6   0  13  -16.30   12.90
   6   0 -13   12.90   17.30
   5   0 -13   -6.10   15.50
  -5   0  13  -11.30   17.80
  -5   0  13  -26.20   15.70
   5   0 -13   -1.00   16.30
   5   0 -13   -1.70   19.40
   4   0 -13  -17.90   16.60
   4   0 -13    8.80   16.00
   4   0 -13    8.10   17.70
  -4   0  13   -0.20   13.30
   3   0 -13   46.80   18.80
   3   0 -13    6.40   17.10
  -3   0  13    7.10   14.70
   3   0 -13   -3.40   17.80
   2   0 -13    4.80   15.80
   2   0 -13  -13.50   15.10
  -2   0  13   -0.70   13.80
   2   0 -13   23.10   16.00
   1   0 -13   22.80   16.20
   1   0 -13   -2.30   13.70
   1   0 -13   12.70   16.30
  -1   0  13   -3.20   13.40
   0   0 -13  -12.80   12.90
   0   0 -13  -11.20   15.20
   0   0 -13   32.80   16.80
  -1   0 -13   19.80   12.20
  -1   0 -13   34.50   18.40
  -1   0 -13   -2.50   13.10
  -1   0 -13  -18.90   11.00
  -2   0 -13    6.50   10.90
  -2   0 -13   -3.00   15.10
  -2   0 -13   -3.70   12.00
  -2   0 -13  -21.00   12.90
  -2   0 -13   29.30   19.10
  -3   0 -13  -27.70   15.40
  -3   0 -13   30.30   19.10
  -3   0 -13  -18.50   21.60
  -3   0 -13   -5.00   11.00
  -4   0 -13    6.40   20.40
  -4   0 -13  -35.60   16.30
  -4   0 -13   -9.70   11.40
  -5   0 -13  -19.30   18.80
  -5   0 -13  -26.10   22.20
  -5   0 -13   -2.10   12.00
  -6   0 -13    1.60   21.60
  -6   0 -13  -24.20   13.00
  -6   0 -13    2.70   22.10
  -7   0 -13   -7.40   22.70
  -7   0 -13  -20.50   15.10
  -7   0 -13   -0.50   22.70
  -8   0 -13  -10.40   27.10
  -8   0 -13   19.60   17.60
  -8   0 -13   25.00   25.70
  -9   0 -13   30.80   28.60
  -9   0 -13   16.90   19.60
  -9   0 -13   24.30   29.60
 -10   0 -13    8.50   29.20
 -10   0 -13   11.80   37.20
 -10   0 -13    5.10   20.20
 -11   0 -13   44.10   35.70
 -11   0 -13    4.50   32.50
 -12   0 -13   23.30   23.40
 -12   0 -13   -5.20   35.40
 -12   0 -13  -20.70   35.10
 -14  -1  13   -8.30   22.30
  14  -1 -13    4.90   21.90
 -14  -1  13   -4.40   34.20
  14   1 -13   -8.30   19.30
 -14   1  13  -11.40   20.60
  14   1 -13  -29.00   21.50
 -13  -1  13   30.30   22.00
  13  -1 -13   -4.70   24.50
 -13  -1  13  -30.10   31.40
  13   1 -13   19.20   17.50
 -13   1  13   25.00   21.80
  13   1 -13   -5.00   20.10
 -12  -1  13    5.90   33.30
  12  -1 -13   28.00   25.20
 -12  -1  13   31.80   20.70
  12   1 -13   -8.80   16.00
 -12   1  13   12.60   18.20
  12   1 -13   54.49   26.30
  12   1 -13   -1.80   21.20
 -11  -1  13   46.00   20.30
 -11  -1  13   66.49   54.49
  11  -1 -13   57.59   24.40
  11   1 -13   41.10   24.90
 -11   1  13   60.69   22.40
  11   1 -13   36.60   23.10
  11   1 -13   25.60   17.90
  10  -1 -13   32.10   19.30
  10  -1 -13   -0.30   13.00
 -10  -1  13   -2.90   15.90
  10  -1 -13   11.30   18.40
 -10  -1  13    5.60   29.80
  10   1 -13    2.30   19.60
  10   1 -13    9.60   20.60
  10   1 -13   -1.40   15.90
 -10   1  13   16.60   19.00
   9  -1 -13   43.90   24.60
   9  -1 -13   23.60   17.50
  -9  -1  13    8.90   14.60
  -9  -1  13   21.40   28.60
   9  -1 -13   53.89   20.30
  -9   1  13    5.60   14.00
   9   1 -13   11.10   19.30
  -9   1  13    3.10   16.00
   9   1 -13    1.00   20.60
   8  -1 -13   31.20   17.30
   8  -1 -13   57.39   22.80
  -8  -1  13   33.00   29.20
   8  -1 -13   13.80   14.30
  -8   1  13   48.10   16.30
   8   1 -13   27.50   20.10
   8   1 -13   19.10   21.60
   7  -1 -13   48.60   14.00
   7  -1 -13   12.40   19.80
   7  -1 -13   37.50   17.40
  -7  -1  13   57.49   26.40
   7   1 -13   29.50   21.00
   7   1 -13   28.40   21.70
  -7   1  13   29.30   16.70
   6  -1 -13   37.20   12.80
   6  -1 -13   63.79   22.70
  -6  -1  13   44.40   24.40
   6   1 -13   16.60   19.20
   6   1 -13   31.40   23.00
   6   1 -13   65.39   23.90
  -6   1  13   58.39   18.30
   5  -1 -13  397.46   47.60
   5  -1 -13  356.86   42.70
   5  -1 -13  366.06   36.00
   5  -1 -13  334.37   35.00
   5  -1 -13  387.96   40.20
  -5  -1  13  412.06   46.10
  -5   1  13  397.06   39.20
   5   1 -13  353.36   42.70
   5   1 -13  409.56   47.50
   5   1 -13  414.16   45.70
  -4  -1  13  150.98   26.60
   4  -1 -13  138.69   24.40
  -4  -1  13  142.59   26.20
   4  -1 -13  155.38   20.00
   4  -1 -13  155.18   28.70
   4  -1 -13  156.88   23.20
  -4   1  13  101.79   23.10
  -4   1  13  152.48   21.00
   4   1 -13  131.49   26.70
   4   1 -13  108.69   23.40
   4   1 -13  147.29   25.40
   3  -1 -13  198.28   23.10
   3  -1 -13  138.39   19.40
   3  -1 -13  148.69   28.00
  -3  -1  13  161.08   25.80
   3  -1 -13  198.08   25.00
   3  -1 -13  166.68   26.00
   3   1 -13  178.68   27.20
   3   1 -13  177.78   28.10
   3   1 -13  210.28   29.80
  -3   1  13  174.68   22.70
   2  -1 -13   39.00   19.60
   2  -1 -13   32.10   14.10
   2  -1 -13   22.50   19.20
   2  -1 -13   62.09   16.40
   2  -1 -13    3.60   11.80
  -2  -1  13   42.20   17.00
  -2   1  13   15.50   12.10
   2   1 -13   20.40   19.80
   2   1 -13   43.10   17.50
   2   1 -13   48.80   19.80
  -1  -1  13   46.10   15.40
   1  -1 -13   69.29   18.60
   1  -1 -13   45.30   15.50
   1  -1 -13   97.19   22.30
   1   1 -13   55.69   15.70
   1   1 -13   39.90   18.70
   1   1 -13   94.99   22.30
   0  -1  13   42.80   13.50
   0  -1 -13   63.39   16.30
   0  -1 -13   54.09   20.50
   0  -1 -13   53.99   15.10
   0   1 -13   53.79   12.20
   0   1 -13   38.00   19.70
   0   1 -13   55.79   20.70
  -1  -1 -13   33.90   21.10
   1  -1  13   49.70   21.70
  -1  -1 -13   52.99   19.60
  -1  -1 -13   65.39   16.50
  -1   1 -13   14.00   19.60
  -2  -1 -13  378.66   41.30
  -2  -1 -13  385.46   43.60
  -2  -1 -13  356.76   42.90
  -2  -1 -13  433.36   43.70
  -2  -1 -13  351.76   39.60
  -2   1 -13  395.86   36.80
  -2   1 -13  342.07   44.20
  -3  -1 -13  -22.30   17.80
  -3  -1 -13    0.40   18.10
  -3  -1 -13    9.20   17.40
   3  -1  13   23.60   16.30
  -3   1 -13    5.90   14.70
  -3   1 -13   14.70   19.10
   4  -1  13   84.89   21.80
  -4  -1 -13   72.69   24.00
  -4  -1 -13   40.40   22.60
  -4  -1 -13   79.69   21.10
  -4   1 -13   69.89   20.30
  -4   1 -13   71.79   25.00
  -5  -1 -13   95.79   23.90
  -5  -1 -13   97.69   28.70
  -5  -1 -13  108.49   28.00
   5  -1  13   85.89   24.60
  -5   1 -13  136.39   25.50
  -5   1 -13  125.19   27.30
  -6  -1 -13    4.90   35.80
   6  -1  13   51.79   24.80
  -6  -1 -13   88.09   27.70
  -6  -1 -13   46.90   25.10
  -6   1 -13   64.09   25.60
  -6   1 -13  113.89   28.50
  -7  -1 -13   51.89   28.90
  -7  -1 -13   22.90   22.80
  -7  -1 -13   40.00   27.60
  -7   1 -13   75.99   28.20
  -7   1 -13   55.79   26.30
  -8  -1 -13   27.00   22.60
  -8  -1 -13    8.60   29.80
  -8   1 -13   -2.70   23.70
  -8   1 -13   37.40   26.90
  -9  -1 -13   21.10   31.80
  -9  -1 -13   10.70   23.40
  -9   1 -13   31.60   29.60
  -9   1 -13    3.60   29.00
 -10  -1 -13   46.40   26.00
 -10  -1 -13    5.70   30.30
 -10   1 -13   15.00   29.60
 -10   1 -13   -7.70   29.90
 -11  -1 -13   43.10   27.40
 -11  -1 -13   -8.40   31.90
 -11   1 -13   -3.80   31.60
 -11   1 -13   11.30   29.50
  13  -2 -13   50.79   24.20
 -13  -2  13   -1.40   37.10
 -13  -2  13   23.10   24.90
  13   2 -13   -2.10   22.10
 -13   2  13    8.50   22.00
  13   2 -13   34.60   23.90
 -12  -2  13  -25.10   21.40
 -12  -2  13    4.80   36.50
  12  -2 -13   28.10   23.50
  12   2 -13   23.80   28.90
  12   2 -13   -7.40   20.40
  12   2 -13   47.80   23.50
  11  -2 -13   73.29   26.70
 -11  -2  13   94.39   24.70
 -11  -2  13   40.90   37.00
 -11   2  13   19.40   20.90
  11   2 -13   76.29   23.20
  11   2 -13   24.60   21.20
  11   2 -13   41.10   27.30
 -10  -2  13  -13.50   33.40
 -10  -2  13   41.70   21.30
  10  -2 -13   56.59   22.10
  10   2 -13   56.99   24.50
  10   2 -13    5.10   18.40
  10   2 -13   36.70   21.00
 -10   2  13   20.70   18.50
   9  -2 -13   48.80   21.60
  -9  -2  13   45.90   20.10
  -9  -2  13   52.99   34.70
   9   2 -13   43.60   20.60
   9   2 -13   57.99   27.00
   9   2 -13   88.59   24.00
  -9   2  13   68.59   16.90
  -8  -2  13  104.89   22.10
  -8  -2  13  144.49   38.10
   8  -2 -13   85.29   24.30
   8   2 -13   93.09   23.30
  -8   2  13  127.49   19.50
   8   2 -13   85.29   30.20
   7  -2 -13   35.80   14.60
   7  -2 -13   30.10   16.30
   7  -2 -13   38.20   23.40
  -7  -2  13   18.00   28.40
   7   2 -13   57.29   25.50
  -7   2  13   62.09   14.60
   7   2 -13   28.20   20.40
  -6  -2  13   77.09   28.00
   6  -2 -13   36.30   20.90
   6  -2 -13    5.20   13.30
   6  -2 -13   19.40   13.50
  -6   2  13   27.90   12.50
   6   2 -13   -5.20   23.10
   6   2 -13   33.90   20.10
  -5  -2  13  186.18   33.90
   5  -2 -13  120.89   24.20
   5  -2 -13  228.48   30.30
   5  -2 -13  190.98   24.00
   5   2 -13  214.08   33.00
   5   2 -13  234.88   29.70
   5   2 -13  225.78   34.50
   4  -2 -13   12.80   11.40
   4  -2 -13   11.10   12.80
   4  -2 -13    3.50   18.10
   4  -2 -13   -1.80   12.50
   4   2 -13  -14.30   19.90
   4   2 -13    4.90   19.60
   4   2 -13   -2.20   17.70
   3  -2 -13  404.06   41.70
   3  -2 -13  468.25   47.70
   3  -2 -13  357.06   41.60
   3  -2 -13  382.66   39.60
  -3  -2  13  479.15   47.60
   3   2 -13  494.45   51.49
   3   2 -13  458.75   45.90
   3   2 -13  485.25   46.80
   2  -2 -13  111.39   22.30
   2  -2 -13  171.28   23.60
   2  -2 -13  138.89   21.70
  -2  -2  13  169.48   24.60
   2  -2 -13  182.28   29.40
   2   2 -13  191.08   24.40
   2   2 -13  152.08   29.30
   2   2 -13  158.18   25.70
   1  -2 -13  198.48   24.80
  -1  -2  13  155.88   22.70
   1  -2 -13  182.58   27.40
   1  -2 -13  206.88   26.20
   1   2 -13  171.28   23.60
   1   2 -13  139.69   27.50
   1   2 -13  182.78   31.60
   0  -2 -13  267.57   31.70
   0  -2 -13  253.27   31.40
   0  -2 -13  272.47   34.20
   0   2 -13  261.47   36.20
  -1  -2 -13   62.19   20.50
  -1  -2 -13   79.69   19.50
  -1  -2 -13   45.40   21.10
   1  -2  13   48.00   17.20
  -1   2 -13   55.39   23.40
  -2  -2 -13   62.99   21.50
  -2  -2 -13   51.49   22.40
  -2  -2 -13   37.50   20.60
  -2  -2 -13   46.50   27.60
   2  -2  13   85.09   20.10
  -2   2 -13   62.99   24.20
  -3  -2 -13  113.69   26.30
  -3  -2 -13  130.79   25.60
  -3  -2 -13   81.89   26.90
   3  -2  13  113.29   23.90
  -3  -2 -13   89.99   26.90
  -3   2 -13   86.89   27.70
  -3   2 -13  115.69   22.90
  -4  -2 -13   41.10   22.80
  -4  -2 -13  118.19   30.00
   4  -2  13   90.49   26.60
  -4  -2 -13   86.99   26.90
  -4  -2 -13   56.89   24.70
   4   2  13   62.59   24.40
  -4   2 -13   67.39   25.70
  -4   2 -13   81.19   22.30
   5  -2  13  113.79   27.10
  -5  -2 -13  105.99   29.70
  -5  -2 -13   99.89   29.80
  -5  -2 -13   68.69   28.60
  -5  -2 -13   61.99   23.70
  -5   2 -13   75.69   28.90
   5   2  13  111.49   27.80
  -5   2 -13  111.19   26.30
  -6  -2 -13   12.90   26.60
  -6  -2 -13   10.20   29.50
  -6   2 -13   31.70   24.70
   6   2  13   18.10   25.30
  -6   2 -13   -4.80   25.70
  -7  -2 -13   23.60   27.50
  -7  -2 -13   17.20   32.60
  -7   2 -13   26.00   25.40
  -7   2 -13   -2.00   27.60
  -8  -2 -13   54.99   30.00
  -8   2 -13  -22.50   35.30
   8   2  13  -19.30   25.30
  -8   2 -13   66.09   30.10
  -9  -2 -13   -5.70   28.50
  -9  -2 -13   11.40   35.20
   9   2  13  -30.40   27.90
  -9   2 -13    4.50   28.60
 -10  -2 -13   48.00   38.60
 -10  -2 -13  -49.40   57.79
  10   2  13   23.50   30.60
 -10   2 -13   22.70   31.60
 -10   2 -13   39.60   35.70
 -11  -3  13   82.69   28.50
 -11  -3  13   73.49   43.70
  11  -3 -13   67.29   24.60
  11   3 -13   55.59   21.80
  11   3 -13   58.09   28.50
  11   3 -13   57.89   26.60
  10  -3 -13   89.79   29.80
 -10  -3  13   66.79   40.90
 -10  -3  13   73.39   28.50
  10   3 -13   31.70   24.50
  10   3 -13   58.69   30.40
  10   3 -13   48.40   21.30
  -9  -3  13   66.99   27.10
  -9  -3  13   76.69   38.60
   9  -3 -13   60.09   26.30
   9   3 -13   56.59   20.50
   9   3 -13   81.09   33.20
   9   3 -13   29.60   25.60
  -8  -3  13  104.29   26.70
  -8  -3  13  148.99   38.70
   8   3 -13   40.10   25.90
   8   3 -13   90.09   22.60
   8   3 -13   97.69   32.00
   7  -3 -13  125.99   28.20
  -7  -3  13  110.89   32.80
  -7  -3  13   53.99   34.00
   7   3 -13  135.19   36.30
   7   3 -13  123.69   21.80
  -6  -3  13  118.19   34.60
  -6  -3  13   49.00   21.90
   6  -3 -13  126.49   27.80
  -6  -3  13   53.39   23.10
   6   3 -13   94.79   21.90
   6   3 -13   90.09   31.20
  -5  -3  13  114.99   22.70
  -5  -3  13  176.48   33.90
   5  -3 -13   79.29   27.30
  -5  -3  13  115.99   23.60
   5   3 -13   88.69   28.90
   5   3 -13  142.69   24.80
  -4  -3  13  103.89   22.60
  -4  -3  13  132.29   30.50
   4  -3 -13  127.89   26.70
   4   3 -13  108.69   32.30
   4   3 -13  142.99   30.10
   4   3 -13  105.79   23.60
  -3  -3  13   90.79   26.70
   3  -3 -13   83.89   24.60
  -3  -3  13    4.80   18.00
   3   3 -13   79.09   22.90
   3   3 -13  127.99   30.50
  -2  -3  13  166.78   25.20
   2  -3 -13  188.88   28.70
   2  -3 -13   96.09   19.60
  -2  -3  13  190.88   28.80
   2   3 -13  155.28   27.40
   2   3 -13  179.18   32.30
   1  -3 -13  110.19   20.00
   1  -3 -13   91.09   22.90
  -1  -3  13   99.99   23.30
   1  -3 -13  154.38   25.90
  -1  -3  13  113.69   23.50
   1   3 -13  109.79   29.60
   1   3 -13   76.49   24.30
   0  -3 -13  208.48   27.80
   0  -3  13  183.78   25.40
   0  -3 -13  198.08   29.90
   0  -3 -13  183.28   27.70
   0  -3  13  235.78   30.90
   0   3 -13  181.88   31.40
   0   3 -13  251.87   36.00
  -1  -3 -13   58.29   22.40
  -1  -3 -13   43.40   33.60
  -1  -3 -13   67.39   24.20
   1  -3  13   53.69   25.50
  -1   3 -13   91.09   30.00
   1   3  13   56.29   22.80
  -2  -3 -13  158.98   39.10
  -2  -3 -13  178.78   28.80
  -2  -3 -13  180.58   28.30
   2  -3  13  126.39   28.80
  -2   3 -13  200.68   36.00
   2   3  13  141.29   29.70
  -3  -3 -13   72.89   24.20
  -3  -3 -13   75.59   38.60
  -3  -3 -13   28.70   22.40
   3   3  13   54.89   25.80
  -3   3 -13   43.20   27.40
  -4  -3 -13   74.59   37.30
  -4  -3 -13   35.80   22.40
  -4  -3 -13   41.50   29.80
  -4  -3 -13   48.40   25.70
   4   3  13   43.60   26.50
  -4   3 -13   12.00   25.60
  -5  -3 -13   58.29   24.90
  -5  -3 -13   43.50   32.20
  -5  -3 -13  125.19   28.90
  -5  -3 -13   42.60   34.70
   5   3  13  -11.30   28.40
  -5   3 -13   46.50   29.00
  -6  -3 -13   89.69   24.90
  -6  -3 -13   48.60   35.00
   6   3  13   50.19   31.10
  -6   3 -13   10.60   26.90
  -6   3 -13   -6.50   28.40
  -7  -3 -13  -13.30   34.70
  -7  -3 -13   22.80   38.10
  -7  -3 -13   30.60   23.10
  -7   3 -13   70.69   31.40
   7   3  13   37.50   32.20
  -7   3 -13   42.20   30.50
  -8  -3 -13  123.79   29.70
  -8  -3 -13  164.28   44.50
  -8  -3 -13   88.79   40.80
   8   3  13  112.39   35.00
  -8   3 -13  116.19   35.20
  -8   3 -13  140.99   36.30
  -9   3 -13  -17.70   32.50
  -8  -4  13   26.60   39.30
   8  -4 -13   63.59   28.10
  -8  -4  13   79.79   29.70
   8   4 -13   56.09   32.30
   8   4 -13   98.69   32.60
   7  -4 -13   68.59   27.50
  -7  -4  13   40.80   35.00
  -7  -4  13   90.39   28.60
   7   4 -13   34.30   32.90
   7   4 -13   40.30   29.20
   6  -4 -13  102.49   33.40
  -6  -4  13   20.90   25.10
  -6  -4  13   38.00   60.19
   6   4 -13   62.39   34.10
   5  -4 -13  144.39   28.40
  -5  -4  13   96.09   35.70
  -5  -4  13   50.19   26.00
   5   4 -13   51.79   32.30
  -4  -4  13   48.90   30.20
   4  -4 -13   80.29   26.40
   4   4 -13    7.50   28.40
  -3  -4  13   91.49   31.60
   3  -4 -13  115.09   27.40
   3   4 -13   78.89   25.00
   3   4 -13  126.29   35.40
  -2  -4  13   65.59   28.30
   2  -4 -13  123.69   26.20
   2   4 -13  107.19   48.20
   2   4 -13   70.79   22.10
   1  -4 -13  119.49   24.50
  -1  -4  13  136.89   28.20
   1   4 -13   72.19   24.70
   1   4 -13   -2.70   29.60
   1   4 -13  120.89   34.90
   0  -4 -13  113.29   26.40
   0  -4 -13   94.89   48.70
   0  -4  13  134.09   27.40
   0   4 -13  136.89   36.90
   0   4 -13  127.89   27.70
   1  -4  13  115.09   20.80
  -1  -4 -13   56.69   43.50
  -1  -4 -13  103.39   24.60
   1   4  13  119.59   27.10
  -1   4 -13   95.99   27.90
  -1   4 -13  100.59   33.40
  -2  -4 -13   47.70   21.30
  -2  -4 -13  120.69   44.40
  -2  -4 -13   84.09   41.30
  -2   4 -13   42.20   30.70
   2   4  13   48.80   25.70
  -3  -4 -13  139.09   27.50
  -3  -4 -13   84.39   23.70
  -3  -4 -13   88.39   43.30
   3   4  13   98.19   44.30
  -3   4 -13  103.09   38.20
  -4  -4 -13   59.29   38.20
  -4  -4 -13   46.10   25.30
  -4  -4 -13   89.79   49.40
   4   4  13    6.00   29.40
  -4   4 -13   36.80   43.80
  -5  -4 -13  -18.10   44.30
  -5  -4 -13   24.60   37.70
  -5  -4 -13   85.69   28.50
  -5   4 -13   82.59   34.60
   5   4  13   44.70   28.90
  14   0 -14  196.88   26.80
 -14   0  14  214.08   34.50
 -14   0  14  156.78   45.60
  14   0 -14  199.68   38.50
 -13   0  14  -38.50   30.30
  13   0 -14   -0.50   13.50
  13   0 -14   28.20   23.80
 -13   0  14   26.60   20.00
  12   0 -14  315.27   48.90
 -12   0  14  326.97   39.70
  12   0 -14  273.27   39.60
  12   0 -14  284.87   34.10
 -12   0  14  399.06   56.99
  11   0 -14   34.80   16.70
  11   0 -14   36.70   15.90
 -11   0  14   26.30   17.40
  11   0 -14   74.29   31.00
  11   0 -14   -5.40   20.30
 -10   0  14  413.06   39.30
  10   0 -14  386.86   45.20
  10   0 -14  455.35   49.60
  10   0 -14  282.07   36.80
  10   0 -14  301.57   36.20
 -10   0  14  433.86   55.69
   9   0 -14   59.49   26.70
   9   0 -14   77.69   16.70
  -9   0  14   46.40   30.40
   9   0 -14   94.19   25.70
  -9   0  14  104.69   19.20
  -8   0  14 1249.77  110.09
   8   0 -14 1160.08  104.69
   8   0 -14 1260.77  104.99
   7   0 -14  359.66   41.40
   7   0 -14  270.47   38.60
   6   0 -14  950.80   80.09
   6   0 -14  980.90   85.39
  -6   0  14  819.42   77.99
   6   0 -14  854.01   79.59
  -5   0  14  758.42   63.79
   5   0 -14  717.63   85.29
   5   0 -14  688.43   65.49
   5   0 -14  625.54   64.39
   4   0 -14  308.97   38.80
  -4   0  14  379.66   37.40
   4   0 -14  305.47   37.20
   4   0 -14  284.07   40.70
   3   0 -14  784.62   69.09
   3   0 -14  824.72   70.09
   3   0 -14  683.13   68.99
   2   0 -14 1434.06  120.89
   2   0 -14 1502.25  120.99
   2   0 -14 1456.45  120.99
   1   0 -14   73.79   20.60
   1   0 -14  136.59   22.40
   1   0 -14  147.29   25.30
   0   0 -14 1546.75  121.39
   0   0 -14 1387.36  118.29
   0   0 -14 1437.36  118.39
   0   0 -14 1485.75  120.79
  -1   0 -14  392.36   41.00
  -1   0 -14  439.66   47.90
  -1   0 -14  463.75   43.40
  -1   0 -14  445.06   48.30
  -2   0 -14 1270.67   99.39
  -2   0 -14 1218.08   97.59
  -2   0 -14 1114.09   97.79
  -2   0 -14 1305.27  104.59
  -3   0 -14  858.91   72.79
  -3   0 -14  909.11   76.89
  -3   0 -14  873.11   72.69
  -3   0 -14  970.20   81.99
  -4   0 -14  690.73   65.89
  -4   0 -14  607.74   54.09
  -4   0 -14  670.83   60.79
  -5   0 -14  375.66   42.20
  -5   0 -14  290.97   42.20
  -5   0 -14  308.57   32.00
  -6   0 -14  482.35   47.80
  -6   0 -14  674.83   62.29
  -6   0 -14  589.14   58.99
  -7   0 -14   79.09   17.60
  -7   0 -14   67.29   30.10
  -7   0 -14  139.49   30.90
  -8   0 -14  241.78   31.60
  -8   0 -14  211.78   39.70
  -8   0 -14  330.07   74.79
  -9   0 -14   51.29   29.40
  -9   0 -14   13.50   26.40
  -9   0 -14   34.20   18.30
 -10   0 -14  189.28   41.60
 -10   0 -14  123.49   36.80
 -10   0 -14  127.99   24.50
 -11   0 -14   -7.00   26.60
 -11   0 -14   47.10   35.10
 -11   0 -14   35.40   21.00
 -14  -1  14   26.40   23.90
 -14  -1  14   70.19   38.60
 -14   1  14  112.89   31.40
  14   1 -14   46.50   19.20
 -13  -1  14  189.28   46.30
 -13  -1  14  176.28   29.80
  13  -1 -14  158.58   33.30
 -13   1  14  187.98   32.60
  13   1 -14  118.69   30.80
  13   1 -14  141.99   26.00
 -12  -1  14   41.10   20.70
  12  -1 -14   61.39   24.50
 -12  -1  14   69.99   35.40
  12   1 -14   37.90   19.80
  12   1 -14  107.29   27.20
  12   1 -14   75.19   31.70
 -12   1  14  113.29   26.50
 -11  -1  14  274.57   37.40
 -11  -1  14  281.17   52.09
  11  -1 -14  393.16   48.20
 -11   1  14  371.16   42.40
  11   1 -14  340.97   42.70
  11   1 -14  324.77   45.10
  11   1 -14  290.77   38.50
 -10  -1  14  213.48   26.50
 -10  -1  14  173.28   41.50
  10  -1 -14  135.79   24.90
  10  -1 -14  168.88   33.40
  10  -1 -14  193.48   29.00
  10   1 -14  154.08   27.80
 -10   1  14  206.48   29.10
  10   1 -14  194.98   33.10
  10   1 -14  218.08   38.20
  -9  -1  14  416.86   55.19
   9  -1 -14  444.06   49.80
   9  -1 -14  368.16   43.20
   9  -1 -14  340.27   41.00
   9   1 -14  409.46   47.20
   9   1 -14  436.66   51.49
   8  -1 -14  229.98   31.90
   8  -1 -14  182.18   26.60
   8  -1 -14  235.78   33.00
  -8  -1  14  231.98   40.90
  -8   1  14  181.68   27.70
   8   1 -14  242.48   33.30
   8   1 -14  231.78   36.40
   7  -1 -14  640.14   60.39
   7  -1 -14  610.74   56.29
  -7  -1  14  673.93   67.89
   7  -1 -14  607.84   63.29
   7   1 -14  706.53   66.39
   7   1 -14  638.54   62.99
  -7   1  14  662.33   60.39
   6  -1 -14   11.80   19.50
  -6  -1  14   17.90   23.10
   6  -1 -14   21.70   16.30
   6  -1 -14    6.20   10.80
   6   1 -14   -5.10   24.60
   6   1 -14   10.40   20.70
  -6   1  14   16.70   14.20
   6   1 -14    8.20   19.60
   5  -1 -14  633.44   57.69
   5  -1 -14  694.73   58.99
  -5  -1  14  718.93   67.39
   5  -1 -14  674.93   62.09
   5  -1 -14  669.03   65.09
   5   1 -14  851.91   66.09
   5   1 -14  722.23   67.09
   5   1 -14  633.54   69.09
  -5   1  14  664.13   61.29
   4  -1 -14  366.46   44.10
   4  -1 -14  397.16   45.10
   4  -1 -14  338.67   34.90
   4  -1 -14  324.77   38.80
  -4  -1  14  358.86   42.70
   4   1 -14  359.36   43.80
   4   1 -14  380.46   42.10
  -4   1  14  264.77   35.40
   4   1 -14  313.17   40.90
   3  -1 -14 1213.98   96.69
   3  -1 -14 1192.98  100.19
   3  -1 -14 1242.78  112.19
  -3  -1  14 1264.27   99.59
   3  -1 -14 1029.20  108.69
   3   1 -14 1231.98  100.39
   3   1 -14 1196.78  101.99
   3   1 -14 1115.19   99.99
  -3   1  14 1146.29   97.19
   2  -1 -14  652.83   65.09
   2  -1 -14  774.32   70.59
   2  -1 -14  809.82   70.29
   2  -1 -14  791.62   69.09
   2  -1 -14  762.42   65.29
   2   1 -14  743.23   68.89
   2   1 -14  773.72   67.29
   2   1 -14  783.02   71.19
   1  -1 -14 1105.19   93.39
   1  -1 -14 1062.69   90.49
   1  -1 -14 1164.58   92.89
   1  -1 -14 1166.48   94.09
   1   1 -14  973.40   89.49
   1   1 -14 1098.49   93.89
   1   1 -14 1143.79   95.39
   0  -1 -14  318.07   35.60
   0  -1 -14  339.27   42.00
   0  -1 -14  380.46   41.90
   0  -1 -14  408.66   41.00
   0   1 -14  347.07   41.10
   0   1 -14  320.27   39.60
   0   1 -14  323.67   31.60
  -1  -1 -14  570.54   54.39
  -1  -1 -14  610.14   54.79
  -1  -1 -14  567.24   58.19
  -1  -1 -14  609.84   57.39
  -1   1 -14  582.74   59.49
  -2  -1 -14  135.49   24.50
  -2  -1 -14  112.19   25.80
  -2  -1 -14   99.59   24.40
  -2  -1 -14  122.59   26.60
  -2   1 -14  139.09   27.00
  -2   1 -14  113.29   17.80
  -3  -1 -14  789.22   73.29
  -3  -1 -14  833.32   71.09
   3  -1  14  751.82   67.99
  -3   1 -14  723.53   73.89
  -3   1 -14  808.52   67.79
   4  -1  14  147.49   24.30
  -4  -1 -14  100.49   23.30
  -4  -1 -14  106.89   27.30
  -4  -1 -14   69.29   25.80
  -4   1 -14   81.39   26.70
  -4   1 -14   94.09   22.70
  -5  -1 -14  608.54   65.19
  -5  -1 -14  592.14   71.69
  -5  -1 -14  640.04   65.39
  -5   1 -14  655.03   61.19
  -5   1 -14  634.14   66.29
   6  -1  14   94.19   30.30
  -6  -1 -14   89.29   29.40
  -6  -1 -14   49.99   25.20
  -6  -1 -14  152.88   32.20
  -6   1 -14  134.09   27.40
  -6   1 -14   75.49   29.00
  -7  -1 -14  491.55   58.59
  -7  -1 -14  412.36   51.39
  -7  -1 -14  510.75   59.69
  -7   1 -14  467.35   55.79
  -7   1 -14  449.56   57.99
  -8  -1 -14   17.10   22.90
  -8  -1 -14   78.09   36.60
  -8  -1 -14   28.30   30.00
  -8   1 -14   43.20   26.90
  -8   1 -14   20.30   28.90
  -9  -1 -14  212.18   34.10
  -9  -1 -14  264.57   43.00
  -9   1 -14  180.58   38.50
  -9   1 -14  196.38   39.10
 -10  -1 -14   47.60   26.50
 -10  -1 -14    9.80   31.10
 -10  -1 -14   40.20   36.10
 -10   1 -14   53.89   28.70
 -10   1 -14   37.70   29.80
 -11  -1 -14   58.79   37.00
 -11  -1 -14   65.69   28.90
 -11  -1 -14   77.89   36.40
 -11   1 -14   15.30   36.20
 -11   1 -14   96.39   37.60
 -13  -2  14   84.69   25.90
 -13  -2  14  -26.10   39.60
 -12  -2  14  241.88   50.49
 -12  -2  14  180.18   30.30
  12  -2 -14  173.98   36.80
  12   2 -14  216.68   48.80
  12   2 -14  158.18   30.50
  12   2 -14  154.58   35.50
 -11  -2  14   50.79   38.40
 -11  -2  14   49.70   21.20
  11  -2 -14   25.20   21.30
  11   2 -14   47.70   22.20
  11   2 -14   19.10   21.70
  11   2 -14   41.00   29.00
 -11   2  14    1.90   34.70
  10  -2 -14  298.97   43.40
 -10  -2  14  251.17   74.59
  10   2 -14  315.37   40.50
 -10   2  14  376.56   44.60
  10   2 -14  381.66   53.39
  -9  -2  14   70.99   37.30
  -9  -2  14  137.79   22.50
   9   2 -14  109.99   25.60
   9   2 -14   92.89   30.80
  -9   2  14  108.29   20.60
   8  -2 -14  429.86   42.10
  -8  -2  14  449.36   60.89
   8  -2 -14  434.46   50.19
   8   2 -14  434.66   53.59
   8   2 -14  406.96   48.30
  -8   2  14  411.56   41.90
  -7  -2  14  239.28   42.10
   7  -2 -14  240.08   28.00
   7  -2 -14  202.98   29.10
   7  -2 -14  244.68   35.30
  -7   2  14  209.08   27.20
   7   2 -14  221.58   32.60
   7   2 -14  270.57   40.30
   6  -2 -14  653.83   62.59
   6  -2 -14  513.35   56.09
  -6  -2  14  744.63   68.89
   6  -2 -14  628.54   55.69
  -6   2  14  608.04   54.69
   6   2 -14  628.34   61.19
   6   2 -14  769.92   69.19
   5  -2 -14  243.68   31.70
  -5  -2  14  277.97   39.60
   5  -2 -14  184.28   32.30
   5  -2 -14  331.27   38.90
   5   2 -14  276.17   40.40
   5   2 -14  332.27   36.60
   5   2 -14  325.27   41.20
  -4  -2  14  679.63   78.19
   4  -2 -14  708.73   66.89
   4  -2 -14  713.13   58.99
   4  -2 -14  658.83   61.59
   4  -2 -14  713.03   60.99
   4   2 -14  667.23   65.59
   4   2 -14  766.22   70.69
   4   2 -14  689.43   66.79
  -3  -2  14  209.48   29.90
   3  -2 -14  141.79   23.50
   3  -2 -14  181.58   23.60
   3  -2 -14  225.68   30.80
   3  -2 -14  174.48   25.40
   3   2 -14  176.28   32.60
   3   2 -14  232.68   32.40
   3   2 -14  196.88   28.80
  -2  -2  14  774.72   74.39
   2  -2 -14  931.01   77.99
   2  -2 -14  799.82   73.89
   2  -2 -14  914.41   74.59
   2  -2 -14  873.41   73.39
   2   2 -14  844.62   73.49
   2   2 -14  964.80   81.99
   2   2 -14  899.01   77.59
   1  -2 -14   95.69   19.00
   1  -2 -14   44.40   19.50
   1  -2 -14   93.69   25.10
  -1  -2  14   87.59   16.50
   1   2 -14  101.99   16.40
   1   2 -14   68.89   25.40
   1   2 -14   57.09   22.70
   0  -2 -14  740.33   62.99
   0  -2 -14  677.63   64.19
   0  -2 -14  729.03   65.59
   0   2 -14  654.83   68.79
   0   2 -14  666.63   66.19
  -1  -2 -14  266.77   34.40
  -1  -2 -14  343.37   45.40
   1  -2  14  312.37   34.10
  -1  -2 -14  265.57   35.00
  -1   2 -14  257.97   38.80
  -2  -2 -14  791.32   72.59
  -2  -2 -14  709.23   71.19
   2  -2  14  864.51   69.29
  -2  -2 -14  826.62   78.69
  -2  -2 -14  735.93   71.09
  -2   2 -14  713.03   75.69
  -3  -2 -14  152.78   33.00
  -3  -2 -14   89.99   26.80
  -3  -2 -14   76.89   26.00
  -3  -2 -14  103.49   26.90
   3  -2  14  119.29   24.80
  -3   2 -14   95.49   28.90
  -3   2 -14  135.49   23.10
  -4  -2 -14  475.35   55.59
  -4  -2 -14  395.76   50.59
  -4  -2 -14  434.16   53.09
  -4  -2 -14  386.66   49.00
  -4   2 -14  528.15   56.29
  -4   2 -14  448.16   48.60
  -5  -2 -14   69.89   29.50
  -5  -2 -14   35.60   24.50
  -5  -2 -14   72.09   26.80
  -5  -2 -14   65.59   28.70
   5  -2  14   96.49   26.50
  -5   2 -14   86.99   30.00
  -5   2 -14   91.79   25.60
  -6  -2 -14  169.18   37.40
  -6  -2 -14  216.48   39.60
  -6  -2 -14  210.48   38.90
   6   2  14  211.98   37.20
  -6   2 -14  215.78   35.60
  -6   2 -14  204.38   38.40
  -7  -2 -14   85.99   34.80
  -7  -2 -14   73.09   31.40
  -7  -2 -14   61.89   29.60
  -7   2 -14   38.80   28.60
   7   2  14   62.29   31.20
  -8  -2 -14  107.39   37.80
  -8  -2 -14   54.09   31.10
  -8   2 -14   87.69   32.80
  -8   2 -14   29.60   31.30
   8   2  14   29.30   31.00
  -9  -2 -14   71.29   38.20
  -9  -2 -14   60.19   31.40
  -9   2 -14   66.49   32.00
  -9   2 -14  113.19   36.00
   9   2  14   -4.00   28.80
 -10  -2 -14  116.89   40.90
 -10  -2 -14   17.30   52.09
 -10   2 -14   59.39   32.30
 -10   2 -14  105.09   37.90
  11  -3 -14  114.59   30.10
 -11  -3  14  104.89   27.50
 -11  -3  14   45.70   41.50
  11   3 -14   63.79   23.50
  11   3 -14   84.59   38.10
  11   3 -14   64.99   29.60
  10  -3 -14   21.40   22.00
 -10  -3  14   24.80   24.00
 -10  -3  14   40.50   39.90
  10   3 -14   12.00   30.30
  10   3 -14   43.50   21.20
  10   3 -14   37.30   27.90
   9  -3 -14  135.49   30.90
  -9  -3  14  150.18   44.20
  -9  -3  14  114.49   27.00
   9   3 -14   64.39   33.50
   9   3 -14   81.39   29.60
   9   3 -14  125.89   24.90
  -8  -3  14  110.39   40.20
   8  -3 -14   36.00   23.40
  -8  -3  14   49.50   26.10
   8   3 -14   79.69   33.20
   8   3 -14   60.19   21.90
  -7  -3  14  404.76   52.39
  -7  -3  14  250.57   35.70
  -7  -3  14  222.58   35.60
   7  -3 -14  356.76   44.30
   7   3 -14  324.07   48.00
   7   3 -14  299.47   35.40
  -6  -3  14  102.29   23.90
  -6  -3  14  109.89   23.90
   6  -3 -14  172.18   29.80
  -6  -3  14  202.18   39.50
   6   3 -14  140.29   26.50
  -5  -3  14  545.95   62.69
   5  -3 -14  515.55   57.69
   5   3 -14  543.45   53.69
   5   3 -14  490.25   60.89
  -4  -3  14  151.08   32.60
   4  -3 -14  151.68   28.80
   4   3 -14  150.08   31.40
   4   3 -14  119.09   33.50
   4   3 -14  132.19   25.90
   3  -3 -14  666.93   63.59
  -3  -3  14  677.63   66.39
  -3  -3  14  645.74   57.69
   3   3 -14  595.54   69.99
   3   3 -14  611.74   62.09
  -2  -3  14   82.99   19.10
  -2  -3  14   51.09   22.30
   2  -3 -14   42.30   16.90
   2  -3 -14   36.10   15.80
   2  -3 -14   58.09   24.10
   2   3 -14   64.59   28.80
   2   3 -14   62.79   23.90
   1  -3 -14  383.66   39.00
  -1  -3  14  351.86   41.10
   1  -3 -14  454.85   45.20
  -1  -3  14  344.37   40.20
   1  -3 -14  325.47   37.90
   1   3 -14  339.17   47.50
   1   3 -14  374.46   44.90
   0  -3 -14  154.48   27.90
   0  -3 -14  101.59   23.60
   0  -3  14  117.59   25.40
   0  -3  14  129.89   18.50
   0   3 -14  110.19   31.20
   0   3 -14  113.69   29.00
  -1  -3 -14  311.17   40.20
  -1  -3 -14  288.17   52.29
  -1  -3 -14  381.16   43.90
   1  -3  14  341.47   39.50
  -1   3 -14  308.67   45.60
   2  -3  14  207.48   33.40
  -2  -3 -14  180.68   47.40
  -2  -3 -14  223.68   31.90
  -2  -3 -14  157.18   31.50
  -2   3 -14  210.58   37.70
   2   3  14  160.98   31.90
  -3  -3 -14  240.28   34.40
  -3  -3 -14  229.38   33.40
  -3  -3 -14  181.28   39.80
  -3  -3 -14  261.17   46.90
   3   3  14  197.28   36.80
  -3   3 -14  254.77   40.60
  -4  -3 -14  114.99   35.20
  -4  -3 -14   66.19   36.00
  -4  -3 -14   95.79   27.30
  -4  -3 -14  100.89   27.50
   4   3  14  109.69   32.40
  -4   3 -14   57.29   29.80
  -5  -3 -14   97.29   37.60
  -5  -3 -14  115.19   28.90
  -5  -3 -14  130.69   30.70
   5   3  14   82.29   30.10
  -5   3 -14   92.89   36.10
  -6  -3 -14  -11.60   37.10
  -6  -3 -14   42.30   26.90
  -6  -3 -14   20.50   24.20
  -6  -3 -14  -21.40   32.00
  -6   3 -14   79.29   33.50
   6   3  14   75.79   33.20
  -7  -3 -14   93.69   39.60
  -7  -3 -14  152.18   42.60
  -7  -3 -14   83.19   26.20
  -7  -3 -14   98.09   34.80
  -7   3 -14   35.00   33.50
   7   3  14  100.69   37.60
  -7   3 -14   66.09   51.09
  -8  -3 -14   63.89   27.40
  -8  -3 -14   13.70   29.70
  -8  -3 -14   26.10   37.30
  -8  -3 -14   -9.30   34.40
   8   3  14   -5.20   31.70
  -8   3 -14  -39.20   27.50
  -8   3 -14   27.60   32.30
   7  -4 -14   20.70   25.90
  -7  -4  14   46.40   38.40
  -7  -4  14   15.40   24.90
   7   4 -14    5.80   31.40
   7   4 -14    1.00   27.50
   6  -4 -14   83.79   28.00
  -6  -4  14   11.90   23.10
   6   4 -14   50.59   31.60
   5  -4 -14   34.40   26.20
  -5  -4  14   26.80   23.80
  -5  -4  14  124.19   38.40
   5   4 -14   54.49   34.50
  -4  -4  14  142.79   35.90
   4  -4 -14  123.19   30.10
   4   4 -14  119.49   23.20
   4   4 -14  124.39   36.50
  -3  -4  14   42.70   30.90
   3  -4 -14   92.09   26.30
   3   4 -14   65.49   21.90
   3   4 -14   76.69   33.50
   2  -4 -14  147.19   29.10
  -2  -4  14  135.49   30.70
   2   4 -14  127.69   35.90
   2   4 -14  124.19   27.20
   1  -4 -14  145.49   53.19
  -1  -4  14   94.59   32.00
   1  -4 -14   75.09   25.20
   1   4 -14   98.19   28.30
   1   4 -14  113.29   36.10
   0  -4 -14   80.79   44.80
   0  -4  14  114.39   22.70
   0  -4 -14   90.09   25.90
   0   4 -14  138.59   35.70
   0   4 -14  114.59   27.40
  -1  -4 -14   51.19   39.80
  -1  -4 -14   71.99   23.20
  -1   4 -14   50.69   26.50
  -1   4 -14   98.59   35.50
  -2  -4 -14   77.29   24.10
  -2  -4 -14  145.19   44.60
  -2  -4 -14   30.30   22.90
   2   4  14  123.89   31.00
  -2   4 -14   45.40   32.50
  -3  -4 -14    1.30   44.00
  -3  -4 -14    0.80   22.70
  -3  -4 -14  -46.80   20.40
  -3   4 -14   20.30   29.70
   3   4  14   45.90   25.80
  -4  -4 -14   56.79   27.60
  -4  -4 -14    1.90   22.40
  -4  -4 -14   26.60   47.10
  -4  -4 -14   56.99   38.40
   4   4  14   44.10   29.70
  -4   4 -14   44.80   34.70
 -14   0  15    1.40   20.20
  13   0 -15   -6.60   13.10
  13   0 -15    5.40   22.10
 -13   0  15   -0.60   17.90
  12   0 -15  -29.90   21.30
 -12   0  15   -2.10   16.30
  12   0 -15   -2.40   14.00
  12   0 -15    1.00   22.80
 -12   0  15  -37.30   29.40
  11   0 -15    9.20   20.80
 -11   0  15   -5.70   14.80
 -11   0  15   -2.00   29.30
  11   0 -15   -1.70   13.10
  11   0 -15   12.40   17.20
  11   0 -15   -8.70   21.10
  10   0 -15    8.00   14.30
  10   0 -15   15.10   13.50
  10   0 -15    6.90   19.60
 -10   0  15   25.80   14.40
  10   0 -15   -9.50   21.40
   9   0 -15    0.20   10.70
   9   0 -15    6.90   20.30
   9   0 -15    0.90   22.20
   8   0 -15   20.50   21.10
   8   0 -15    1.20   21.70
   7   0 -15  -27.50   18.70
   7   0 -15    0.90   22.20
   6   0 -15   15.60   18.20
   6   0 -15   26.40   21.20
   5   0 -15    4.70   20.60
   5   0 -15   10.60   20.80
   5   0 -15   -5.30   18.50
  -4   0  15   -3.20   14.40
   4   0 -15   13.00   22.00
   4   0 -15   25.00   19.60
   4   0 -15   35.70   20.60
   3   0 -15   -3.20   21.20
  -3   0  15  -22.30   16.70
   3   0 -15    1.30   18.90
   3   0 -15    4.00   18.00
   2   0 -15    8.20   20.20
  -2   0  15   -5.50   11.50
   2   0 -15   23.60   21.80
   2   0 -15  -10.00   17.40
   1   0 -15   22.10   19.70
  -1   0  15   33.70   14.70
   1   0 -15   19.90   17.80
   1   0 -15    8.80   17.00
   0   0 -15   22.70   15.50
   0   0 -15    2.20   19.70
   0   0 -15    0.60   14.40
   0   0 -15    6.80   22.50
  -1   0 -15  -19.70   21.90
  -1   0 -15    8.10   19.40
  -2   0 -15    0.80   12.70
  -2   0 -15   -9.90   12.10
  -2   0 -15  -17.00   21.50
  -2   0 -15  -17.60   13.70
  -3   0 -15  -36.50   20.30
  -3   0 -15    9.70   11.20
  -3   0 -15  -28.80   15.00
  -3   0 -15    5.90   11.90
  -4   0 -15   -2.30    9.90
  -4   0 -15  -12.00   11.60
  -4   0 -15  -29.60   20.90
  -4   0 -15   -4.80   23.90
  -5   0 -15   -8.40   25.60
  -5   0 -15   -4.70   19.70
  -5   0 -15    1.60   11.90
  -6   0 -15   -4.50   21.30
  -6   0 -15    5.70   24.10
  -7   0 -15    2.80   26.20
  -7   0 -15   25.30   25.40
  -7   0 -15  -15.30   12.90
  -8   0 -15   -8.40   29.20
  -8   0 -15   10.80   27.20
  -8   0 -15   27.10   14.30
  -9   0 -15   46.40   30.60
  -9   0 -15   35.10   32.60
  -9   0 -15   12.40   15.30
 -10   0 -15   10.00   31.10
 -10   0 -15  -28.20   25.80
 -10   0 -15   10.40   15.00
 -11   0 -15  -24.10   36.10
 -11   0 -15   11.10   33.20
 -13  -1  15   56.29   37.40
  13  -1 -15   20.40   25.20
 -13  -1  15   25.00   19.80
  13   1 -15   49.40   26.50
 -13   1  15   68.29   24.30
  13   1 -15   58.69   32.60
 -12  -1  15   25.20   34.20
 -12  -1  15   -2.90   17.20
  12  -1 -15   40.80   24.80
  12   1 -15    0.40   20.10
  12   1 -15   18.50   26.40
  12   1 -15   13.80   17.80
 -12   1  15   27.30   21.10
  11  -1 -15    4.50   19.70
 -11  -1  15   11.90   17.80
 -11  -1  15    9.30   32.70
  11  -1 -15   43.50   21.50
  11   1 -15    1.70   24.90
  11   1 -15   -5.60   16.70
  11   1 -15   18.80   36.30
 -10  -1  15    5.70   31.30
  10  -1 -15   18.40   19.00
  10  -1 -15  -23.70   15.60
  10  -1 -15   22.10   15.40
  10   1 -15   32.90   18.40
  10   1 -15  -18.00   40.50
  10   1 -15   27.70   22.10
  -9  -1  15   13.10   28.10
   9  -1 -15   24.40   17.00
   9  -1 -15   -0.70   14.00
   9  -1 -15   31.10   24.40
   9   1 -15   -3.30   21.80
   9   1 -15   24.60   24.30
   8  -1 -15   49.10   20.50
   8  -1 -15   47.20   24.70
   8  -1 -15   60.79   15.90
  -8  -1  15   57.69   30.30
   8   1 -15   54.89   26.30
   8   1 -15   46.70   22.60
  -7  -1  15  114.39   31.70
   7  -1 -15   72.89   21.50
   7  -1 -15   95.09   16.90
   7  -1 -15  107.39   26.50
   7   1 -15  101.89   25.10
   7   1 -15  140.69   30.70
  -7   1  15  104.39   21.20
   6  -1 -15   51.79   20.00
   6  -1 -15   13.30   10.60
   6  -1 -15   43.70   22.00
  -6  -1  15   22.80   25.40
   6  -1 -15   14.20   13.70
   6   1 -15   48.00   23.00
   6   1 -15   37.00   22.70
  -6   1  15   19.70   18.60
   6   1 -15  -38.10   23.40
   5  -1 -15   63.49   15.30
   5  -1 -15   72.69   16.50
   5  -1 -15   79.09   24.90
  -5  -1  15   29.70   22.90
   5  -1 -15   85.59   21.90
   5   1 -15   57.39   24.70
  -5   1  15   77.99   20.80
   5   1 -15  130.69   29.90
   4  -1 -15   16.60   22.20
   4  -1 -15   64.29   16.30
   4  -1 -15   25.10   12.20
  -4  -1  15   21.50   21.90
   4  -1 -15   64.29   19.90
   4  -1 -15    5.20   21.20
   4   1 -15   21.40   21.90
   4   1 -15   72.69   24.40
   4   1 -15    4.10   20.30
   3  -1 -15  119.89   21.70
   3  -1 -15   79.79   18.30
   3  -1 -15   46.90   12.50
   3  -1 -15   68.39   22.00
   3  -1 -15   54.29   23.00
   3   1 -15   88.59   23.30
   3   1 -15   77.29   22.00
   3   1 -15   91.79   26.00
   2  -1 -15   57.39   20.20
   2  -1 -15   19.70   23.40
   2  -1 -15   31.10   15.60
   2  -1 -15   -4.70   13.00
   2   1 -15    7.30   20.10
   2   1 -15   20.70   16.70
   2   1 -15    0.10   20.70
   1  -1 -15   30.90   19.60
   1  -1 -15   63.29   19.80
   1  -1 -15   60.59   16.90
   1  -1 -15   58.69   15.40
   1  -1 -15   38.60   21.50
   1   1 -15   37.50   21.00
   1   1 -15   33.10   21.20
   1   1 -15   23.10   16.10
   0  -1 -15   65.89   23.40
   0  -1 -15  121.29   20.80
   0  -1 -15   75.99   18.10
   0  -1 -15  115.09   24.80
   0   1 -15   64.59   13.70
   0   1 -15   80.19   24.40
   0   1 -15   52.39   25.50
  -1  -1 -15   30.50   22.30
  -1  -1 -15   32.90   20.10
  -1  -1 -15   30.70   18.10
  -1   1 -15   28.30   22.00
  -2  -1 -15  121.29   28.00
  -2  -1 -15  159.98   27.00
  -2  -1 -15  164.38   28.10
  -2  -1 -15  152.38   28.40
  -2   1 -15  132.19   29.20
  -2   1 -15  128.19   19.20
  -3  -1 -15   27.60   22.90
  -3  -1 -15   16.60   21.30
  -3  -1 -15   65.79   26.80
   3  -1  15   11.90   16.30
  -3  -1 -15   51.19   21.90
  -3   1 -15   19.40   24.90
  -3   1 -15   58.69   17.10
   4  -1  15    4.20   18.60
  -4  -1 -15    7.40   22.50
  -4  -1 -15    3.40   29.30
  -4  -1 -15    3.70   24.30
  -4   1 -15   -3.60   18.20
  -4   1 -15  -16.20   21.60
  -5  -1 -15   55.49   27.60
   5  -1  15   32.90   23.80
  -5  -1 -15   84.59   28.80
  -5  -1 -15   75.39   38.20
  -5   1 -15   48.50   22.80
  -5   1 -15   55.09   28.50
  -6  -1 -15    6.00   25.20
  -6  -1 -15   15.30   27.30
  -6  -1 -15  -31.60   20.10
  -6   1 -15   18.20   24.00
  -6   1 -15   15.10   27.30
  -7  -1 -15    4.90   32.20
  -7  -1 -15  -18.30   21.70
  -7  -1 -15    3.70   26.40
  -7   1 -15    4.20   25.00
  -8  -1 -15    5.50   22.80
  -8  -1 -15   35.20   30.50
  -8  -1 -15   52.09   31.40
  -8   1 -15   15.90   28.40
  -8   1 -15   11.20   27.60
  -9  -1 -15  -17.90   22.70
  -9  -1 -15   40.30   32.30
  -9  -1 -15    1.10   31.70
  -9   1 -15   56.89   33.00
  -9   1 -15   55.89   30.40
 -10  -1 -15   -0.10   32.80
 -10  -1 -15   61.49   34.40
 -10  -1 -15   37.70   25.70
 -10   1 -15   -3.80   29.70
 -10   1 -15   62.59   32.40
 -12  -2  15   48.80   22.90
  12  -2 -15   64.09   26.90
 -12  -2  15   -3.30   36.50
  12   2 -15   72.09   34.50
  12   2 -15   51.49   23.00
  12   2 -15   61.29   25.80
 -11  -2  15   31.00   22.30
  11  -2 -15   50.59   28.70
 -11  -2  15   51.49   38.00
  11   2 -15   49.20   32.00
  11   2 -15   52.49   25.70
  11   2 -15   35.70   22.80
 -10  -2  15   39.40   36.90
  10  -2 -15   35.00   25.10
 -10   2  15   42.00   21.20
  10   2 -15   11.20   20.60
  10   2 -15   46.60   22.70
  10   2 -15   32.80   27.50
   9  -2 -15   19.20   20.50
  -9  -2  15   38.60   34.10
   9   2 -15   22.40   21.60
   9   2 -15   19.10   26.70
  -9   2  15   -4.70   26.00
   8  -2 -15  100.19   20.40
   8  -2 -15  105.19   29.50
  -8  -2  15   76.69   35.40
  -8   2  15   82.79   18.80
   8   2 -15   63.99   25.10
   7  -2 -15   37.40   16.80
  -7  -2  15   -0.50   28.20
   7  -2 -15   18.10   25.60
   7  -2 -15   -2.40   14.40
   7   2 -15   44.90   23.70
  -7   2  15    2.00   13.90
   7   2 -15   31.60   23.90
   6  -2 -15   28.00   15.00
   6  -2 -15   56.49   24.20
  -6  -2  15   69.59   30.00
   6  -2 -15   12.50   13.90
   6   2 -15   26.60   22.90
  -6   2  15   19.40   14.00
   6   2 -15   20.70   25.60
   5  -2 -15  288.47   40.00
  -5  -2  15  286.87   40.20
   5  -2 -15  268.87   32.60
   5   2 -15  292.97   39.60
   5   2 -15  248.08   35.80
   5   2 -15  204.98   37.50
   4  -2 -15   86.79   15.70
   4  -2 -15   49.90   22.90
   4  -2 -15   52.69   17.10
   4  -2 -15   32.20   14.30
  -4  -2  15   81.99   25.50
   4   2 -15   49.60   23.20
   4   2 -15   13.40   23.50
   4   2 -15   75.19   25.70
   3  -2 -15   38.80   17.60
  -3  -2  15   71.39   22.70
   3  -2 -15   79.69   21.40
   3  -2 -15   60.89   17.20
   3  -2 -15  111.59   25.40
   3   2 -15   60.39   25.00
   3   2 -15   88.99   22.90
   3   2 -15   65.89   26.00
  -2  -2  15   65.79   18.70
   2  -2 -15   27.20   15.40
   2  -2 -15   26.10   16.80
   2  -2 -15   50.79   22.60
   2  -2 -15   82.39   33.10
   2   2 -15   59.09   25.40
   2   2 -15   56.09   23.00
   2   2 -15   37.30   15.90
   1  -2 -15   21.30   21.50
   1  -2 -15   18.30   16.80
   1  -2 -15  -18.40   16.20
   1   2 -15    6.00   24.00
   1   2 -15  -12.70   21.80
   1   2 -15   11.00   12.10
   0  -2 -15   87.69   24.80
   0  -2 -15   78.29   22.10
   0  -2 -15  113.39   22.00
   0   2 -15   98.39   28.60
   0   2 -15  117.89   29.70
  -1  -2 -15    9.90   20.80
  -1  -2 -15   63.29   24.90
  -1  -2 -15   21.70   20.30
  -1   2 -15    3.40   24.20
  -2  -2 -15  130.99   33.70
  -2  -2 -15  113.89   27.20
  -2  -2 -15  155.48   27.70
  -2  -2 -15  164.48   30.50
   2  -2  15  134.89   23.60
  -2   2 -15  152.78   32.40
  -3  -2 -15   46.30   23.40
  -3  -2 -15   37.60   25.20
  -3  -2 -15   49.70   24.60
   3  -2  15   80.89   21.10
  -3  -2 -15   29.90   25.80
  -3   2 -15   -0.50   24.30
  -4  -2 -15   34.60   24.30
  -4  -2 -15   45.60   25.10
  -4  -2 -15   21.00   26.90
  -4  -2 -15   96.39   28.10
  -4   2 -15   62.39   21.90
  -4   2 -15   65.39   27.90
  -5  -2 -15   32.10   26.10
  -5  -2 -15   44.00   30.50
  -5  -2 -15   28.40   25.70
  -5  -2 -15   57.59   30.10
  -5   2 -15   59.29   24.00
  -5   2 -15   10.60   28.20
  -6  -2 -15   68.29   29.00
  -6  -2 -15   60.99   29.10
  -6  -2 -15   80.59   34.40
  -6  -2 -15   37.70   28.20
  -6   2 -15   49.00   41.90
  -6   2 -15  105.09   29.30
  -7  -2 -15   -6.30   27.40
  -7  -2 -15   34.40   52.99
  -7  -2 -15   53.59   28.70
  -7   2 -15  -27.30   24.90
  -7   2 -15   53.19   31.10
  -8  -2 -15   85.19   34.10
  -8  -2 -15   76.09   33.80
  -8  -2 -15   91.49   39.50
  -8   2 -15  107.19   32.70
  -8   2 -15   15.20   30.10
  -9  -2 -15  -35.10   28.20
  -9  -2 -15   51.59   34.40
  -9  -2 -15  -12.10   35.10
  -9   2 -15   37.10   29.50
  -9   2 -15   -0.30   31.60
 -10  -3  15  -35.90   37.60
 -10  -3  15  -37.20   20.90
  10  -3 -15  -22.70   24.00
  10   3 -15   -8.20   19.30
  10   3 -15   30.50   33.10
  10   3 -15   11.50   24.50
   9  -3 -15   90.09   27.90
  -9  -3  15  112.69   43.00
  -9  -3  15   75.29   32.40
   9   3 -15   91.49   28.80
   9   3 -15   80.69   24.40
   9   3 -15   62.79   33.10
   8  -3 -15   32.90   25.50
  -8  -3  15    7.50   43.60
   8   3 -15   13.90   30.90
   8   3 -15   46.50   22.90
   7  -3 -15   74.09   28.80
  -7  -3  15  140.49   37.70
   7   3 -15   93.79   25.50
   7   3 -15   84.39   34.40
   6  -3 -15   56.19   26.40
  -6  -3  15   34.90   32.20
   6   3 -15   59.29   29.90
   6   3 -15   33.00   23.20
   5  -3 -15   68.49   28.70
  -5  -3  15  129.19   32.70
   5   3 -15   75.59   33.40
   5   3 -15   82.39   24.70
  -4  -3  15  122.59   31.10
   4  -3 -15   61.89   26.40
   4   3 -15  153.18   31.80
   4   3 -15   84.59   24.60
   4   3 -15   58.29   32.00
   3  -3 -15  306.67   38.10
  -3  -3  15  196.28   34.30
   3   3 -15  228.98   42.00
   3   3 -15  212.68   34.10
   2  -3 -15   85.19   33.30
  -2  -3  15  110.29   23.80
   2  -3 -15   73.99   26.20
   2  -3 -15   46.50   18.90
   2   3 -15  107.69   32.50
   2   3 -15   38.00   25.90
   1  -3 -15  186.78   27.70
  -1  -3  15  205.08   26.90
  -1  -3  15  244.98   28.80
   1  -3 -15  260.37   33.80
   1  -3 -15  228.38   29.70
   1   3 -15  191.88   33.10
   1   3 -15  155.68   36.90
   0  -3  15  196.28   27.60
   0  -3 -15  150.48   28.80
   0  -3 -15  109.29   28.70
   0   3 -15  121.49   29.60
   0   3 -15  149.88   35.30
  -1  -3 -15  107.69   26.90
  -1  -3 -15  101.89   25.00
   1  -3  15  136.89   27.50
  -1  -3 -15   52.89   38.00
  -1   3 -15  120.49   32.90
  -2  -3 -15   99.09   37.40
  -2  -3 -15  111.89   27.50
  -2  -3 -15   90.39   26.90
   2  -3  15   78.09   28.60
  -2   3 -15   46.70   31.30
  -3  -3 -15  105.59   37.90
  -3  -3 -15  111.39   27.80
  -3  -3 -15  105.39   27.20
  -3  -3 -15   66.29   31.70
  -3   3 -15  187.68   38.40
  -4  -3 -15   16.10   24.40
  -4  -3 -15   64.19   25.40
  -4   3 -15   17.20   33.10
  -5  -3 -15  127.99   44.00
  -5  -3 -15   42.30   35.40
  -5  -3 -15  127.29   28.80
  -5  -3 -15   73.59   27.60
  -5   3 -15  133.19   36.50
   5   3  15   76.49   31.50
  -6  -3 -15   36.50   36.00
  -6  -3 -15  -23.60   35.40
  -6  -3 -15   71.99   27.40
  -6  -3 -15   50.99   36.40
  -6   3 -15  -25.40   28.80
   6   3  15   64.99   33.10
  -7  -3 -15   68.39   39.00
  -7  -3 -15   51.29   26.90
  -7  -3 -15   84.49   37.90
  -7  -3 -15  -15.80   29.60
  -7   3 -15  -34.80   32.50
   7   3  15   51.09   32.30
  -7   3 -15    3.10   31.10
   6  -4 -15  108.79   29.30
  -6  -4  15   73.79   27.20
  -6  -4  15  109.29   70.49
   6   4 -15   97.19   36.40
   5  -4 -15   24.40   26.40
  -5  -4  15   37.80   33.70
  -5  -4  15    2.80   22.30
   5   4 -15    7.80   32.50
  -4  -4  15  224.88   40.00
   4  -4 -15  234.48   36.10
   4   4 -15  165.18   29.10
   4   4 -15  190.28   41.60
   3  -4 -15   50.19   26.70
  -3  -4  15   36.70   27.00
   3   4 -15   44.00   23.10
   3   4 -15   43.10   32.00
  -2  -4  15  173.18   31.90
   2  -4 -15  229.78   34.80
   2   4 -15  184.58   43.10
   2   4 -15  191.68   31.90
  -1  -4  15   44.30   28.40
   1  -4 -15   43.70   24.20
   1  -4 -15   64.69   50.49
   1   4 -15   32.40   33.90
   1   4 -15   39.90   26.40
   0  -4 -15  111.79   52.19
   0  -4 -15  159.68   29.30
   0   4 -15   89.79   28.20
   0   4 -15  131.19   39.00
  -1  -4 -15  100.99   49.20
  -1  -4 -15   83.19   25.40
  -1   4 -15   93.09   34.90
  -1   4 -15   45.50   27.90
  -2  -4 -15   46.30   24.90
  -2  -4 -15  111.89   49.20
  -2  -4 -15   49.10   23.80
  -2   4 -15   82.89   31.30
  -2   4 -15   38.90   34.60
  -3  -4 -15    6.80   42.90
  -3  -4 -15   39.00   23.10
  -3  -4 -15   -5.40   33.50
  -3  -4 -15  -18.00   22.20
   3   4  15   28.80   33.80
  -3   4 -15   43.90   31.60
  13   0 -16   71.29   17.70
 -13   0  16   73.59   21.80
  13   0 -16   81.49   30.10
  12   0 -16  183.68   35.00
 -12   0  16  280.57   34.60
  12   0 -16  231.18   30.30
  12   0 -16  272.87   39.00
  11   0 -16  162.28   38.60
  11   0 -16  275.97   41.10
  11   0 -16  160.78   23.90
  10   0 -16  275.37   39.60
   9   0 -16  469.35   53.29
   9   0 -16  471.05   55.19
   8   0 -16  340.07   39.50
   8   0 -16  200.98   35.30
   7   0 -16  442.66   52.89
   7   0 -16  454.95   52.89
   6   0 -16  496.95   53.89
   6   0 -16  460.35   53.29
   5   0 -16 1113.99  101.99
   5   0 -16 1274.57  100.49
   5   0 -16 1055.09   98.39
   4   0 -16  701.03   68.49
   4   0 -16  750.82   85.79
   4   0 -16  712.13   68.99
   3   0 -16  924.61   82.19
   3   0 -16  934.21   81.59
   3   0 -16  830.32   80.99
   2   0 -16  687.93   65.89
   2   0 -16  699.53   66.09
   2   0 -16  661.73   64.09
   1   0 -16  317.47   41.30
   1   0 -16  382.36   40.60
   1   0 -16  325.77   40.80
   0   0 -16  472.05   50.49
   0   0 -16  408.96   49.90
   0   0 -16  401.96   43.00
  -1   0 -16  336.77   37.70
  -1   0 -16  396.76   46.90
  -1   0 -16  329.47   40.90
  -2   0 -16   78.39   26.50
  -2   0 -16   53.49   17.20
  -2   0 -16   58.79   25.20
  -2   0 -16  101.09   17.20
  -2   0 -16   52.39   16.30
  -3   0 -16  468.05   44.30
  -3   0 -16  502.45   57.79
  -3   0 -16  530.85   49.60
  -3   0 -16  505.45   44.10
  -4   0 -16  178.28   34.30
  -4   0 -16  194.08   34.60
  -4   0 -16  168.08   22.30
  -4   0 -16  171.78   20.60
  -5   0 -16  499.25   58.89
  -5   0 -16  438.76   40.40
  -5   0 -16  573.64   52.29
  -5   0 -16  455.45   40.70
  -6   0 -16  183.68   32.30
  -6   0 -16  210.28   40.80
  -7   0 -16  146.69   36.90
  -7   0 -16  113.69   31.40
  -8   0 -16   64.79   32.30
  -8   0 -16   94.59   32.40
  -9   0 -16   32.30   27.20
 -10   0 -16  129.89   38.70
 -10   0 -16   60.69   36.90
  13  -1 -16   64.69   24.30
 -13  -1  16   78.19   22.50
 -13  -1  16   54.79   41.00
  13   1 -16   75.59   33.20
  13   1 -16  111.99   27.80
  13   1 -16   55.69   20.10
 -12  -1  16  189.98   45.70
 -12  -1  16  183.28   30.50
  12  -1 -16  211.78   32.90
  12   1 -16  221.58   37.20
  12   1 -16   98.19   30.40
 -11  -1  16  244.28   47.40
  11  -1 -16  206.08   32.00
 -11  -1  16  262.47   29.30
  11  -1 -16  171.78   34.40
  11   1 -16  142.39   28.20
  11   1 -16  216.68   38.20
  11   1 -16  248.18   44.50
  10  -1 -16  298.27   37.40
  10  -1 -16  282.57   39.20
  10  -1 -16  350.76   47.40
  10   1 -16  250.67   42.20
  10   1 -16  325.07   46.50
   9  -1 -16  267.67   33.90
   9  -1 -16  302.27   39.90
  -9  -1  16  392.26   52.39
   9   1 -16  279.27   39.90
   9   1 -16  293.97   43.60
   8  -1 -16  435.06   51.29
  -8  -1  16  451.15   56.69
   8  -1 -16  424.56   47.00
   8  -1 -16  349.17   40.60
   8   1 -16  475.95   55.89
   8   1 -16  452.85   50.89
  -7  -1  16  533.05   59.99
   7  -1 -16  426.36   49.40
   7  -1 -16  442.86   43.00
   7  -1 -16  457.75   54.69
   7   1 -16  493.15   58.29
   7   1 -16  467.25   53.09
   6  -1 -16  428.46   47.30
  -6  -1  16  452.65   53.39
   6  -1 -16  442.46   41.50
   6  -1 -16  377.76   38.70
   6  -1 -16  484.05   51.89
  -6   1  16  400.96   45.70
   6   1 -16  492.35   52.59
   6   1 -16  404.56   52.79
   5  -1 -16  536.75   52.89
  -5  -1  16  623.14   62.49
   5  -1 -16  666.43   57.79
   5  -1 -16  545.65   60.79
   5   1 -16  560.64   62.89
  -5   1  16  581.44   55.59
   5   1 -16  569.44   61.89
   5   1 -16  580.74   60.89
   4  -1 -16  599.84   54.09
   4  -1 -16  593.74   57.69
   4  -1 -16  622.64   61.59
  -4   1  16  551.54   54.69
   4   1 -16  636.64   60.89
   4   1 -16  607.44   62.89
   4   1 -16  526.65   60.29
   3  -1 -16  251.07   38.40
   3  -1 -16  292.57   39.00
   3  -1 -16  214.38   32.70
   3   1 -16  248.68   36.40
   3   1 -16  311.57   39.20
  -3   1  16  252.57   32.50
   3   1 -16  285.47   37.60
   2  -1 -16  636.14   63.49
   2  -1 -16  648.54   58.69
   2  -1 -16  746.03   65.29
   2  -1 -16  722.93   62.79
   2  -1 -16  522.35   59.79
   2   1 -16  620.24   59.39
   2   1 -16  640.34   64.29
   2   1 -16  636.94   66.09
   1  -1 -16  359.36   45.80
   1  -1 -16  391.76   42.50
   1  -1 -16  422.46   48.20
   1  -1 -16  424.56   39.80
   1   1 -16  410.46   43.10
   1   1 -16  401.16   49.99
   1   1 -16  404.36   49.20
   0  -1 -16  946.21   80.39
   0  -1 -16  932.81   75.39
   0  -1 -16  917.31   81.39
   0  -1 -16  854.01   78.59
   0   1 -16  935.71   83.09
   0   1 -16  826.42   80.79
   0   1 -16  823.72   71.19
  -1  -1 -16  469.05   53.19
  -1  -1 -16  496.25   49.00
  -1  -1 -16  445.96   54.29
  -1   1 -16  525.75   55.89
  -1   1 -16  495.65   55.19
  -2  -1 -16  341.57   42.80
  -2  -1 -16  379.26   42.60
  -2  -1 -16  298.17   43.70
  -2  -1 -16  420.66   54.39
  -2   1 -16  320.27   44.40
  -3  -1 -16  740.33   79.59
  -3  -1 -16  623.74   65.09
  -3  -1 -16  620.14   62.79
  -3  -1 -16  539.75   64.49
  -3   1 -16  656.03   56.79
  -3   1 -16  608.74   66.59
  -4  -1 -16  163.18   37.20
  -4  -1 -16  150.78   30.50
  -4  -1 -16  119.39   31.90
  -4   1 -16  123.09   31.50
  -4   1 -16  125.69   27.00
  -5  -1 -16  256.77   36.20
  -5  -1 -16  262.37   40.90
   5  -1  16  170.18   34.20
  -5  -1 -16  289.87   40.60
  -5   1 -16  320.87   38.70
  -5   1 -16  278.57   42.40
  -6  -1 -16  241.78   41.70
  -6  -1 -16  242.18   39.30
  -6  -1 -16  214.48   33.80
  -6   1 -16  236.08   35.80
  -7  -1 -16  188.88   37.50
  -7  -1 -16   90.09   34.40
  -7  -1 -16   58.39   25.30
  -7   1 -16  158.88   31.90
  -7   1 -16   93.19   35.60
  -8  -1 -16  109.09   32.20
  -8  -1 -16   70.29   27.00
  -8  -1 -16  182.48   36.80
  -8   1 -16   96.99   32.10
  -8   1 -16  142.89   37.20
  -9  -1 -16   41.60   32.40
  -9  -1 -16   25.60   29.00
  -9  -1 -16   72.49   25.40
  -9   1 -16  117.89   51.39
  -9   1 -16  107.09   37.30
 -10  -1 -16   59.29   36.00
 -10  -1 -16  100.29   37.70
 -10  -1 -16   71.29   25.80
 -10   1 -16   83.89   37.60
 -10   1 -16   44.30   33.20
 -12  -2  16  -15.50   36.50
  12  -2 -16    6.00   20.90
 -12  -2  16   -8.20   19.00
  12   2 -16    7.40   22.60
  12   2 -16   38.30   23.00
  12   2 -16   -7.10   29.80
  11  -2 -16  -15.10   21.90
 -11  -2  16    8.00   37.20
  11   2 -16    1.90   23.20
  11   2 -16   -6.50   25.00
  11   2 -16   53.89   30.60
 -10  -2  16  209.98   45.00
  10  -2 -16  155.28   35.30
  10   2 -16  107.59   28.00
  10   2 -16  194.88   36.10
  10   2 -16   92.69   28.10
   9  -2 -16  112.09   22.00
   9  -2 -16  146.19   33.70
  -9  -2  16  129.49   39.00
   9   2 -16  118.39   29.40
   9   2 -16  137.89   34.80
  -9   2  16   51.89   22.50
  -8  -2  16  256.37   45.00
   8  -2 -16  194.18   28.30
   8  -2 -16  288.57   43.50
   8   2 -16  243.38   41.40
  -8   2  16  215.08   43.90
   8   2 -16  201.98   34.60
  -7  -2  16  371.76   48.70
   7  -2 -16  297.87   34.90
   7  -2 -16  352.16   43.20
   7  -2 -16  194.58   30.60
  -7   2  16  243.88   32.30
   7   2 -16  339.47   40.00
   6  -2 -16  191.68   29.40
  -6  -2  16  301.67   41.20
   6  -2 -16  241.78   36.00
   6  -2 -16  147.29   25.20
   6   2 -16  203.68   39.20
   6   2 -16  240.48   33.80
   5  -2 -16  409.56   50.69
  -5  -2  16  498.85   54.09
   5  -2 -16  404.26   49.99
   5   2 -16  415.66   50.99
   5   2 -16  342.07   49.99
   5   2 -16  433.26   51.49
  -4  -2  16  306.87   39.80
   4  -2 -16  252.17   37.10
   4  -2 -16  290.57   36.00
   4  -2 -16  254.97   31.10
   4   2 -16  327.27   40.30
   4   2 -16  337.07   41.50
   4   2 -16  286.97   44.70
   3  -2 -16  285.27   41.10
   3  -2 -16  310.77   35.90
   3  -2 -16  277.17   31.50
   3  -2 -16  243.68   31.50
  -3  -2  16  306.47   38.20
   3   2 -16  292.87   35.00
   3   2 -16  243.38   36.40
   3   2 -16  193.18   39.30
   2  -2 -16  620.84   61.29
   2  -2 -16  610.64   56.79
   2  -2 -16  489.65   53.99
   2  -2 -16  465.75   54.19
   2   2 -16  685.13   66.19
   2   2 -16  655.13   53.79
   2   2 -16  632.14   61.39
   1  -2 -16  234.98   34.10
   1  -2 -16  220.38   40.50
   1  -2 -16  190.28   29.40
   1  -2 -16  221.28   31.40
   1   2 -16  227.18   36.90
   1   2 -16  265.97   40.00
   0  -2 -16  469.95   52.59
   0  -2 -16  430.96   49.40
   0   2 -16  445.16   53.19
   0   2 -16  474.55   56.99
  -1  -2 -16  413.66   49.90
  -1  -2 -16  441.66   49.00
  -1  -2 -16  380.26   47.50
  -1   2 -16  429.26   54.99
  -2  -2 -16  215.68   34.60
   2  -2  16  205.48   27.20
  -2  -2 -16  202.68   31.70
  -2  -2 -16  156.48   36.80
  -2  -2 -16  163.28   32.50
  -2   2 -16  210.68   37.90
   3  -2  16  258.67   32.40
  -3  -2 -16  283.27   41.00
  -3  -2 -16  192.38   35.00
  -3  -2 -16  255.67   37.30
  -3  -2 -16  293.87   42.20
  -3   2 -16  142.99   35.80
  -4  -2 -16  298.87   43.50
   4  -2  16  199.58   50.19
  -4  -2 -16  283.57   39.70
  -4  -2 -16  296.67   40.40
  -4  -2 -16  266.77   43.60
  -4   2 -16  182.88   40.60
  -4   2 -16  279.17   34.90
  -5  -2 -16  122.69   33.30
  -5  -2 -16  200.58   35.40
  -5  -2 -16  172.88   37.40
  -5  -2 -16  128.69   30.70
  -5   2 -16  125.99   34.50
  -5   2 -16  140.69   29.30
  -6  -2 -16  116.79   33.90
  -6  -2 -16  134.89   34.00
  -6  -2 -16   86.29   30.50
  -6  -2 -16  178.68   54.59
  -6   2 -16  114.69   29.40
  -6   2 -16  117.79   36.10
  -7  -2 -16   74.19   31.20
  -7  -2 -16  142.49   36.20
  -7  -2 -16   50.09   32.10
  -7   2 -16   71.99   29.70
  -7   2 -16   55.29   34.20
  -8  -2 -16   79.99   37.70
  -8  -2 -16   23.90   31.10
  -8  -2 -16   53.99   32.70
  -8   2 -16   59.39   33.90
  -8   2 -16   48.90   34.50
  -9  -2 -16   34.60   32.60
  -9   2 -16   60.29   34.00
  -9   2 -16   65.09   32.90
  -9  -3  16  114.59   42.30
   9  -3 -16   43.10   25.20
   9   3 -16   89.39   28.40
   9   3 -16   80.09   35.60
   9   3 -16  103.99   25.50
   8  -3 -16   77.79   29.20
  -8  -3  16  165.48   72.69
   8   3 -16  113.79   26.00
   8   3 -16  115.29   37.00
   7  -3 -16   89.89   28.40
  -7  -3  16  138.39   38.60
   7   3 -16   90.49   36.20
   7   3 -16  159.98   28.40
   6  -3 -16  104.69   32.40
  -6  -3  16   94.79   34.20
   6   3 -16   64.89   29.80
   5  -3 -16  242.48   39.50
  -5  -3  16  250.87   41.30
   5   3 -16  220.78   34.50
   5   3 -16  199.18   42.20
   4  -3 -16  153.48   31.70
  -4  -3  16   86.49   29.70
   4   3 -16  134.79   37.10
   4   3 -16  135.69   29.10
   4   3 -16  179.98   32.10
   3  -3 -16  361.66   44.10
   3  -3 -16  290.47   33.50
  -3  -3  16  294.17   42.90
   3  -3 -16  319.27   35.10
   3   3 -16  354.56   49.50
   3   3 -16  328.87   41.80
  -2  -3  16  160.58   26.60
   2  -3 -16  183.58   25.10
   2  -3 -16  185.68   33.00
   2  -3 -16  112.09   23.20
   2   3 -16  133.49   31.10
   1  -3 -16  373.46   44.70
  -1  -3  16  342.77   35.00
   1   3 -16  474.65   78.19
   1   3 -16  305.67   42.60
   0  -3 -16  191.78   29.40
   0  -3 -16  232.48   35.80
   0   3 -16  232.28   62.89
   0   3 -16  188.78   34.70
  -1  -3 -16  213.98   33.90
  -1  -3 -16  187.58   61.19
   1  -3  16  215.48   32.90
  -1  -3 -16  232.28   36.00
  -1   3 -16  199.48   36.20
   2  -3  16  101.99   41.70
  -2  -3 -16   48.50   29.90
  -2  -3 -16   97.69   27.40
  -2  -3 -16   72.99   25.00
  -2   3 -16  107.79   35.40
  -3  -3 -16  148.09   31.30
  -3  -3 -16   73.09   33.10
  -3  -3 -16  108.99   28.90
  -3  -3 -16  143.59   54.39
  -3   3 -16   55.69   31.10
  -4  -3 -16   71.19   28.90
  -4  -3 -16   48.70   32.90
  -4  -3 -16  122.49   30.70
  -4  -3 -16   90.29   41.00
  -4   3 -16  135.59   35.70
  -5  -3 -16   60.49   27.70
  -5  -3 -16   59.59   37.10
  -5  -3 -16   -0.50   24.50
  -5  -3 -16   27.20   33.90
  -5   3 -16   39.30   33.70
  -6  -3 -16   35.00   29.40
  -6  -3 -16   36.30   27.80
  -6  -3 -16   75.89   39.60
  -6  -3 -16   76.09   41.10
  -6   3 -16   26.40   31.30
   4  -4 -16  190.58   33.00
  -4  -4  16   33.70   24.10
  -4  -4  16  111.49   31.80
   4   4 -16  119.49   37.10
   4   4 -16   93.49   26.10
   3  -4 -16   81.09   31.20
  -3  -4  16   85.69   29.20
   3   4 -16  103.19   38.00
   3   4 -16   95.79   26.40
   2  -4 -16  174.58   31.30
  -2  -4  16  148.09   28.50
   2   4 -16  118.79   37.90
   2   4 -16   90.29   28.90
   1  -4 -16  128.59   50.29
   1  -4 -16  120.59   29.70
   1   4 -16  103.19   30.50
   1   4 -16   79.19   37.20
   0  -4 -16   61.89   46.50
   0  -4 -16   60.99   26.80
   0   4 -16   54.49   28.40
   0   4 -16   95.29   37.80
  -1  -4 -16  130.69   48.30
  -1  -4 -16  143.39   30.50
  -1   4 -16   97.89   35.40
  -1   4 -16  146.79   41.80
 -13   0  17  -27.50   18.50
  13   0 -17  -24.10   19.90
  13   0 -17   -6.50   14.50
  13   0 -17   -2.00   24.60
  12   0 -17   10.50   14.90
  12   0 -17   14.40   22.70
 -12   0  17    4.00   16.30
  12   0 -17   -9.40   21.20
  11   0 -17   14.30   14.60
  11   0 -17    0.40   20.20
  11   0 -17   -7.50   22.30
  10   0 -17   14.40   26.70
  10   0 -17   -4.80   21.30
   9   0 -17    1.80   24.20
   8   0 -17  -12.20   21.30
   8   0 -17   -2.30   22.80
   7   0 -17  -13.60   22.10
   7   0 -17   -8.20   20.90
   6   0 -17   -0.40   21.90
   6   0 -17   -1.80   24.00
   5   0 -17    6.90   26.20
   5   0 -17  -14.50   19.80
   4   0 -17   25.40   23.10
   4   0 -17   -1.10   21.40
   4   0 -17  -22.70   20.40
   3   0 -17   29.90   20.90
   3   0 -17    8.60   22.90
   3   0 -17   15.80   22.70
   2   0 -17   -1.00   19.20
   2   0 -17   33.30   22.90
   2   0 -17   24.30   24.10
   1   0 -17   12.60   19.00
   1   0 -17    1.80   21.20
   1   0 -17   47.70   24.30
   0   0 -17   -1.50   22.20
   0   0 -17   -1.50   21.10
   0   0 -17   -6.90   15.30
  -1   0 -17  -12.80   22.30
  -1   0 -17   -8.80   14.80
  -1   0 -17   -3.40   26.10
  -2   0 -17    3.40   13.80
  -2   0 -17  -23.40   14.40
  -2   0 -17  -23.90   15.90
  -2   0 -17    4.30   23.40
  -2   0 -17  -18.60   26.30
  -3   0 -17  -21.80   25.50
  -3   0 -17   -9.40   12.30
  -3   0 -17  -33.80   16.40
  -3   0 -17  -14.10   12.40
  -4   0 -17    0.80   10.90
  -4   0 -17   10.30   26.50
  -4   0 -17  -17.10   19.30
  -5   0 -17   -1.50   28.60
  -5   0 -17    1.60   21.60
  -6   0 -17   16.60   30.00
  -6   0 -17  -35.40   21.80
  -7   0 -17  -47.00   26.50
  -7   0 -17   35.50   26.20
  -8   0 -17  -15.80   32.80
  -8   0 -17   29.90   28.80
  -9   0 -17   46.70   31.00
  -9   0 -17  -14.40   33.80
  12  -1 -17    2.60   21.90
 -12  -1  17  -51.39   29.70
 -12  -1  17  -35.90   12.70
  12   1 -17  -31.60   24.40
  12   1 -17    6.40   22.60
  12   1 -17  -18.00   21.40
  11  -1 -17   26.20   22.10
 -11  -1  17   19.20   35.30
  11  -1 -17    0.70   23.50
  11   1 -17   33.20   19.30
  11   1 -17  -18.20   25.90
  11   1 -17  -10.70   22.40
  10  -1 -17   61.79   21.70
  10  -1 -17   65.49   29.30
 -10  -1  17  102.89   37.60
  10   1 -17  105.79   32.70
  10   1 -17   67.39   27.60
   9  -1 -17   -0.10   19.30
  -9  -1  17  -13.30   29.30
   9  -1 -17    0.50   14.40
   9  -1 -17   -0.50   24.30
   9   1 -17    3.30   24.20
   9   1 -17   -6.80   27.50
   8  -1 -17   50.49   22.20
  -8  -1  17   29.20   31.10
   8  -1 -17   51.19   15.00
   8  -1 -17   41.30   16.10
   8   1 -17   64.69   29.00
   8   1 -17   16.20   25.30
  -7  -1  17   -0.30   27.00
   7  -1 -17   10.10   18.30
   7  -1 -17    2.00   22.90
   7  -1 -17   10.20   14.90
   7   1 -17   15.70   24.40
   7   1 -17   45.20   26.00
   6  -1 -17   11.80   23.20
   6  -1 -17   40.40   15.90
  -6  -1  17   41.50   26.60
   6  -1 -17   20.90   20.40
   6   1 -17   48.00   27.30
   6   1 -17   -3.70   25.00
   5  -1 -17   16.30   19.40
   5  -1 -17   12.00   25.30
   5  -1 -17   14.40   24.80
   5   1 -17  -18.70   24.20
   5   1 -17   18.80   23.30
   5   1 -17   49.00   27.70
   4  -1 -17  161.68   24.00
   4  -1 -17  159.18   29.10
   4  -1 -17  142.09   34.40
   4   1 -17  113.39   30.70
   4   1 -17  122.19   29.20
   4   1 -17   72.59   28.00
   3  -1 -17   83.19   24.00
   3  -1 -17   50.69   18.00
   3  -1 -17   28.50   24.00
   3   1 -17   31.90   25.00
   3   1 -17   27.00   21.60
   3   1 -17   12.60   24.70
   2  -1 -17  107.29   25.90
   2  -1 -17  114.09   24.50
   2  -1 -17   61.89   21.90
   2  -1 -17   69.59   25.70
   2   1 -17  136.79   30.80
   2   1 -17   96.69   29.60
   2   1 -17   80.79   22.50
   1  -1 -17  106.59   17.60
   1  -1 -17  122.89   27.40
   1  -1 -17  135.99   27.70
   1  -1 -17   86.79   27.10
   1   1 -17  116.49   29.40
   1   1 -17  146.39   28.90
   0  -1 -17   63.99   23.20
   0  -1 -17   47.60   22.30
   0  -1 -17   69.39   30.00
   0  -1 -17   93.59   19.80
   0   1 -17   17.80   27.00
   0   1 -17   74.19   13.10
   0   1 -17   40.30   27.20
  -1  -1 -17   30.70   19.20
  -1  -1 -17   37.50   22.70
  -1  -1 -17   15.90   22.00
  -1  -1 -17   15.70   19.90
  -1   1 -17    7.80   24.60
  -1   1 -17  -11.70   23.10
  -2  -1 -17   30.80   25.50
  -2  -1 -17   -2.10   34.80
  -2  -1 -17   12.40   25.40
  -2  -1 -17   -8.80   22.70
  -2   1 -17    2.40   24.60
  -3  -1 -17   40.50   23.60
  -3  -1 -17   66.09   24.50
  -3  -1 -17   42.20   29.90
  -3  -1 -17   58.59   29.80
  -3   1 -17   20.70   26.60
  -3   1 -17   45.10   17.30
  -4  -1 -17   55.69   28.30
  -4  -1 -17   30.50   26.20
  -4  -1 -17   55.09   24.10
  -4  -1 -17   34.70   27.10
  -4   1 -17   99.49   32.10
  -5  -1 -17   23.60   27.50
  -5  -1 -17    7.40   29.70
  -5  -1 -17   23.70   22.00
  -5   1 -17   29.50   49.90
  -5   1 -17   56.39   21.70
  -6  -1 -17  108.99   26.00
  -6  -1 -17   99.49   34.00
  -6  -1 -17   46.30   29.70
  -6   1 -17   59.99   32.00
  -6   1 -17   80.79   27.30
  -7  -1 -17  -23.80   27.50
  -7  -1 -17   32.40   29.50
  -7  -1 -17  -20.90   21.10
  -7   1 -17    8.60   30.20
  -7   1 -17  -22.60   24.10
  -8  -1 -17   50.79   34.90
  -8  -1 -17   21.90   32.70
  -8  -1 -17  -12.40   22.60
  -8   1 -17   40.30   33.50
  -8   1 -17   11.30   28.10
  -9  -1 -17   -8.70   33.30
  -9  -1 -17   24.30   32.10
  -9  -1 -17  -15.10   22.60
  -9   1 -17  -19.10   29.30
  -9   1 -17    4.20   33.30
  11  -2 -17   14.20   20.60
 -11  -2  17   62.49   39.70
  11   2 -17   54.79   24.80
  11   2 -17   78.89   26.70
  11   2 -17   27.10   29.40
  10  -2 -17   52.29   26.80
 -10  -2  17  -36.80   32.30
  10   2 -17  -10.10   27.10
   9  -2 -17   52.99   29.60
   9  -2 -17   77.59   19.70
   9   2 -17   63.69   31.00
   9   2 -17   48.30   23.80
   8  -2 -17   68.79   30.40
   8  -2 -17   21.80   17.10
  -8  -2  17  -15.40   29.30
  -8   2  17   -6.40   18.80
   8   2 -17   11.10   27.60
   8   2 -17   10.90   24.70
   7  -2 -17  135.89   22.90
  -7  -2  17  137.99   36.70
   7  -2 -17  165.08   34.80
   7  -2 -17  118.19   22.00
   7   2 -17  133.89   31.10
   7   2 -17   76.09   32.90
  -7   2  17   91.09   21.60
   6  -2 -17    4.30   25.00
  -6  -2  17   26.10   26.00
   6  -2 -17    4.20   14.40
   6  -2 -17   12.10   17.10
   6   2 -17    1.30   26.00
   6   2 -17   -8.20   33.30
   5  -2 -17  118.99   31.10
  -5  -2  17  174.48   34.00
   5  -2 -17  144.69   25.40
   5   2 -17  153.88   35.20
   5   2 -17  182.28   37.40
   5   2 -17  152.68   33.20
  -4  -2  17   33.30   22.80
   4  -2 -17   20.80   17.00
   4  -2 -17   26.60   17.10
   4  -2 -17    0.90   16.50
   4  -2 -17   19.20   26.00
   4   2 -17   32.70   29.30
   4   2 -17   22.80   26.10
   4   2 -17    5.10   26.10
   3  -2 -17   61.79   20.80
   3  -2 -17  115.99   23.70
   3  -2 -17   64.19   26.60
   3  -2 -17   44.10   17.70
   3   2 -17   88.99   30.00
   3   2 -17  118.19   23.50
   3   2 -17  107.49   29.50
   2  -2 -17   82.89   30.90
   2  -2 -17  114.49   23.40
   2  -2 -17   79.79   21.30
   2   2 -17   75.19   18.70
   2   2 -17   86.29   31.20
   2   2 -17   70.39   27.30
   1  -2 -17  180.98   31.80
   1  -2 -17  113.19   23.70
   1  -2 -17  185.38   31.10
   1   2 -17  204.98   35.60
   1   2 -17  180.38   37.70
   0  -2 -17   49.10   21.50
   0  -2 -17   53.79   26.70
   0  -2 -17   45.40   22.10
   0   2 -17   44.20   28.40
   0   2 -17   43.40   26.80
  -1  -2 -17  104.89   27.80
  -1  -2 -17  146.29   29.70
  -1  -2 -17  120.99   30.90
  -1   2 -17  117.39   33.10
  -1   2 -17   88.29   30.00
  -2  -2 -17   46.50   26.50
  -2  -2 -17   -0.50   24.60
  -2  -2 -17  -28.40   26.00
  -2  -2 -17   -9.10   22.90
  -2   2 -17   38.30   28.80
  -3  -2 -17   49.00   28.00
  -3  -2 -17    9.60   23.00
  -3  -2 -17   16.00   24.70
  -3  -2 -17   11.90   26.00
   3  -2  17   20.20   21.30
  -3   2 -17   37.60   61.29
  -4  -2 -17   70.29   30.20
  -4  -2 -17   81.49   31.20
  -4  -2 -17   88.39   30.10
  -4  -2 -17   86.59   30.10
  -4   2 -17   47.40   31.20
  -4   2 -17  120.19   23.20
  -5  -2 -17   -1.70   26.90
  -5  -2 -17  -16.30   27.70
  -5  -2 -17   71.59   31.40
  -5  -2 -17  -16.30   26.10
  -5   2 -17   26.50   34.00
  -5   2 -17   34.40   22.60
  -6  -2 -17   -6.30   27.90
  -6  -2 -17   68.99   37.80
  -6  -2 -17   54.79   31.70
  -6   2 -17   34.30   25.30
  -6   2 -17   62.79   32.30
  -7  -2 -17  -22.90   27.70
  -7  -2 -17  -36.80   29.40
  -7  -2 -17   38.90   32.90
  -7  -2 -17   -1.60   30.30
  -7   2 -17  -32.20   24.50
  -7   2 -17  -18.60   30.60
  -8  -2 -17  -17.90   29.20
  -8  -2 -17  -51.79   27.90
  -8  -2 -17  -35.90   35.50
  -8  -2 -17  -13.50   29.40
  -8   2 -17  -38.80   45.60
  -8   2 -17  -26.80   30.60
   9  -3 -17   45.60   27.10
  -9  -3  17   62.29   37.30
   9   3 -17   30.70   23.80
   9   3 -17   19.20   34.10
   8  -3 -17   14.70   24.10
  -8  -3  17   83.09   38.00
   8   3 -17   61.49   34.00
   8   3 -17   55.99   24.40
   7  -3 -17   22.50   26.80
  -7  -3  17   89.29   35.00
   7   3 -17   34.10   24.50
   7   3 -17   59.99   33.60
   6  -3 -17  161.68   32.90
  -6  -3  17  168.48   37.40
   6   3 -17  132.29   37.80
   6   3 -17  172.68   29.10
   5  -3 -17   28.00   28.20
  -5  -3  17   31.70   30.70
   5   3 -17   50.19   32.70
   5   3 -17   59.59   26.90
   4  -3 -17  165.98   36.80
  -4  -3  17  225.58   36.30
   4   3 -17  207.48   35.40
   4   3 -17  188.58   33.60
   4   3 -17  201.18   41.60
   3  -3 -17   48.20   32.30
   3  -3 -17   18.40   15.30
  -3  -3  17   -2.50   33.90
   3  -3 -17   86.89   27.50
   3   3 -17  -16.00   30.90
   3   3 -17  -36.10   23.90
  -2  -3  17  103.89   20.70
   2  -3 -17   54.39   31.80
   2  -3 -17   64.99   28.10
   2   3 -17  108.89   30.40
   2   3 -17   54.19   33.60
   1  -3 -17   14.60   19.20
   1  -3 -17    2.60   25.10
   1   3 -17   -0.20   24.60
   1   3 -17   42.60   32.60
   0  -3 -17  106.49   28.90
   0  -3 -17   29.20   21.60
   0   3 -17   59.49   27.90
   0   3 -17    5.40   29.50
  -1  -3 -17    8.70   25.90
  -1  -3 -17    1.20   27.30
  -1  -3 -17  -46.30   34.30
  -1  -3 -17   -0.20   21.50
   1  -3  17  -21.20   27.40
  -1   3 -17   31.80   29.90
  -1   3 -17  -22.50   29.70
  -2  -3 -17   40.40   36.10
  -2  -3 -17   51.39   24.70
  -2  -3 -17   63.19   26.10
  -2  -3 -17   39.60   31.50
  -2   3 -17   98.39   34.80
  -3  -3 -17    8.70   26.40
  -3  -3 -17   -6.90   23.50
  -3  -3 -17   27.90   36.40
  -3  -3 -17   -7.00   35.50
  -3   3 -17  -23.40   28.90
  -4  -3 -17   60.69   38.60
  -4  -3 -17   19.40   26.10
  -4  -3 -17   40.00   26.40
  -4  -3 -17   17.00   31.40
  -4   3 -17   29.80   32.50
  -5  -3 -17   24.50   26.90
  -5  -3 -17  -16.00   26.20
  -5  -3 -17  -28.60   30.90
  -5  -3 -17   75.99   39.50
  -5   3 -17  -26.80   30.80
  12   0 -18   86.39   19.10
  12   0 -18  141.19   33.10
  12   0 -18   55.69   27.30
  11   0 -18  213.28   36.90
  11   0 -18  189.28   36.00
  11   0 -18  205.38   28.20
  10   0 -18   37.00   27.90
  10   0 -18   37.80   26.90
   9   0 -18  519.05   59.19
   9   0 -18  488.45   57.19
   8   0 -18   51.49   25.40
   7   0 -18  707.93   72.29
   7   0 -18  723.83   72.69
   6   0 -18  239.28   39.70
   6   0 -18  231.68   35.10
   5   0 -18  483.45   57.09
   5   0 -18  557.64   60.19
   4   0 -18  324.97   45.70
   4   0 -18  391.96   49.10
   4   0 -18  383.86   46.70
   3   0 -18  786.72   74.39
   3   0 -18  813.72   77.49
   3   0 -18  663.33   73.49
   2   0 -18  390.86   51.29
   2   0 -18  399.36   48.20
   2   0 -18  456.75   52.29
   1   0 -18  735.83   73.29
   1   0 -18  703.03   67.19
   1   0 -18  783.32   72.99
   0   0 -18  362.56   38.10
   0   0 -18  278.37   43.00
   0   0 -18  263.87   42.70
  -1   0 -18  882.91   76.79
  -1   0 -18  915.41   85.99
  -1   0 -18  909.31   85.29
  -2   0 -18  275.17   38.40
  -2   0 -18  278.57   31.50
  -2   0 -18  335.47   45.60
  -2   0 -18  271.37   41.40
  -3   0 -18  437.76   43.20
  -3   0 -18  384.36   37.90
  -3   0 -18  300.27   47.70
  -3   0 -18  467.55   58.09
  -3   0 -18  428.76   37.20
  -4   0 -18   83.69   33.90
  -4   0 -18   46.50   22.40
  -5   0 -18  186.98   39.50
  -5   0 -18  137.99   29.20
  -6   0 -18   20.40   25.90
  -6   0 -18   45.90   32.70
  -7   0 -18  411.26   51.29
  -7   0 -18  329.47   51.29
  -8   0 -18  120.09   33.70
  -8   0 -18   81.09   36.40
  -9   0 -18   46.50   32.90
  -9   0 -18   48.20   34.90
 -12  -1  18  172.08   44.90
  12  -1 -18  120.29   33.20
  12   1 -18   83.29   24.20
  12   1 -18   95.49   29.30
  12   1 -18   81.89   31.60
  11  -1 -18   33.50   26.60
  11  -1 -18   12.70   19.60
 -11  -1  18   46.40   35.60
  11   1 -18    7.50   23.20
  11   1 -18    9.00   27.00
  11   1 -18  -10.20   34.80
 -10  -1  18  113.09   40.70
  10  -1 -18  145.59   38.20
  10  -1 -18  172.78   31.30
  10   1 -18  141.99   33.20
  10   1 -18  160.78   37.90
  -9  -1  18  147.09   36.50
   9  -1 -18   83.49   18.60
   9  -1 -18   71.59   29.50
   9  -1 -18   81.49   25.80
   9   1 -18   74.89   29.80
   9   1 -18   70.29   30.20
   8  -1 -18  528.35   47.90
  -8  -1  18  519.35   63.59
   8  -1 -18  443.36   55.89
   8  -1 -18  435.96   53.09
   8   1 -18  518.75   58.89
   8   1 -18  475.95   60.19
   7  -1 -18  221.08   33.80
   7   1 -18  216.98   38.50
   7   1 -18  225.78   41.00
   6  -1 -18  652.53   58.49
   6  -1 -18  604.84   66.99
   6  -1 -18  630.54   64.19
   6   1 -18  620.04   67.79
   6   1 -18  713.03   70.49
   5  -1 -18  262.27   39.20
   5  -1 -18  201.18   31.40
   5  -1 -18  295.47   31.80
   5   1 -18  270.77   43.60
   5   1 -18  212.48   38.10
   5   1 -18  263.87   38.20
   4  -1 -18  725.23   73.79
   4  -1 -18  736.03   66.19
   4  -1 -18  752.82   70.79
   4   1 -18  744.33   75.39
   4   1 -18  736.13   73.49
   3  -1 -18  165.88   30.70
   3  -1 -18  181.98   34.70
   3   1 -18  190.48   31.40
   3   1 -18  235.58   37.20
   3   1 -18  219.68   37.30
   2  -1 -18  671.63   64.79
   2  -1 -18  643.94   66.69
   2   1 -18  587.54   60.89
   2   1 -18  698.43   70.19
   2   1 -18  676.33   68.19
   1  -1 -18  190.58   30.20
   1  -1 -18  129.39   31.90
   1  -1 -18  172.98   30.30
   1   1 -18  167.88   36.30
   1   1 -18  141.69   33.90
   0  -1 -18  522.15   46.50
   0  -1 -18  471.55   56.29
   0  -1 -18  461.35   54.39
   0  -1 -18  452.65   52.19
   0   1 -18  443.76   39.60
   0   1 -18  470.15   57.89
   0   1 -18  496.65   57.59
  -1  -1 -18  184.68   28.80
  -1  -1 -18  164.98   29.40
  -1  -1 -18  228.98   39.20
  -1  -1 -18  219.38   35.00
  -1   1 -18  188.08   38.10
  -1   1 -18  229.98   37.50
  -2  -1 -18  579.54   60.59
  -2  -1 -18  338.57   43.50
  -2  -1 -18  417.86   51.79
  -2  -1 -18  357.46   49.70
  -2   1 -18  277.77   44.40
  -2   1 -18  335.57   49.30
  -3  -1 -18  257.37   43.30
  -3  -1 -18  266.37   43.00
  -3  -1 -18  369.26   43.90
  -3  -1 -18  352.46   43.20
  -3   1 -18  291.37   45.80
  -4  -1 -18  166.98   32.60
  -4  -1 -18  128.59   34.60
  -4  -1 -18  203.58   31.20
  -4  -1 -18  166.48   38.80
  -4   1 -18  173.78   38.00
  -5  -1 -18   25.30   31.20
  -5  -1 -18    9.70   21.70
  -5  -1 -18    0.30   24.00
  -5  -1 -18   67.29   31.50
  -5   1 -18   30.80   21.50
  -5   1 -18   43.60   31.70
  -6  -1 -18  192.98   41.00
  -6  -1 -18  168.68   30.60
  -6  -1 -18  224.78   37.10
  -6   1 -18  155.88   31.40
  -6   1 -18  187.48   43.00
  -7  -1 -18    5.10   33.60
  -7  -1 -18   40.20   28.30
  -7  -1 -18  -34.90   20.80
  -7   1 -18  -22.80   30.50
  -7   1 -18    6.80   25.10
  -8  -1 -18   -6.00   22.20
  -8  -1 -18   23.80   31.40
  -8  -1 -18   22.70   28.70
  -8   1 -18   67.59   36.80
  -8   1 -18   41.50   28.60
 -10  -2  18  105.09   39.80
  10  -2 -18   92.49   30.50
  10   2 -18   80.89   27.30
  10   2 -18   91.69   33.80
   9  -2 -18  187.28   38.90
   9  -2 -18  166.28   26.40
  -9  -2  18  183.58   43.50
   9   2 -18  195.28   41.10
   9   2 -18  152.38   37.00
  -8  -2  18  101.89   35.30
   8  -2 -18   77.89   21.50
   8  -2 -18   58.89   30.90
   8   2 -18   94.99   30.90
   8   2 -18   65.49   31.20
   7  -2 -18  287.27   37.00
  -7  -2  18  343.67   48.20
   7  -2 -18  301.17   45.50
   7  -2 -18  221.98   32.40
   7   2 -18  357.56   42.40
   7   2 -18  329.37   47.90
   6  -2 -18   58.09   19.60
   6  -2 -18  112.29   32.60
  -6  -2  18  104.19   32.70
   6  -2 -18   83.89   22.60
   6   2 -18   95.89   30.60
   6   2 -18  136.29   35.60
   5  -2 -18  426.76   58.79
   5  -2 -18  368.26   43.10
  -5  -2  18  557.94   56.69
   5  -2 -18  423.66   47.30
   5   2 -18  493.45   55.49
   5   2 -18  389.76   55.39
   4  -2 -18   82.69   27.60
   4  -2 -18   46.00   20.90
  -4  -2  18   91.49   25.10
   4  -2 -18   62.29   20.10
   4  -2 -18   35.20   21.40
   4   2 -18   77.69   28.60
   4   2 -18  109.99   54.49
   3  -2 -18  495.95   51.59
   3  -2 -18  341.07   46.90
   3  -2 -18  493.15   57.59
   3   2 -18  493.35   90.59
   3   2 -18  500.15   57.39
   3   2 -18  530.95   49.60
   2  -2 -18  170.28   37.80
   2  -2 -18  201.48   38.80
   2  -2 -18  221.88   31.90
   2   2 -18  210.18   41.60
   2   2 -18  175.98   35.00
   2   2 -18  170.58   24.40
   1  -2 -18  375.16   46.00
   1  -2 -18  442.76   44.60
   1  -2 -18  279.07   39.60
   1  -2 -18  441.76   51.89
   1   2 -18  333.37   45.30
   1   2 -18  436.86   55.79
   0  -2 -18  218.88   37.20
   0  -2 -18  147.09   29.00
   0  -2 -18  195.98   31.80
   0   2 -18  175.58   57.59
   0   2 -18  181.38   36.60
  -1  -2 -18  426.76   50.99
  -1  -2 -18  362.96   47.50
  -1  -2 -18  441.36   56.29
  -1  -2 -18  409.86   49.00
  -1   2 -18  419.46   75.29
  -1   2 -18  262.27   45.80
  -2  -2 -18   88.29   30.50
  -2  -2 -18   47.20   30.10
  -2  -2 -18   32.70   26.10
  -2  -2 -18   64.89   25.90
  -2   2 -18   75.69   33.30
  -3  -2 -18  138.19   32.90
  -3  -2 -18  141.39   35.10
  -3  -2 -18  162.88   35.40
  -3  -2 -18   98.69   31.00
  -3   2 -18  159.08   38.20
  -4  -2 -18   27.30   30.90
  -4  -2 -18    6.20   30.70
  -4  -2 -18   73.49   30.50
  -4  -2 -18   56.29   30.40
  -4   2 -18   60.29   34.00
  -5  -2 -18   21.80   31.40
  -5  -2 -18  141.39   36.40
  -5  -2 -18   73.19   32.40
  -5  -2 -18   72.09   32.30
  -5   2 -18   90.59   33.70
  -5   2 -18  100.39   25.80
  -6  -2 -18   94.49   32.80
  -6  -2 -18  -49.60   27.00
  -6  -2 -18   87.79   35.50
  -6  -2 -18   34.40   31.70
  -6   2 -18   42.10   26.50
  -6   2 -18  130.69   37.10
  -7  -2 -18   27.10   31.90
  -7  -2 -18   80.19   37.90
  -7  -2 -18    7.50   32.70
  -7  -2 -18   39.50   31.40
  -7   2 -18   30.60   32.00
  -7   2 -18   84.59   29.90
   8  -3 -18  175.18   35.70
  -8  -3  18  137.29   40.30
   8   3 -18  172.38   43.40
   8   3 -18  111.69   29.10
   7  -3 -18    9.20   25.20
  -7  -3  18   60.09   35.00
   7   3 -18   53.89   40.60
   7   3 -18   15.90   24.20
   6  -3 -18  200.78   37.50
  -6  -3  18  199.18   38.70
   6   3 -18  226.68   47.50
   6   3 -18  172.28   33.80
   5  -3 -18  108.49   32.10
  -5  -3  18   81.39   31.90
   5   3 -18   97.49   37.80
   5   3 -18   38.40   27.80
  -4  -3  18  224.38   32.90
   4  -3 -18  189.28   34.70
   4   3 -18  133.99   33.30
   4   3 -18   99.79   37.70
  -3  -3  18   16.00   31.90
   3  -3 -18   40.20   26.90
   3  -3 -18   71.99   51.09
   3   3 -18   84.69   36.60
   3   3 -18   44.30   27.30
   2  -3 -18  299.17   48.60
   2  -3 -18  133.69   27.10
   2   3 -18  158.88   40.60
   2   3 -18  146.39   33.20
   1  -3 -18   38.10   28.60
   1  -3 -18   28.50   22.60
   1   3 -18   89.79   35.30
   1   3 -18   40.00   30.30
   0  -3 -18  175.58   49.00
   0  -3 -18  170.38   34.30
   0  -3 -18   94.39   26.60
   0   3 -18   71.89   39.50
   0   3 -18  170.88   38.90
  -1  -3 -18    0.90   22.30
  -1  -3 -18   17.70   28.80
  -1  -3 -18   -9.30   37.30
  -1  -3 -18   67.09   29.60
  -1   3 -18   32.70   31.70
  -1   3 -18   45.00   28.90
  -2  -3 -18  175.28   34.50
  -2  -3 -18  159.88   32.60
  -2  -3 -18  158.38   40.80
  -2   3 -18  164.38   43.20
  -2   3 -18   86.69   34.20
  -3  -3 -18    8.30   31.50
  -3  -3 -18   45.90   43.30
  -3  -3 -18   15.90   25.70
  -3  -3 -18   82.39   36.40
  -3   3 -18   79.99   38.40
  -4  -3 -18   30.40   38.10
  -4  -3 -18  218.88   47.10
  -4  -3 -18  154.38   42.80
  -4  -3 -18  140.69   41.00
  -4   3 -18  112.09   37.10
  11   0 -19   -2.10   26.20
  11   0 -19   10.80   23.60
  11   0 -19  -14.30   14.20
  10   0 -19   28.60   27.50
  10   0 -19   16.30   24.60
   9   0 -19  -34.60   26.90
   9   0 -19  -34.80   24.50
   8   0 -19   15.50   25.90
   8   0 -19   10.50   28.30
   7   0 -19   -2.10   22.70
   7   0 -19   26.10   28.60
   6   0 -19    0.60   26.10
   6   0 -19   -4.90   25.80
   5   0 -19   68.09   23.50
   5   0 -19   -7.10   27.60
   4   0 -19   15.90   25.40
   4   0 -19   12.20   29.80
   3   0 -19   -6.10   24.10
   3   0 -19  -13.70   23.30
   3   0 -19   19.20   26.80
   2   0 -19   -3.70   21.10
   2   0 -19   14.90   24.90
   2   0 -19  -25.70   22.60
   1   0 -19   27.00   26.60
   1   0 -19    2.70   25.90
   1   0 -19   46.50   21.00
   0   0 -19   21.10   17.80
   0   0 -19   -9.80   27.80
   0   0 -19   34.00   26.90
  -1   0 -19   21.30   17.60
  -1   0 -19   21.70   28.30
  -1   0 -19   11.90   16.90
  -1   0 -19  -30.30   25.80
  -2   0 -19  -23.10   25.70
  -2   0 -19    5.90   27.70
  -2   0 -19    1.50   13.70
  -3   0 -19   24.40   35.00
  -3   0 -19  -52.09   52.49
  -3   0 -19    9.50   12.10
  -3   0 -19   -0.90   11.10
  -3   0 -19   -7.80   16.50
  -4   0 -19  -14.40   18.50
  -4   0 -19   26.90   32.40
  -5   0 -19   47.70   33.30
  -5   0 -19   34.10   22.70
  -6   0 -19  -21.30   32.10
  -6   0 -19   25.90   24.30
  -7   0 -19   68.39   35.00
  -7   0 -19   -1.80   25.60
  -8   0 -19   32.20   34.00
  11  -1 -19   -6.70   20.20
  11  -1 -19   28.30   26.20
 -11  -1  19   12.70   32.60
  11   1 -19  -43.20   22.50
  11   1 -19  -48.80   28.00
  11   1 -19   32.90   20.40
  10  -1 -19  -39.70   26.00
  10  -1 -19   -4.70   21.00
  10   1 -19  -42.90   24.60
  10   1 -19    3.30   28.30
   9  -1 -19   -4.00   21.30
   9  -1 -19   40.30   28.70
   9   1 -19   36.80   30.30
   9   1 -19   14.30   28.80
   8  -1 -19   23.10   18.00
   8  -1 -19  -36.30   25.30
   8  -1 -19   19.70   22.30
   8   1 -19   36.10   26.50
   8   1 -19   -1.90   28.80
   7  -1 -19   84.99   19.00
   7  -1 -19   21.70   24.10
   7  -1 -19   41.80   27.20
   7   1 -19  -28.50   26.60
   6  -1 -19   36.40   30.60
   6  -1 -19   34.40   20.30
   6  -1 -19    1.00   20.60
   6   1 -19   35.50   45.60
   6   1 -19   -6.30   26.60
   5  -1 -19  101.59   33.20
   5  -1 -19   29.60   20.00
   5   1 -19   59.99   27.30
   5   1 -19   36.90   26.50
   4  -1 -19   85.89   26.30
   4  -1 -19  103.99   35.80
   4   1 -19   31.20   27.80
   4   1 -19   60.09   27.20
   4   1 -19   81.39   28.10
   3  -1 -19   46.20   27.30
   3  -1 -19  132.39   30.00
   3   1 -19   76.49   28.50
   3   1 -19   57.79   29.90
   3   1 -19   90.49   27.20
   2  -1 -19    8.20   23.40
   2  -1 -19   -8.10   26.20
   2   1 -19  -11.20   25.60
   2   1 -19    0.10   27.60
   2   1 -19    8.80   19.60
   1  -1 -19  114.99   34.70
   1  -1 -19  135.79   29.40
   1   1 -19   53.09   28.50
   1   1 -19   54.29   31.90
   0  -1 -19   24.30   30.10
   0  -1 -19  -39.30   20.50
   0  -1 -19   25.70   25.10
   0   1 -19    7.00   26.00
   0   1 -19   16.10   29.90
  -1  -1 -19   70.99   28.40
  -1  -1 -19   41.10   19.80
  -1  -1 -19   58.89   31.50
  -1  -1 -19   10.80   21.00
  -1   1 -19    2.70   28.80
  -1   1 -19   57.49   31.30
  -2  -1 -19   -1.80   21.80
  -2  -1 -19   22.60   28.70
  -2  -1 -19  -35.90   18.90
  -2  -1 -19   12.30   26.60
  -2  -1 -19   23.00   22.70
  -2   1 -19  -28.60   33.50
  -3  -1 -19    4.80   22.40
  -3  -1 -19   28.20   24.90
  -3  -1 -19   27.10   23.00
  -3  -1 -19   23.70   26.10
  -3   1 -19   62.39   32.00
  -4  -1 -19  -25.70   28.90
  -4  -1 -19   41.30   29.80
  -4  -1 -19   -9.20   22.20
  -4  -1 -19  -15.40   23.50
  -4   1 -19    3.10   30.40
  -5  -1 -19  -39.20   28.40
  -5  -1 -19  -18.60   33.60
  -5  -1 -19   -5.80   25.90
  -5  -1 -19   12.90   22.10
  -5   1 -19    5.50   30.10
  -5   1 -19   -7.10   20.10
  -6  -1 -19    7.10   33.50
  -6  -1 -19   39.00   27.60
  -6  -1 -19   48.60   23.90
  -6  -1 -19   25.30   31.90
  -6   1 -19   33.60   34.00
  -6   1 -19   15.10   23.90
  -7  -1 -19   18.40   36.10
  -7  -1 -19   21.70   36.70
  -7  -1 -19  -15.70   21.50
  -7   1 -19   15.70   25.90
  -7   1 -19    6.50   32.50
  10  -2 -19   35.70   20.30
 -10  -2  19   24.30   35.20
  10  -2 -19   11.30   28.00
  10   2 -19    0.70   31.20
  10   2 -19   33.50   26.90
   9  -2 -19   12.80   16.70
   9  -2 -19    0.00   27.30
  -9  -2  19  -13.50   30.60
   9   2 -19   19.20   26.50
   9   2 -19  -47.30   29.00
   8  -2 -19   65.29   29.50
  -8  -2  19   90.39   34.00
   8  -2 -19   77.69   22.00
   8   2 -19   28.20   35.30
   8   2 -19   32.40   26.20
   7  -2 -19    9.90   26.40
   7  -2 -19   36.30   18.50
  -7  -2  19   20.90   29.70
   7   2 -19    6.20   30.00
   6  -2 -19   59.19   28.10
   6  -2 -19   88.19   31.10
  -6  -2  19   78.19   31.30
   6  -2 -19   99.09   22.90
   6   2 -19   73.59   28.80
   6   2 -19   94.19   34.30
   5  -2 -19   50.49   27.90
   5  -2 -19   69.89   20.70
   5  -2 -19   -7.00   31.00
   5   2 -19    6.00   29.40
   5   2 -19   29.80   29.30
   4  -2 -19  136.09   25.30
   4  -2 -19   80.79   24.40
   4  -2 -19  180.08   39.00
   4  -2 -19  100.09   23.80
   4   2 -19  140.69   31.40
   4   2 -19  139.49   35.80
   3  -2 -19   43.90   22.20
   3   2 -19   31.10   27.30
   3   2 -19   32.00   29.20
   3   2 -19   11.60   20.80
   2  -2 -19  140.19   36.10
   2  -2 -19   45.90   19.50
   2  -2 -19   94.49   25.20
   2   2 -19   68.79   29.90
   2   2 -19   98.99   33.90
   1  -2 -19   63.29   24.00
   1  -2 -19   10.00   15.90
   1  -2 -19   11.20   23.50
   1  -2 -19   11.50   27.20
   1   2 -19   -4.40   26.80
   1   2 -19   31.60   30.80
   0  -2 -19   97.19   26.70
   0  -2 -19   36.60   23.50
   0  -2 -19   58.69   29.20
   0   2 -19   63.49   33.40
   0   2 -19    2.30   35.60
  -1  -2 -19   34.10   33.90
  -1  -2 -19   39.10   25.70
  -1  -2 -19   65.19   25.90
  -1  -2 -19   -1.10   29.40
  -1   2 -19   25.40   29.60
  -1   2 -19    2.30   28.00
  -2  -2 -19   96.59   30.00
  -2  -2 -19   81.69   28.30
  -2  -2 -19  102.09   32.70
  -2   2 -19   87.79   32.30
  -2   2 -19   27.40   33.10
  -3  -2 -19  -11.40   30.90
  -3  -2 -19    9.20   28.60
  -3  -2 -19   31.20   27.70
  -3  -2 -19   14.60   26.60
  -3   2 -19   25.00   34.30
  -4  -2 -19   90.99   33.30
  -4  -2 -19   60.99   33.10
  -4  -2 -19   99.89   33.00
  -4  -2 -19   26.60   28.90
  -4   2 -19   55.99   34.10
  -5  -2 -19   32.60   31.30
  -5  -2 -19    0.70   29.90
  -5  -2 -19  -22.30   29.50
  -5  -2 -19   15.30   29.60
  -5   2 -19    4.30   21.70
  -5   2 -19   15.10   34.00
  -6  -2 -19   20.30   33.10
  -6  -2 -19   12.40   30.20
  -6  -2 -19   25.20   29.90
  -6  -2 -19   72.59   35.50
  -6   2 -19   54.99   26.40
  -6   2 -19   47.20   36.00
   7   3 -19   85.19   31.50
  -6  -3  19   27.70   31.10
   6  -3 -19   -5.00   27.50
   6   3 -19   42.60   34.40
   5  -3 -19   64.29   30.30
  -5  -3  19  133.79   31.80
   5   3 -19   87.49   40.00
   5   3 -19   58.49   37.30
   4  -3 -19   44.70   29.80
  -4  -3  19    3.30   22.40
   4   3 -19   37.40   36.00
   4   3 -19   23.20   33.40
   3  -3 -19   52.79   18.90
   3  -3 -19   99.79   32.60
   3   3 -19   63.69   36.70
   2  -3 -19   93.29   32.30
   2  -3 -19   66.19   23.70
   2   3 -19  101.29   38.00
   2   3 -19   86.29   49.20
   1  -3 -19   64.69   23.50
   1  -3 -19  129.59   35.70
   1   3 -19  121.39   34.10
   1   3 -19  145.89   39.50
   0  -3 -19  125.19   32.70
   0  -3 -19   84.19   44.10
   0  -3 -19  114.19   32.70
   0  -3 -19   49.90   23.40
   0   3 -19   71.09   37.10
   0   3 -19   87.79   30.40
  -1  -3 -19   77.19   38.50
  -1  -3 -19  168.78   33.80
  -1  -3 -19   79.29   28.80
  -1  -3 -19  101.19   43.60
  -1   3 -19  107.39   37.10
  -1   3 -19  115.99   34.10
  -2  -3 -19   -5.00   24.30
  -2  -3 -19   49.70   30.50
  -2  -3 -19   68.79   36.20
  -2  -3 -19   40.50   32.10
  -2   3 -19   46.40   32.30
  -2   3 -19   88.29   35.70
  -3  -3 -19  -21.50   30.90
  -3  -3 -19   76.69   31.70
  -3  -3 -19  -16.10   32.80
  -3   3 -19   15.00   31.20
  -3   3 -19   57.39   34.40
  11   0 -20    3.70   22.00
  11   0 -20   10.80   16.10
  11   0 -20   29.10   30.30
  10   0 -20  274.07   42.50
  10   0 -20  213.68   40.30
   9   0 -20   95.89   29.90
   9   0 -20   81.59   32.20
   8   0 -20  479.25   61.19
   8   0 -20  450.65   56.79
   7   0 -20    1.00   31.30
   7   0 -20  -17.20   27.00
   6   0 -20  567.04   69.09
   6   0 -20  637.04   67.29
   5   0 -20   22.10   39.60
   5   0 -20    1.70   21.90
   4   0 -20  938.01   98.69
   4   0 -20  842.62   85.19
   3   0 -20   45.20   27.70
   3   0 -20  -23.30   23.50
   3   0 -20   -5.30   30.70
   2   0 -20  800.22   80.09
   1   0 -20   28.20   23.30
   1   0 -20   61.69   31.00
   1   0 -20   70.69   31.70
   0   0 -20  819.02   81.39
   0   0 -20  797.12   71.89
  -1   0 -20   82.49   20.70
  -1   0 -20   91.19   34.70
  -1   0 -20   86.79   20.60
  -1   0 -20   79.09   32.20
  -2   0 -20  341.87   53.09
  -2   0 -20  467.25   41.00
  -2   0 -20  554.14   63.09
  -2   0 -20  400.46   45.20
  -3   0 -20   38.90   32.70
  -3   0 -20   68.59   31.70
  -4   0 -20  295.67   48.90
  -4   0 -20  399.16   42.30
  -4   0 -20  366.26   54.99
  -5   0 -20   42.50   32.00
  -5   0 -20   14.10   22.60
  -6   0 -20   54.39   26.60
  -6   0 -20   23.10   30.10
  -7   0 -20   11.80   27.60
  -7   0 -20  -25.70   31.30
  10  -1 -20   23.20   27.90
  10  -1 -20    7.70   25.20
  10   1 -20   56.89   31.00
  10   1 -20   37.30   30.20
   9  -1 -20  296.37   44.80
   9  -1 -20  249.78   39.00
   9   1 -20  328.17   48.70
   9   1 -20  383.16   47.80
   8  -1 -20   10.40   21.60
   8  -1 -20   -4.80   28.10
   8   1 -20   39.20   30.90
   8   1 -20   30.00   28.20
   7  -1 -20  399.46   53.99
   7  -1 -20  342.17   45.50
   7   1 -20  399.86   50.39
   7   1 -20  447.66   57.69
   6  -1 -20   19.90   28.10
   6  -1 -20   13.70   20.30
   6   1 -20   61.69   29.70
   6   1 -20   26.20   28.10
   5  -1 -20  690.93   66.99
   5  -1 -20  619.34   72.39
   5   1 -20  532.85   77.59
   5   1 -20  731.73   72.79
   4  -1 -20    7.90   30.40
   4  -1 -20   29.10   24.50
   4   1 -20   88.89   30.00
   4   1 -20    4.30   31.10
   3  -1 -20  744.03   91.39
   3  -1 -20  752.82   74.49
   3   1 -20  781.52   72.29
   3   1 -20  882.11  107.29
   3   1 -20  617.34   82.79
   2  -1 -20   16.00   24.10
   2   1 -20   46.10   31.20
   2   1 -20  -15.10   41.30
   2   1 -20   48.30   21.00
   1  -1 -20  792.92   76.59
   1   1 -20  714.03   93.49
   0  -1 -20   24.70   25.80
   0   1 -20   55.19   32.10
   0   1 -20   34.00   33.70
  -1  -1 -20  445.16   57.19
  -1  -1 -20  388.16   54.19
  -1  -1 -20  581.84   55.09
  -1  -1 -20  512.75   46.50
  -1  -1 -20  309.67   49.70
  -1   1 -20  365.56   52.09
  -1   1 -20  528.95   62.19
  -2  -1 -20   18.40   32.00
  -2  -1 -20   24.20   22.90
  -2  -1 -20  -27.10   20.70
  -2  -1 -20   66.19   34.90
  -2  -1 -20   11.60   21.70
  -2   1 -20   11.20   28.20
  -2   1 -20   43.70   33.70
  -3  -1 -20  373.26   52.59
  -3  -1 -20  378.16   45.90
  -3  -1 -20  301.87   42.50
  -3  -1 -20  387.36   51.39
  -3  -1 -20  384.76   46.40
  -3   1 -20  283.77   52.79
  -3   1 -20  261.27   48.40
  -4  -1 -20    1.90   24.90
  -4  -1 -20   61.89   33.50
  -4  -1 -20  -41.10   32.80
  -4  -1 -20   50.49   24.40
  -4   1 -20   81.79   33.80
  -5  -1 -20  147.69   37.70
  -5  -1 -20  159.88   40.30
  -5  -1 -20  162.68   29.60
  -5  -1 -20  197.28   35.70
  -5   1 -20  134.49   39.60
  -5   1 -20  151.48   28.00
  -6  -1 -20   45.50   36.40
  -6  -1 -20   48.40   34.40
  -6  -1 -20   74.29   25.00
  -6  -1 -20   21.50   28.70
  -6   1 -20   25.50   24.30
  -6   1 -20   87.69   38.00
   9  -2 -20  -11.90   18.00
   9  -2 -20   37.40   27.90
  -9  -2  20  -10.60   33.00
   9   2 -20    6.20   33.80
   9   2 -20    1.90   27.70
   8  -2 -20  162.68   37.20
   8  -2 -20  195.98   30.70
   8   2 -20  154.68   36.80
   8   2 -20  193.48   37.90
   7  -2 -20   -6.20   27.90
  -7  -2  20  -10.00   27.80
   7  -2 -20   -6.80   18.20
   7   2 -20   11.20   29.40
   7   2 -20  -13.80   24.60
   6  -2 -20  404.76   45.50
   6  -2 -20  393.66   52.69
   6   2 -20  289.67   51.49
   6   2 -20  335.67   47.70
   5  -2 -20   17.20   19.00
   5  -2 -20   36.10   31.60
   5   2 -20   50.39   30.20
   5   2 -20  -12.10   28.20
   4  -2 -20  296.17   43.60
   4  -2 -20  285.87   35.20
   4  -2 -20  172.88   28.90
   4   2 -20  337.27   49.99
   4   2 -20  289.37   44.50
   3  -2 -20   74.29   26.50
   3  -2 -20   30.40   29.60
   3   2 -20   97.79   38.60
   3   2 -20   24.90   31.90
   3   2 -20   -0.10   21.20
   2  -2 -20  254.57   41.50
   2  -2 -20  186.18   36.80
   2  -2 -20  204.88   33.90
   2  -2 -20  327.67   38.50
   2   2 -20  264.77   45.30
   2   2 -20  247.48   41.80
   1  -2 -20   37.70   22.50
   1  -2 -20  -16.70   27.50
   1  -2 -20    6.80   20.70
   1  -2 -20  -12.40   16.60
   1   2 -20   -9.60   33.20
   1   2 -20    8.40   31.60
   0  -2 -20  276.87   45.80
   0  -2 -20  278.37   37.90
   0  -2 -20  321.37   42.00
   0   2 -20  230.08   46.50
   0   2 -20  210.78   44.00
  -1  -2 -20  -10.20   29.30
  -1  -2 -20  -10.60   22.60
  -1  -2 -20  -35.00   23.30
  -1  -2 -20   -3.20   28.70
  -1   2 -20   39.40   34.80
  -1   2 -20   -4.40   31.80
  -2  -2 -20  273.67   40.80
  -2  -2 -20  272.97   43.10
  -2  -2 -20  262.17   47.60
  -2  -2 -20  249.18   43.20
  -2   2 -20  189.28   41.20
  -2   2 -20  283.47   47.40
  -3  -2 -20   47.10   30.00
  -3  -2 -20   31.70   28.50
  -3  -2 -20   14.90   28.50
  -3  -2 -20   13.30   30.30
  -3   2 -20   31.60   32.30
  -3   2 -20    1.30   32.20
  -4  -2 -20  169.38   39.70
  -4  -2 -20  292.47   43.00
  -4  -2 -20  256.67   47.20
  -4  -2 -20  196.88   38.90
  -4   2 -20  183.38   42.20
  -5  -2 -20   60.79   38.70
  -5  -2 -20   30.70   30.80
  -5  -2 -20  -14.00   29.80
  -5  -2 -20    0.30   33.00
  -5   2 -20  -26.20   28.40
   5  -3 -20   90.49   35.40
  -5  -3  20  155.88   31.90
   5  -3 -20  191.88   35.70
   5   3 -20  139.79   35.40
   5   3 -20  128.59   40.30
   4  -3 -20   60.79   31.00
   4  -3 -20   22.90   17.30
   4   3 -20    6.00   36.10
   4   3 -20    6.20   27.10
   3  -3 -20   80.29   35.30
   3  -3 -20  100.99   22.30
   3   3 -20  107.79   40.70
   3   3 -20  161.88   34.90
   2  -3 -20   19.40   28.80
   2  -3 -20   -0.40   20.60
   2   3 -20   74.79   38.50
   2   3 -20    1.90   28.30
   1  -3 -20  159.88   37.10
   1  -3 -20  132.29   28.90
   1  -3 -20  161.48   34.60
   1   3 -20  103.29   39.30
   1   3 -20  123.29   34.30
   0  -3 -20   11.60   30.50
   0  -3 -20  -11.90   22.80
   0  -3 -20   -4.40   41.20
   0  -3 -20    7.20   29.10
   0   3 -20  -38.30   32.60
   0   3 -20   23.90   31.50
  -1  -3 -20   94.79   41.90
  -1  -3 -20  185.28   41.10
  -1  -3 -20  247.88   39.00
  -1  -3 -20  123.39   31.80
  -1   3 -20  123.29   38.10
  -1   3 -20  151.58   42.40
  10   0 -21   28.60   27.90
  10   0 -21  -30.50   26.10
   9   0 -21   -3.50   28.80
   9   0 -21   10.30   26.20
   8   0 -21   33.70   28.40
   8   0 -21   13.90   31.10
   7   0 -21   49.50   30.20
   7   0 -21   -5.00   31.20
   6   0 -21   19.10   31.00
   6   0 -21  -27.90   27.50
   5   0 -21   19.20   30.70
   4   0 -21    4.40   29.90
   4   0 -21    7.90   35.30
   3   0 -21  -27.40   31.70
   3   0 -21  -16.30   25.70
   2   0 -21   18.80   28.70
   2   0 -21   89.99   25.30
   2   0 -21    7.10   45.10
   1   0 -21   -4.10   20.90
   1   0 -21   24.80   29.50
   1   0 -21   22.60   49.10
   0   0 -21   47.80   30.90
   0   0 -21   15.50   30.90
   0   0 -21   22.00   20.10
  -1   0 -21    4.80   16.90
  -1   0 -21   45.30   33.20
  -1   0 -21   -5.10   29.40
  -1   0 -21    6.20   16.80
  -2   0 -21   17.40   14.70
  -2   0 -21   35.80   36.80
  -2   0 -21  -12.70   12.40
  -2   0 -21    7.70   30.20
  -3   0 -21  -44.50   33.20
  -3   0 -21    0.40   30.60
  -4   0 -21  -14.40   32.60
  -4   0 -21   24.00   19.40
  -4   0 -21  -16.70   32.40
  -5   0 -21  -17.80   32.10
  -5   0 -21    7.70   21.10
  -5   0 -21    0.90   33.30
  -6   0 -21    2.50   24.60
  -6   0 -21  -28.30   30.60
   9  -1 -21    9.60   22.40
   9  -1 -21   36.00   30.20
   9   1 -21   10.60   29.00
   9   1 -21   12.30   32.70
   8  -1 -21   64.79   31.90
   8  -1 -21   67.09   34.50
   8   1 -21   28.70   29.60
   8   1 -21   92.49   33.90
   7  -1 -21   39.60   23.60
   7  -1 -21   27.30   30.00
   7   1 -21   16.20   30.60
   7   1 -21   23.80   28.50
   6  -1 -21   30.80   24.30
   6  -1 -21   -7.60   27.50
   6   1 -21    6.20   31.80
   6   1 -21   72.09   32.90
   5  -1 -21   47.90   22.40
   5  -1 -21   41.30   29.30
   5   1 -21   24.80   31.20
   5   1 -21   12.10   28.70
   4  -1 -21   27.40   29.70
   4  -1 -21   10.20   26.20
   4   1 -21   -4.30   29.40
   4   1 -21  -26.10   27.60
   4   1 -21    1.10   27.20
   3  -1 -21   43.20   30.40
   3  -1 -21   36.10   27.10
   3   1 -21   71.79   31.70
   3   1 -21   34.90   25.20
   3   1 -21   17.10   34.20
   2  -1 -21    4.20   23.80
   2  -1 -21   11.10   28.00
   2   1 -21    9.20   30.00
   2   1 -21   14.80   31.30
   2   1 -21    2.50   19.80
   1  -1 -21   50.99   27.00
   1  -1 -21   61.69   31.50
   1   1 -21   22.90   29.90
   1   1 -21   -1.50   29.40
   1   1 -21   67.59   16.80
   0  -1 -21   61.29   35.80
   0  -1 -21   22.60   30.90
   0   1 -21   36.40   33.40
   0   1 -21   45.10   32.40
  -1  -1 -21   39.00   32.40
  -1  -1 -21   24.80   31.40
  -1  -1 -21   49.50   25.60
  -1   1 -21    0.90   31.60
  -1   1 -21   68.59   32.20
  -2  -1 -21   41.70   25.10
  -2  -1 -21  -59.39   28.60
  -2  -1 -21    3.50   21.50
  -2  -1 -21   20.60   29.90
  -2   1 -21   17.70   36.30
  -2   1 -21   44.40   33.90
  -3  -1 -21  -10.00   31.50
  -3  -1 -21   18.30   22.40
  -3  -1 -21  -12.70   30.40
  -3  -1 -21    1.30   21.20
  -3   1 -21    2.90   37.60
  -3   1 -21  -13.20   33.10
  -4  -1 -21   22.90   23.10
  -4  -1 -21    4.40   23.80
  -4  -1 -21   46.20   37.20
  -4  -1 -21   57.19   37.80
  -4   1 -21   69.89   32.70
  -4   1 -21   15.80   33.10
  -5  -1 -21  -35.50   31.60
  -5  -1 -21  -34.90   20.80
  -5  -1 -21  -21.60   24.30
  -5  -1 -21  -11.80   30.30
  -5   1 -21    3.50   20.00
  -5   1 -21    8.80   32.60
   8  -2 -21   16.30   20.20
   8   2 -21  -40.40   28.70
   7  -2 -21   23.60   20.70
   7  -2 -21   71.49   32.40
   7   2 -21   22.00   27.20
   7   2 -21    3.70   32.60
   6  -2 -21   26.80   22.30
   6  -2 -21   23.10   31.30
   6   2 -21   82.19   35.50
   6   2 -21   62.59   33.00
   5  -2 -21  -14.50   31.40
   5  -2 -21   36.90   20.80
   5   2 -21   13.30   28.80
   5   2 -21   58.49   32.90
   4  -2 -21   20.40   21.10
   4  -2 -21   74.89   33.30
   4   2 -21   84.79   34.90
   4   2 -21   52.89   30.80
   3  -2 -21   73.29   24.50
   3  -2 -21   61.59   23.00
   3  -2 -21    9.00   30.70
   3   2 -21   16.40   33.70
   3   2 -21   19.30   31.50
   2  -2 -21   91.59   28.00
   2  -2 -21  107.29   25.40
   2  -2 -21  180.38   39.10
   2   2 -21   98.89   36.90
   2   2 -21   56.89   32.50
   1  -2 -21   72.49   29.60
   1  -2 -21   98.89   24.60
   1  -2 -21   29.20   32.60
   1   2 -21   49.00   36.70
   1   2 -21   97.99   34.60
   0  -2 -21   81.69   33.30
   0  -2 -21   40.10   25.50
   0  -2 -21  129.39   30.40
   0   2 -21   88.09   35.80
   0   2 -21  124.49   35.20
  -1  -2 -21   51.69   26.30
  -1  -2 -21    3.50   31.20
  -1  -2 -21   38.10   32.60
  -1  -2 -21   57.09   49.00
  -1   2 -21   24.20   33.90
  -1   2 -21   23.20   34.00
  -2  -2 -21  -22.70   29.10
  -2  -2 -21   50.49   28.70
  -2  -2 -21   16.80   27.60
  -2  -2 -21   84.19   30.40
  -2   2 -21   37.40   33.80
  -2   2 -21   28.30   31.60
  -3  -2 -21    4.40   28.20
  -3  -2 -21  -56.89   26.40
  -3  -2 -21   44.00   30.30
  -3  -2 -21  -14.60   29.40
  -3   2 -21    9.10   34.10
  -3   2 -21   44.60   34.30
   9   0 -22  285.67   45.50
   9   0 -22  282.27   48.30
   8   0 -22    4.00   28.30
   8   0 -22    5.60   29.80
   7   0 -22  510.75   62.09
   7   0 -22  429.76   58.89
   6   0 -22  -39.40   29.80
   6   0 -22    8.50   28.30
   5   0 -22  344.47   50.59
   5   0 -22  390.66   50.49
   4   0 -22   74.89   32.30
   4   0 -22   41.60   28.00
   3   0 -22  519.35   63.49
   3   0 -22  456.45   59.29
   2   0 -22   43.00   31.20
   2   0 -22  122.09   27.10
   2   0 -22   23.60   30.70
   1   0 -22  391.26   50.69
   1   0 -22  341.27   51.19
   0   0 -22   82.19   23.00
   0   0 -22   15.80   38.70
   0   0 -22   33.80   31.30
  -1   0 -22  353.76   52.39
  -1   0 -22  400.86   37.50
  -1   0 -22  368.46   52.09
  -1   0 -22  283.27   40.10
  -2   0 -22   13.70   32.70
  -2   0 -22  -42.20   29.90
  -3   0 -22  190.58   47.50
  -3   0 -22  333.47   49.80
  -4   0 -22   13.50   34.10
  -4   0 -22  -27.20   30.80
  -5   0 -22  118.29   26.50
  -5   0 -22  175.88   42.80
   8  -1 -22  221.78   43.30
   8  -1 -22  226.68   38.00
   8   1 -22  202.98   43.20
   8   1 -22  234.68   43.60
   7  -1 -22   73.89   27.40
   7  -1 -22   46.10   32.80
   7   1 -22   46.10   34.20
   7   1 -22   11.50   30.60
   6  -1 -22  268.97   47.20
   6  -1 -22  236.48   44.10
   6   1 -22  256.87   43.70
   6   1 -22  352.36   52.09
   5  -1 -22   10.90   42.10
   5  -1 -22    4.20   31.00
   5   1 -22   28.50   33.20
   5   1 -22    9.50   29.70
   4  -1 -22  447.66   57.39
   4  -1 -22  413.66   60.59
   4   1 -22  367.26   54.09
   4   1 -22  378.06   54.49
   3  -1 -22   17.20   35.50
   3  -1 -22   19.00   43.00
   3   1 -22   27.20   32.80
   3   1 -22    7.50   34.90
   2  -1 -22  327.37   57.09
   2  -1 -22  362.56   54.39
   2   1 -22  394.36   55.29
   2   1 -22  384.36   54.89
   2   1 -22  449.76   47.40
   1  -1 -22   -2.60   30.90
   1  -1 -22   12.30   31.20
   1   1 -22   31.90   38.00
   1   1 -22    1.90   30.70
   0  -1 -22  261.37   42.60
   0  -1 -22  275.17   47.80
   0   1 -22  263.47   46.40
   0   1 -22  293.67   50.39
  -1  -1 -22  -17.50   28.70
  -1  -1 -22   20.30   34.90
  -1  -1 -22   22.10   27.40
  -1   1 -22   14.00   32.30
  -1   1 -22   28.50   35.90
  -2  -1 -22  302.27   38.60
  -2  -1 -22  231.88   47.70
  -2  -1 -22  280.07   46.70
  -2   1 -22  170.38   45.40
  -2   1 -22  255.07   46.60
  -3  -1 -22   36.40   35.00
  -3  -1 -22  -14.50   20.60
  -3  -1 -22   22.90   34.30
  -3  -1 -22    9.20   23.60
  -3   1 -22   38.70   42.30
  -3   1 -22  -17.40   30.10
  -4  -1 -22  118.09   28.10
  -4  -1 -22  181.08   28.60
  -4  -1 -22  155.68   40.50
  -4   1 -22  181.68   43.30
  -4   1 -22   62.29   37.40
   6  -2 -22   49.00   23.60
   6  -2 -22  -54.59   28.90
   6   2 -22  -19.50   29.50
   6   2 -22   70.39   36.60
   5  -2 -22  206.88   43.90
   5  -2 -22  214.88   35.90
   5   2 -22  252.07   48.40
   5   2 -22  213.88   45.00
   4  -2 -22   -6.70   29.80
   4  -2 -22   -4.50   20.00
   4   2 -22  -17.40   32.90
   4   2 -22    7.00   29.50
   3  -2 -22  276.27   48.20
   3  -2 -22  236.18   38.00
   3   2 -22  267.57   50.99
   3   2 -22  300.77   49.00
   2  -2 -22   40.90   32.80
   2  -2 -22    5.90   19.90
   2  -2 -22   -4.10   24.70
   2   2 -22  -17.30   29.20
   2   2 -22  -55.29   32.50
   1  -2 -22  272.87   46.00
   1  -2 -22  198.78   30.90
   1  -2 -22  129.19   46.80
   1   2 -22  247.78   44.10
   1   2 -22  170.78   44.40
   0  -2 -22   41.20   31.70
   0  -2 -22   92.79   26.40
   0  -2 -22   40.00   25.90
   0  -2 -22   71.39   56.89
   0   2 -22  -13.10   34.60
   0   2 -22   78.79   37.90
  -1  -2 -22  189.58   41.70
  -1  -2 -22  262.27   38.10
  -1  -2 -22  207.18   38.50
  -1   2 -22  223.58   44.90
  -1   2 -22  218.78   41.80
  -2  -2 -22   47.60   55.09
  -2  -2 -22  -15.60   25.00
  -2  -2 -22   17.10   31.50
  -2  -2 -22   35.50   28.70
  -2   2 -22   -3.40   31.20
  -2   2 -22   59.99   35.30
   8   0 -23   -3.10   26.20
   7   0 -23  -17.50   27.70
   7   0 -23   -2.20   31.90
   6   0 -23   46.60   33.30
   6   0 -23   -1.30   24.60
   5   0 -23   24.50   29.00
   5   0 -23   18.90   37.40
   4   0 -23  -30.80   27.80
   4   0 -23   -2.40   36.80
   3   0 -23  -20.90   29.30
   3   0 -23   23.10   35.40
   2   0 -23  -18.00   29.10
   2   0 -23   -3.20   30.50
   1   0 -23    6.70   31.50
   1   0 -23  -36.80   28.50
   0   0 -23  -21.80   20.80
   0   0 -23   49.99   32.80
   0   0 -23  -17.60   30.40
  -1   0 -23  -15.40   33.80
  -1   0 -23   14.20   30.90
  -1   0 -23  -33.90   14.10
  -2   0 -23  -37.20   30.50
  -2   0 -23   45.10   33.10
  -3   0 -23   -5.60   33.00
  -3   0 -23   60.39   34.30
   7  -1 -23    5.30   23.40
   7  -1 -23    5.30   31.10
   7   1 -23   -0.20   29.80
   7   1 -23   53.69   33.20
   6  -1 -23   13.20   26.80
   6  -1 -23   -5.10   28.30
   6   1 -23  -43.40   29.40
   6   1 -23   -1.40   29.10
   5  -1 -23   25.00   23.20
   5  -1 -23   46.10   35.60
   5   1 -23   55.39   30.50
   5   1 -23   -1.10   36.10
   4  -1 -23   34.50   32.80
   4  -1 -23  -49.20   24.30
   4   1 -23   52.99   37.50
   4   1 -23  -11.30   28.10
   3  -1 -23  -11.70   26.10
   3  -1 -23  -43.90   28.80
   3   1 -23  -18.30   32.20
   3   1 -23    4.50   31.10
   2  -1 -23   27.60   30.90
   2  -1 -23   20.40   37.50
   2   1 -23  -15.60   32.90
   2   1 -23   -1.70   34.30
   1  -1 -23    1.70   30.60
   1  -1 -23   -5.40   27.00
   1   1 -23    1.90   32.40
   1   1 -23   -3.50   33.30
   0  -1 -23   35.60   29.30
   0  -1 -23   11.90   27.50
   0  -1 -23  -36.80   29.90
   0   1 -23   32.70   35.00
   0   1 -23   29.70   35.30
  -1  -1 -23   50.09   29.80
  -1  -1 -23  -17.50   23.50
  -1  -1 -23   -5.50   33.40
  -1   1 -23   49.10   33.60
  -1   1 -23   35.10   33.90
  -2  -1 -23   21.50   24.70
  -2  -1 -23    3.90   30.40
  -2  -1 -23   26.80   35.50
  -2   1 -23   10.40   33.60
  -2   1 -23    3.10   31.40
   6   0 -24  197.38   42.00
   5   0 -24   54.59   35.40
   5   0 -24   76.99   31.80
   4   0 -24  263.37   48.80
   4   0 -24  375.56   55.49
   3   0 -24   11.60   31.60
   3   0 -24   97.39   41.90
   2   0 -24  260.67   44.80
   2   0 -24  168.58   41.60
   1   0 -24   29.60   39.30
   1   0 -24   48.10   35.50
   0   0 -24   57.19   38.20
   0   0 -24  166.98   40.00
   0   0 -24  113.19   23.10
  -1   0 -24   69.39   38.00
  -1   0 -24   -4.50   34.10
   4  -1 -24   35.40   38.30
   4  -1 -24  -29.90   25.10
   4   1 -24   81.19   35.00
   4   1 -24   40.70   35.00
   3  -1 -24  194.68   36.10
   3  -1 -24  164.78   40.40
   3   1 -24  116.69   39.80
   3   1 -24  111.09   41.10
   2  -1 -24   46.50   34.40
   2  -1 -24   -8.60   35.90
   2   1 -24   35.40   37.50
   2   1 -24   31.20   37.50
   1  -1 -24  225.98   43.80
   1  -1 -24  255.57   44.80
   1   1 -24  187.28   43.40
   1   1 -24  282.27   50.99
   0  -1 -24  -31.70   29.40
   0   1 -24   55.19   35.10
   0   0   0    0.00    0.00
_computing_structure_solution     'SHELXT 2014/5 (Sheldrick, 2014)'
_computing_structure_solution     'SHELXT 2014/5 (Sheldrick, 2014)'
;
_shelx_hkl_checksum              33305
_shelx_res_file
;
    mo_phm_mmu_br_0m_a.res created by SHELXL-2014/7
TITL mo_phm_mmu_br_0m_a_b.res in Pc
REM Old TITL mo_phm_mmu_Br_0m_a.res in P2(1)/c
REM SHELXT solution in Pc
REM R1 0.097, Rweak 0.009, Alpha 0.018, Orientation as input
REM Flack x = 0.042 ( 0.012 ) from Parsons' quotients
REM Formula found by SHELXT: C12 Br2 N5 O3
CELL 0.71073 11.1643 3.8275 17.2764 90 98.662 90
ZERR 4 0.0011 0.0004 0.0016 0 0.003 0
LATT -1
SYMM +X,-Y,0.5+Z
SFAC C H Br N O
UNIT 24 20 4 8 8
DFIX 0.88 0.005 N11 H11b N11 H11a N1 H1a N1 H1b
L.S. 10
PLAN  30
SIZE 0.4 0.4 0.6
TEMP -143.15
HTAB
conf
BOND $H
LIST 4
fmap 2
acta
OMIT -2 59
REM <olex2.extras>
REM <HklSrc "%.\\mo_phm_mmu_Br_0m_a.hkl">
REM </olex2.extras>
WGHT    0.000000
FVAR       0.63419
BR1   3    0.270387    0.951742    0.148188    11.00000    0.04039    0.02332 =
         0.01987    0.00352    0.01338    0.00279
O1    5    0.148121    0.727330    0.492958    11.00000    0.02944    0.04346 =
         0.01204    0.00412    0.00655    0.00263
O2    5    0.052496    1.015090    0.394628    11.00000    0.01859    0.04996 =
         0.02546    0.00928    0.00498    0.01309
N1    4    0.368456    0.490209    0.486778    11.00000    0.03036    0.02946 =
         0.01991    0.00584   -0.00689    0.00860
H1A   2    0.313494    0.520799    0.517623    11.00000    0.01751
H1B   2    0.439624    0.398530    0.504079    11.00000    0.04418
N2    4    0.140728    0.838589    0.424440    11.00000    0.01433    0.03094 =
         0.01650    0.00208   -0.00007   -0.00082
C1    1    0.344504    0.601691    0.412157    11.00000    0.01458    0.01648 =
         0.02465    0.00120   -0.00682    0.00186
C2    1    0.235665    0.766707    0.379139    11.00000    0.01496    0.02188 =
         0.01346   -0.00090    0.00463   -0.00322
C3    1    0.214327    0.873256    0.300470    11.00000    0.01353    0.01788 =
         0.01222    0.00059    0.00416    0.00037
AFIX  43
H3    2    0.140370    0.984409    0.279669    11.00000   -1.20000
AFIX   0
C4    1    0.300901    0.815129    0.254582    11.00000    0.02142    0.01998 =
         0.01825   -0.00349    0.00946   -0.00462
C5    1    0.410369    0.654079    0.285146    11.00000    0.01607    0.02309 =
         0.02536   -0.00177    0.00814   -0.00238
AFIX  43
H5    2    0.469926    0.612576    0.252321    11.00000   -1.20000
AFIX   0
C6    1    0.431935    0.556034    0.362284    11.00000    0.01308    0.02839 =
         0.03248   -0.00085   -0.00016    0.00352
AFIX  43
H6    2    0.507855    0.454662    0.382594    11.00000   -1.20000
AFIX   0
BR11  3    0.771754    0.512833    0.851962    11.00000    0.04063    0.02332 =
         0.01791    0.00243    0.00907   -0.00070
O11   5    0.669130    1.157605    0.508011    11.00000    0.03608    0.05357 =
         0.02194    0.01520   -0.00137    0.00273
O12   5    0.560527    1.162449    0.601251    11.00000    0.01427    0.06114 =
         0.03999    0.01507    0.00147    0.01448
N11   4    0.892722    0.902458    0.532586    11.00000    0.03034    0.04241 =
         0.01825   -0.00059    0.01526   -0.00354
H11A  2    0.968772    0.856398    0.528399    11.00000    0.04125
H11B  2    0.837333    1.016164    0.500620    11.00000    0.04035
N12   4    0.655292    1.079491    0.575757    11.00000    0.01963    0.03207 =
         0.02319    0.00761   -0.00136   -0.00086
C11   1    0.860173    0.823051    0.603259    11.00000    0.01998    0.01837 =
         0.01972   -0.00541    0.00899    0.00108
C12   1    0.747801    0.900941    0.625888    11.00000    0.01624    0.01851 =
         0.01750   -0.00177    0.00465    0.00055
C13   1    0.721733    0.812119    0.700710    11.00000    0.01522    0.01865 =
         0.02152    0.00138    0.00795   -0.00094
AFIX  43
H13   2    0.645128    0.869103    0.714919    11.00000   -1.20000
AFIX   0
C14   1    0.805542    0.646194    0.752153    11.00000    0.01950    0.01615 =
         0.01266    0.00248    0.00433   -0.00095
C15   1    0.921050    0.565626    0.731717    11.00000    0.01621    0.02073 =
         0.01973   -0.00040   -0.00443    0.00384
AFIX  43
H15   2    0.980758    0.453905    0.768450    11.00000   -1.20000
AFIX   0
C16   1    0.945445    0.649243    0.659481    11.00000    0.01273    0.02296 =
         0.02480   -0.00373    0.00550    0.00279
AFIX  43
H16   2    1.022282    0.589442    0.646014    11.00000   -1.20000
AFIX   0
HKLF 4
REM  mo_phm_mmu_br_0m_a_b.res in Pc
REM R1 =  0.0410 for    2965 Fo > 4sig(Fo)  and  0.0620 for all    3712 data
REM    215 parameters refined using      6 restraints
END
WGHT      0.0000      0.0000
REM Instructions for potential hydrogen bonds
EQIV $1 x, -y+1, z+1/2
HTAB N1 Br1_$1
HTAB N1 O1
EQIV $2 x, y-1, z
HTAB N1 O12_$2
EQIV $3 x, -y+1, z-1/2
HTAB C6 Br11_$3
EQIV $4 x+1, y, z
HTAB N11 O1_$4
EQIV $5 x, -y+2, z-1/2
HTAB N11 Br11_$5
HTAB N11 O11
REM Highest difference peak  0.510,  deepest hole -0.773,  1-sigma level  0.111
Q1    1   0.2666  0.7686  0.1634  11.00000  0.05    0.51
Q2    1   0.2427  0.9885  0.0807  11.00000  0.05    0.51
Q3    1   0.7766  0.7437  0.8483  11.00000  0.05    0.49
Q4    1   0.7735  0.4357  0.6509  11.00000  0.05    0.47
Q5    1   0.2641  0.9201  0.3411  11.00000  0.05    0.46
Q6    1   0.1892  1.2018  0.1336  11.00000  0.05    0.46
Q7    1   0.2355  0.4727  0.3762  11.00000  0.05    0.46
Q8    1   0.7753  0.2172  0.8374  11.00000  0.05    0.44
Q9    1   0.8422  0.8004  0.8647  11.00000  0.05    0.43
Q10   1   0.4311  0.3932  0.2334  11.00000  0.05    0.43
Q11   1   0.1599  1.0078  0.0965  11.00000  0.05    0.43
Q12   1   0.7036  0.2298  0.8394  11.00000  0.05    0.42
Q13   1   0.8512  0.2736  0.8672  11.00000  0.05    0.41
Q14   1   0.3362  0.6700  0.1628  11.00000  0.05    0.41
Q15   1   0.7378  1.4827  0.4683  11.00000  0.05    0.41
Q16   1   0.2825  0.2743  0.5422  11.00000  0.05    0.40
Q17   1   0.8072  0.4922  0.9207  11.00000  0.05    0.40
Q18   1   0.2966  0.9629  0.2210  11.00000  0.05    0.39
Q19   1   0.3168  1.0089  0.5397  11.00000  0.05    0.39
Q20   1   0.3386  1.2163  0.1873  11.00000  0.05    0.39
Q21   1   0.2834  0.5447  0.1260  11.00000  0.05    0.38
Q22   1   0.2822  0.7131  0.2582  11.00000  0.05    0.37
Q23   1   0.7602  0.7781  0.5995  11.00000  0.05    0.36
Q24   1   0.1740  0.7777  0.0902  11.00000  0.05    0.36
Q25   1   0.1515  1.2807  0.3778  11.00000  0.05    0.36
Q26   1   0.1382  0.3379  0.5503  11.00000  0.05    0.36
Q27   1   0.3205  0.5401  0.2274  11.00000  0.05    0.35
Q28   1   0.3527  1.1263  0.1299  11.00000  0.05    0.35
Q29   1   0.3558  0.2537  0.5113  11.00000  0.05    0.35
Q30   1   0.7784  0.8260  0.7482  11.00000  0.05    0.35
;
_shelx_res_checksum              96917
loop_
_space_group_symop_operation_xyz
'x, y, z'
'x, -y, z+1/2'
loop_
_atom_site_type_symbol
_atom_site_label
_atom_site_fract_x
_atom_site_fract_y
_atom_site_fract_z
_atom_site_U_iso_or_equiv
_atom_site_adp_type
_atom_site_calc_flag
_atom_site_occupancy
Br Br1 0.27039(4) 0.95174(18) 0.14819(3) 0.0270(2) Uani d 1
O O1 0.1481(4) 0.7273(14) 0.4930(3) 0.0280(12) Uani d 1
O O2 0.0525(4) 1.0151(13) 0.3946(3) 0.0312(12) Uani d 1
N N1 0.3685(7) 0.4902(15) 0.4868(4) 0.0277(16) Uani d 1
H H1A 0.313(5) 0.521(16) 0.518(3) 0.018(18) Uiso d 1
H H1B 0.440(3) 0.40(2) 0.504(5) 0.04(2) Uiso d 1
N N2 0.1407(5) 0.8386(15) 0.4244(3) 0.0208(12) Uani d 1
C C1 0.3445(6) 0.6017(18) 0.4122(4) 0.0196(14) Uani d 1
C C2 0.2357(6) 0.7667(18) 0.3791(4) 0.0165(13) Uani d 1
C C3 0.2143(6) 0.8733(15) 0.3005(3) 0.0143(12) Uani d 1
H H3 0.1404 0.9844 0.2797 0.017 Uiso calc 1
C C4 0.3009(6) 0.8151(17) 0.2546(4) 0.0192(14) Uani d 1
C C5 0.4104(6) 0.6541(18) 0.2851(4) 0.0210(15) Uani d 1
H H5 0.4699 0.6126 0.2523 0.025 Uiso calc 1
C C6 0.4319(6) 0.5560(18) 0.3623(4) 0.0250(15) Uani d 1
H H6 0.5079 0.4547 0.3826 0.030 Uiso calc 1
Br Br11 0.77175(6) 0.51283(17) 0.85196(4) 0.0268(2) Uani d 1
O O11 0.6691(5) 1.1576(16) 0.5080(3) 0.0378(14) Uani d 1
O O12 0.5605(4) 1.1624(16) 0.6013(3) 0.0387(14) Uani d 1
N N11 0.8927(6) 0.9025(18) 0.5326(4) 0.0291(14) Uani d 1
H H11A 0.969(2) 0.86(2) 0.528(5) 0.04(2) Uiso d 1
H H11B 0.837(5) 1.016(18) 0.501(4) 0.04(3) Uiso d 1
N N12 0.6553(5) 1.0795(16) 0.5758(4) 0.0254(14) Uani d 1
C C11 0.8602(6) 0.8231(17) 0.6033(4) 0.0187(14) Uani d 1
C C12 0.7478(6) 0.9009(16) 0.6259(4) 0.0172(13) Uani d 1
C C13 0.7217(6) 0.8121(17) 0.7007(4) 0.0179(14) Uani d 1
H H13 0.6451 0.8691 0.7149 0.022 Uiso calc 1
C C14 0.8055(6) 0.6462(16) 0.7522(4) 0.0159(13) Uani d 1
C C15 0.9211(6) 0.5656(16) 0.7317(4) 0.0196(13) Uani d 1
H H15 0.9808 0.4539 0.7684 0.024 Uiso calc 1
C C16 0.9454(6) 0.6492(17) 0.6595(4) 0.0199(14) Uani d 1
H H16 1.0223 0.5894 0.6460 0.024 Uiso calc 1
loop_
_atom_site_aniso_label
_atom_site_aniso_U_11
_atom_site_aniso_U_22
_atom_site_aniso_U_33
_atom_site_aniso_U_12
_atom_site_aniso_U_13
_atom_site_aniso_U_23
Br1 0.0404(5) 0.0233(3) 0.0199(4) 0.0028(4) 0.0134(4) 0.0035(4)
O1 0.029(3) 0.043(3) 0.012(3) 0.003(2) 0.007(2) 0.004(2)
O2 0.019(2) 0.050(4) 0.025(3) 0.013(2) 0.005(2) 0.009(2)
N1 0.030(4) 0.029(4) 0.020(3) 0.009(3) -0.007(3) 0.006(3)
N2 0.014(3) 0.031(3) 0.017(3) -0.001(2) 0.000(2) 0.002(2)
C1 0.015(3) 0.016(3) 0.025(4) 0.002(3) -0.007(3) 0.001(3)
C2 0.015(3) 0.022(4) 0.013(3) -0.003(3) 0.005(2) -0.001(3)
C3 0.014(3) 0.018(3) 0.012(3) 0.000(2) 0.004(3) 0.001(2)
C4 0.021(4) 0.020(3) 0.018(4) -0.005(3) 0.009(3) -0.003(3)
C5 0.016(3) 0.023(4) 0.025(4) -0.002(3) 0.008(3) -0.002(3)
C6 0.013(3) 0.028(4) 0.032(4) 0.004(3) 0.000(3) -0.001(3)
Br11 0.0406(5) 0.0233(3) 0.0179(4) -0.0007(3) 0.0091(3) 0.0024(3)
O11 0.036(3) 0.054(4) 0.022(3) 0.003(3) -0.001(3) 0.015(3)
O12 0.014(3) 0.061(4) 0.040(3) 0.014(2) 0.001(2) 0.015(3)
N11 0.030(4) 0.042(4) 0.018(3) -0.004(3) 0.015(3) -0.001(3)
N12 0.020(3) 0.032(3) 0.023(3) -0.001(3) -0.001(3) 0.008(3)
C11 0.020(4) 0.018(4) 0.020(4) 0.001(3) 0.009(3) -0.005(3)
C12 0.016(3) 0.019(3) 0.018(3) 0.001(3) 0.005(3) -0.002(2)
C13 0.015(3) 0.019(3) 0.022(4) -0.001(3) 0.008(3) 0.001(3)
C14 0.020(3) 0.016(3) 0.013(3) -0.001(3) 0.004(3) 0.002(2)
C15 0.016(3) 0.021(3) 0.020(3) 0.004(3) -0.004(3) 0.000(3)
C16 0.013(3) 0.023(3) 0.025(4) 0.003(3) 0.005(3) -0.004(3)
loop_
_atom_type_symbol
_atom_type_description
_atom_type_scat_dispersion_real
_atom_type_scat_dispersion_imag
_atom_type_scat_source
C C 0.0033 0.0016 'International Tables Vol C Tables 4.2.6.8 and 6.1.1.4'
H H 0.0000 0.0000 'International Tables Vol C Tables 4.2.6.8 and 6.1.1.4'
Br Br -0.2901 2.4595 'International Tables Vol C Tables 4.2.6.8 and 6.1.1.4'
N N 0.0061 0.0033 'International Tables Vol C Tables 4.2.6.8 and 6.1.1.4'
O O 0.0106 0.0060 'International Tables Vol C Tables 4.2.6.8 and 6.1.1.4'
loop_
_geom_angle_atom_site_label_1
_geom_angle_atom_site_label_2
_geom_angle_atom_site_label_3
_geom_angle
H1A N1 H1B 122(7)
C1 N1 H1A 119(5)
C1 N1 H1B 119(6)
O1 N2 C2 120.2(5)
O2 N2 O1 120.9(5)
O2 N2 C2 118.9(5)
N1 C1 C2 124.3(7)
N1 C1 C6 119.4(6)
C6 C1 C2 116.3(6)
C1 C2 N2 121.8(6)
C3 C2 N2 116.1(6)
C3 C2 C1 122.1(6)
C2 C3 H3 120.5
C4 C3 C2 119.1(6)
C4 C3 H3 120.5
C3 C4 Br1 118.8(5)
C3 C4 C5 120.7(6)
C5 C4 Br1 120.5(5)
C4 C5 H5 119.9
C6 C5 C4 120.2(6)
C6 C5 H5 119.9
C1 C6 H6 119.2
C5 C6 C1 121.7(6)
C5 C6 H6 119.2
H11A N11 H11B 130(8)
C11 N11 H11A 115(5)
C11 N11 H11B 115(6)
O11 N12 O12 120.3(6)
O11 N12 C12 120.6(6)
O12 N12 C12 119.0(6)
N11 C11 C12 125.1(6)
N11 C11 C16 118.5(6)
C12 C11 C16 116.4(6)
C11 C12 N12 122.1(6)
C11 C12 C13 121.5(6)
C13 C12 N12 116.4(5)
C12 C13 H13 120.0
C14 C13 C12 120.0(6)
C14 C13 H13 120.0
C13 C14 Br11 121.0(5)
C13 C14 C15 120.3(6)
C15 C14 Br11 118.8(5)
C14 C15 H15 120.2
C16 C15 C14 119.6(6)
C16 C15 H15 120.2
C11 C16 H16 118.9
C15 C16 C11 122.3(6)
C15 C16 H16 118.9
loop_
_geom_bond_atom_site_label_1
_geom_bond_atom_site_label_2
_geom_bond_distance
Br1 C4 1.892(7)
O1 N2 1.249(6)
O2 N2 1.241(7)
N1 H1A 0.879(7)
N1 H1B 0.879(7)
N1 C1 1.346(10)
N2 C2 1.436(8)
C1 C2 1.411(9)
C1 C6 1.407(10)
C2 C3 1.405(8)
C3 H3 0.9500
C3 C4 1.358(8)
C4 C5 1.399(9)
C5 H5 0.9500
C5 C6 1.370(10)
C6 H6 0.9500
Br11 C14 1.890(6)
O11 N12 1.240(8)
O12 N12 1.247(7)
N11 H11A 0.881(7)
N11 H11B 0.880(7)
N11 C11 1.360(9)
N12 C12 1.419(9)
C11 C12 1.401(9)
C11 C16 1.419(9)
C12 C13 1.409(9)
C13 H13 0.9500
C13 C14 1.348(9)
C14 C15 1.421(9)
C15 H15 0.9500
C15 C16 1.355(9)
C16 H16 0.9500
loop_
_geom_hbond_atom_site_label_D
_geom_hbond_atom_site_label_H
_geom_hbond_atom_site_label_A
_geom_hbond_site_symmetry_A
_geom_hbond_distance_DH
_geom_hbond_distance_HA
_geom_hbond_distance_DA
_geom_hbond_angle_DHA
_geom_hbond_publ_flag
N1 H1A O1 . 0.89(6) 1.99(6) 2.640(9) 129(4) yes
N1 H1B O12 1_545 0.88(5) 2.19(7) 2.967(9) 148(6) yes
N11 H11A O1 1_655 0.88(3) 2.23(4) 3.104(8) 169(8) yes
N11 H11B O11 . 0.88(6) 1.97(6) 2.655(9) 134(6) yes
N11 H11B N12 . 0.88(6) 2.58(6) 2.939(9) 106(5) yes
loop_
_geom_torsion_atom_site_label_1
_geom_torsion_atom_site_label_2
_geom_torsion_atom_site_label_3
_geom_torsion_atom_site_label_4
_geom_torsion
Br1 C4 C5 C6 179.9(5)
O1 N2 C2 C1 -6.5(10)
O1 N2 C2 C3 174.2(6)
O2 N2 C2 C1 172.8(6)
O2 N2 C2 C3 -6.6(9)
N1 C1 C2 N2 1.7(11)
N1 C1 C2 C3 -179.0(6)
N1 C1 C6 C5 177.7(7)
N2 C2 C3 C4 179.5(6)
C1 C2 C3 C4 0.2(10)
C2 C1 C6 C5 -2.5(10)
C2 C3 C4 Br1 178.9(5)
C2 C3 C4 C5 -0.5(9)
C3 C4 C5 C6 -0.7(10)
C4 C5 C6 C1 2.2(10)
C6 C1 C2 N2 -178.0(6)
C6 C1 C2 C3 1.3(10)
Br11 C14 C15 C16 177.9(5)
O11 N12 C12 C11 3.7(10)
O11 N12 C12 C13 -177.7(6)
O12 N12 C12 C11 -175.1(6)
O12 N12 C12 C13 3.6(9)
N11 C11 C12 N12 -0.8(10)
N11 C11 C12 C13 -179.4(7)
N11 C11 C16 C15 178.9(7)
N12 C12 C13 C14 -179.1(6)
C11 C12 C13 C14 -0.5(10)
C12 C11 C16 C15 -0.8(10)
C12 C13 C14 Br11 -178.3(5)
C12 C13 C14 C15 1.1(10)
C13 C14 C15 C16 -1.6(10)
C14 C15 C16 C11 1.4(10)
C16 C11 C12 N12 178.9(6)
C16 C11 C12 C13 0.3(9)

_cod_database_fobs_code 2021316
