#------------------------------------------------------------------------------
#$Date: 2019-02-03 22:56:57 +0200 (Sun, 03 Feb 2019) $
#$Revision: 213460 $
#$URL: file:///home/coder/svn-repositories/cod/cif/2/02/14/2021416.cif $
#------------------------------------------------------------------------------
#
# This file is available in the Crystallography Open Database (COD),
# http://www.crystallography.net/. The original data for this entry
# were provided by IUCr Journals, http://journals.iucr.org/.
#
# The file may be used within the scientific community so long as
# proper attribution is given to the journal article from which the
# data were obtained.
#
data_2021416
loop_
_publ_author_name
'Roodt, Gerhard T.'
'Uprety, Bhawna'
'Levendis, Demetrius C.'
'Arderne, Charmaine'
_publ_section_title
;
 Energetic propane-1,3-diaminium and butane-1,4-diaminium salts of
 <i>N</i>,<i>N</i>'-dinitroethylenediazanide: syntheses, crystal
 structures and thermal properties
;
_journal_coeditor_code           WQ3142
_journal_issue                   1
_journal_name_full               'Acta Crystallographica Section C'
_journal_page_first              54
_journal_page_last               60
_journal_paper_doi               10.1107/S2053229618017588
_journal_volume                  75
_journal_year                    2019
_chemical_formula_iupac          'C4 H14 N2 2+, C2 H4 N4 O4 2-'
_chemical_formula_moiety         'C4 H14 N2 2+, C2 H4 N4 O4 2-'
_chemical_formula_sum            'C6 H18 N6 O4'
_chemical_formula_weight         238.26
_chemical_name_common            'Putrescine ethylenedinitramine'
_chemical_name_systematic
;
Butane-1,4-diaminium (ethane-1,2-diyl)bis(nitroazanide)
;
_space_group_crystal_system      monoclinic
_space_group_IT_number           14
_space_group_name_Hall           '-P 2yn'
_space_group_name_H-M_alt        'P 1 21/n 1'
_symmetry_space_group_name_Hall  '-P 2yn'
_symmetry_space_group_name_H-M   'P 1 21/n 1'
_atom_sites_solution_hydrogens   mixed
_atom_sites_solution_primary     dual
_audit_creation_method
;
Olex2 1.2
(compiled 2018.05.29 svn.r3508 for OlexSys, GUI svn.r5506)
;
_cell_angle_alpha                90
_cell_angle_beta                 98.03(3)
_cell_angle_gamma                90
_cell_formula_units_Z            2
_cell_length_a                   5.408(3)
_cell_length_b                   7.203(4)
_cell_length_c                   14.288(8)
_cell_measurement_reflns_used    6899
_cell_measurement_temperature    100(2)
_cell_measurement_theta_max      28.570
_cell_measurement_theta_min      2.906
_cell_volume                     551.1(5)
_computing_cell_refinement
;
SAINT (Bruker, 2015)
;
_computing_data_collection
;
APEX2 (Bruker, 2015)
;
_computing_data_reduction
;
SAINT (Bruker, 2015)
;
_computing_molecular_graphics
;
OLEX2 (Dolomanov <i>et al.</i>,  2009)
;
_computing_publication_material
;
OLEX2 (Dolomanov <i>et al.</i>,  2009)
;
_computing_structure_refinement
;
SHELXL2018 (Sheldrick, 2015b)
;
_computing_structure_solution
;
SHELXT2014 (Sheldrick, 2015a)
;
_diffrn_ambient_temperature      100.15
_diffrn_measured_fraction_theta_full 0.999
_diffrn_measured_fraction_theta_max 0.997
_diffrn_measurement_device_type  'Bruker APEXII CCD'
_diffrn_measurement_method       '\f and \w scans'
_diffrn_radiation_type           MoK\a
_diffrn_radiation_wavelength     0.71073
_diffrn_reflns_av_R_equivalents  0.0441
_diffrn_reflns_av_unetI/netI     0.0194
_diffrn_reflns_limit_h_max       7
_diffrn_reflns_limit_h_min       -7
_diffrn_reflns_limit_k_max       9
_diffrn_reflns_limit_k_min       -9
_diffrn_reflns_limit_l_max       19
_diffrn_reflns_limit_l_min       -18
_diffrn_reflns_number            11975
_diffrn_reflns_theta_full        25.242
_diffrn_reflns_theta_max         28.328
_diffrn_reflns_theta_min         2.880
_exptl_absorpt_coefficient_mu    0.119
_exptl_absorpt_correction_T_max  0.7457
_exptl_absorpt_correction_T_min  0.6970
_exptl_absorpt_correction_type   multi-scan
_exptl_absorpt_process_details
;
(SADABS; Bruker, 2016)
;
_exptl_crystal_colour            colourless
_exptl_crystal_density_diffrn    1.436
_exptl_crystal_description       block
_exptl_crystal_F_000             256
_exptl_crystal_size_max          0.435
_exptl_crystal_size_mid          0.406
_exptl_crystal_size_min          0.261
_refine_diff_density_max         0.424
_refine_diff_density_min         -0.222
_refine_ls_extinction_method     none
_refine_ls_goodness_of_fit_ref   1.068
_refine_ls_hydrogen_treatment    mixed
_refine_ls_matrix_type           full
_refine_ls_number_parameters     85
_refine_ls_number_reflns         1371
_refine_ls_number_restraints     3
_refine_ls_restrained_S_all      1.068
_refine_ls_R_factor_all          0.0332
_refine_ls_R_factor_gt           0.0308
_refine_ls_shift/su_max          0.000
_refine_ls_shift/su_mean         0.000
_refine_ls_structure_factor_coef Fsqd
_refine_ls_weighting_details
'w=1/[\s^2^(Fo^2^)+(0.0442P)^2^+0.1942P] where P=(Fo^2^+2Fc^2^)/3'
_refine_ls_weighting_scheme      calc
_refine_ls_wR_factor_gt          0.0842
_refine_ls_wR_factor_ref         0.0861
_reflns_number_gt                1258
_reflns_number_total             1371
_reflns_threshold_expression     'I > 2\s(I)'
_cod_data_source_file            wq3142sup1.cif
_cod_data_source_block           mo_17ca_grcc6_0m
_cod_depositor_comments
'Adding full bibliography for 2021415--2021416.cif.'
_cod_original_cell_volume        551.0(5)
_cod_database_code               2021416
_cod_database_fobs_code          2021416
_shelx_space_group_comment
;
The symmetry employed for this shelxl refinement is uniquely defined
by the following loop, which should always be used as a source of
symmetry information in preference to the above space-group names.
They are only intended as comments.
;
_shelx_estimated_absorpt_t_min   0.950
_shelx_estimated_absorpt_t_max   0.970
_shelx_hkl_file
;
   1   0   0    0.00    0.20
   1   0   0    0.40    0.20
   1   0   0   -0.10    0.20
   1   0   0    0.20    0.20
   1   0   0   -0.10    0.10
   1   0   0    0.40    0.20
   1   0   0    0.00    0.20
  -1   0   0   -0.10    0.20
  -1   0   0    0.10    0.20
  -1   0   0    0.10    0.20
   1   0   0    0.00    0.20
   2   0   0   11.40    1.00
   2   0   0   12.20    1.00
   2   0   0    9.80    1.00
   2   0   0   12.30    1.00
  -2   0   0   10.20    1.20
  -2   0   0   13.30    1.00
   2   0   0   11.70    1.10
  -2   0   0   11.50    1.10
   2   0   0   12.10    1.10
   2   0   0   12.70    1.00
   2   0   0   12.80    0.90
   3   0   0    0.00    0.40
   3   0   0    0.30    0.40
   3   0   0   -0.30    0.30
   3   0   0    0.00    0.40
   3   0   0    0.10    0.30
   3   0   0   -0.10    0.40
   3   0   0    0.00    0.30
   3   0   0    0.10    0.40
   3   0   0    0.50    0.30
  -3   0   0    0.00    0.40
  -3   0   0    0.10    0.40
  -4   0   0 1096.89   56.29
   4   0   0 1191.88   56.29
   4   0   0 1212.18   56.39
  -4   0   0 1207.18   56.59
   4   0   0 1143.49   55.99
   4   0   0 1066.59   56.39
   4   0   0 1171.08   56.19
   4   0   0 1200.18   56.29
   4   0   0 1115.79   56.09
  -5   0   0    0.60    0.70
  -5   0   0    0.10    0.70
   5   0   0    0.00    0.60
   5   0   0   -0.70    0.40
   5   0   0    0.20    0.60
   5   0   0    0.00    0.60
   6   0   0    0.30    0.80
   6   0   0   -0.50    0.60
  -6   0   0   -0.40    0.80
  -6   0   0   -0.30    0.80
   6   0   0   -0.30    0.50
  -7   0   0    1.00    1.10
   7   0   0   -0.40    0.70
   7   0   0   -1.20    0.90
  -7   0   0    0.30    1.00
   0  -1   0   -5.30    0.30
   0  -1   0   -6.20    0.30
   0  -1   0   -6.30    0.30
   0  -1   0   -5.70    0.30
   0   1   0   -6.00    0.20
   0   1   0   -5.90    0.30
   0   1   0   -6.00    0.30
   0   1   0   -5.40    0.30
   0   1   0   -5.90    0.30
   1  -1   0 1809.22   84.99
  -1  -1   0 1571.64   84.79
  -1  -1   0 1738.33   84.79
   1  -1   0 1752.32   84.59
  -1  -1   0 1572.24   84.79
   1  -1   0 1825.12   85.09
   1  -1   0 1697.23   84.69
   1  -1   0 1832.32   85.09
   1  -1   0 1738.23   84.69
   1   1   0 1794.02   84.79
   1   1   0 1850.31   84.89
   1   1   0 1833.52   84.89
  -1   1   0 1708.33   84.89
  -1   1   0 1717.63   84.69
  -1   1   0 1776.32   84.69
   1   1   0 1813.72   84.79
  -1   1   0 1808.22   85.09
   1   1   0 1752.12   84.69
  -2  -1   0   45.50    2.80
  -2  -1   0   47.80    2.70
   2  -1   0   46.70    2.50
   2  -1   0   48.50    2.50
   2  -1   0   50.89    2.60
   2  -1   0   47.30    2.60
   2  -1   0   42.90    2.60
   2  -1   0   44.80    2.60
   2  -1   0   47.40    2.60
   2   1   0   52.19    2.80
  -2   1   0   43.00    2.60
   2   1   0   46.20    2.60
   2   1   0   59.19    3.00
  -2   1   0   49.20    2.50
   2   1   0   44.00    2.70
  -2   1   0   43.90    2.60
   2   1   0   46.30    2.70
   2   1   0   44.40    2.80
   2   1   0   50.89    2.60
   3  -1   0  379.06   19.30
   3  -1   0  410.96   19.40
  -3  -1   0  370.66   19.80
   3  -1   0  403.36   19.50
   3  -1   0  408.46   19.60
   3  -1   0  408.86   19.60
  -3  -1   0  381.96   19.60
   3  -1   0  398.16   19.50
   3  -1   0  392.36   19.10
   3  -1   0  396.36   19.50
  -3   1   0  357.26   19.60
   3   1   0  401.26   19.50
   3   1   0  403.46   19.30
   3   1   0  395.06   19.70
   3   1   0  379.66   19.50
  -3   1   0  378.86   19.60
   3   1   0  426.76   19.90
   3   1   0  441.76   19.80
  -3   1   0  391.76   19.40
   3   1   0  382.56   19.50
  -4  -1   0  176.68    9.40
   4  -1   0  171.88    9.20
   4  -1   0  191.58    9.00
   4  -1   0  177.98    9.30
   4  -1   0  176.08    9.30
   4  -1   0  186.68    9.30
  -4  -1   0  175.18    9.60
   4  -1   0  182.28    9.00
   4   1   0  188.78    9.30
   4   1   0  152.68    9.40
   4   1   0  168.28    9.20
  -4   1   0  168.88    9.40
   4   1   0  175.48    9.60
   4   1   0  181.28    9.20
  -4   1   0  179.88    9.20
   4   1   0  184.78    9.50
   4   1   0  181.88    8.90
   4   1   0  188.48    9.50
  -5  -1   0  391.76   20.80
   5  -1   0  397.16   20.40
   5  -1   0  409.46   19.90
   5  -1   0  409.26   19.80
  -5  -1   0  402.16   20.50
   5  -1   0  384.56   20.40
   5  -1   0  410.86   20.30
  -5   1   0  392.36   20.30
   5   1   0  419.76   20.40
   5   1   0  398.46   19.90
   5   1   0  420.36   20.60
  -5   1   0  415.26   20.60
   6  -1   0    1.30    1.00
   6  -1   0    0.40    0.70
  -6  -1   0    0.60    1.00
   6  -1   0    1.60    0.70
  -6  -1   0    1.40    1.00
   6   1   0    0.20    0.90
  -6   1   0    0.90    0.80
   6   1   0    1.30    0.90
   6   1   0    1.60    0.60
  -6   1   0    0.00    0.80
  -7  -1   0  129.19    8.30
  -7  -1   0  138.19    8.00
  -7   1   0  137.69    7.90
   7   1   0  130.19    7.80
  -7   1   0  128.89    8.00
   0  -2   0 5952.90  273.97
   0  -2   0 5800.02  274.47
   0  -2   0 5845.22  274.57
   0  -2   0 6339.97  274.77
   0   2   0 5794.12  274.47
   0   2   0 5574.24  273.37
   0   2   0 5001.30  273.97
   0   2   0 5166.68  274.17
   0   2   0 5609.54  274.07
   1  -2   0 3266.97  158.08
  -1  -2   0 2955.60  157.88
  -1  -2   0 3405.06  158.18
  -1  -2   0 2853.41  157.78
   1  -2   0 3402.76  158.28
   1  -2   0 3219.98  158.48
   1  -2   0 3258.57  158.28
   1   2   0 3584.44  158.88
   1   2   0 3155.28  157.78
  -1   2   0 3273.57  158.48
  -1   2   0 3435.96  157.78
  -1   2   0 3197.08  157.78
   1   2   0 3617.64  159.08
   1   2   0 3180.68  157.78
   2  -2   0  997.10   46.50
   2  -2   0  988.70   46.50
   2  -2   0  967.60   46.50
   2  -2   0  975.20   46.50
   2  -2   0  980.40   46.50
  -2  -2   0 1014.20   46.80
  -2  -2   0 1062.49   47.00
   2   2   0  963.30   46.80
   2   2   0  865.61   46.90
   2   2   0  943.51   46.70
  -2   2   0  914.81   46.50
  -2   2   0  957.80   46.40
   2   2   0  957.00   46.50
   2   2   0  991.50   46.60
  -2   2   0  938.11   46.40
   2   2   0  849.52   46.80
  -2   2   0  965.80   46.60
   3  -2   0  494.85   23.30
  -3  -2   0  484.75   23.60
  -3  -2   0  447.76   23.80
   3  -2   0  490.75   23.20
   3  -2   0  484.95   23.30
   3  -2   0  490.25   23.30
   3  -2   0  471.55   23.30
  -3   2   0  485.35   23.20
   3   2   0  464.15   23.80
   3   2   0  463.05   23.60
  -3   2   0  484.25   23.40
   3   2   0  455.15   23.50
   3   2   0  481.95   23.30
   3   2   0  490.25   23.40
   3   2   0  433.66   23.70
  -3   2   0  482.45   23.40
  -4  -2   0  124.09    7.20
   4  -2   0  126.69    6.60
   4  -2   0  131.49    6.60
   4  -2   0  125.79    6.60
  -4  -2   0  131.89    6.90
   4  -2   0  125.29    6.40
  -4   2   0  130.79    6.60
  -4   2   0  122.69    6.70
   4   2   0  103.09    6.60
   4   2   0  114.19    7.00
   4   2   0  130.89    6.30
   4   2   0  128.39    6.70
   4   2   0  117.59    7.00
  -5  -2   0  321.27   17.30
   5  -2   0  337.57   16.40
   5  -2   0  303.57   16.70
   5  -2   0  340.67   16.70
   5  -2   0  339.77   16.70
   5  -2   0  320.47   16.60
  -5  -2   0  313.97   16.90
   5   2   0  312.37   17.00
  -5   2   0  336.57   16.80
   5   2   0  339.87   16.80
  -5   2   0  348.07   16.70
   5   2   0  335.27   16.20
   6  -2   0    0.50    0.70
  -6  -2   0    0.50    1.10
  -6  -2   0    0.40    0.90
   6   2   0   -0.50    0.90
   6   2   0   -0.20    0.90
  -6   2   0   -1.00    0.60
  -6   2   0    0.00    0.70
   0  -3   0    0.60    0.40
   0  -3   0    0.00    0.30
   0  -3   0   -0.20    0.30
   0  -3   0    0.00    0.20
   0   3   0    0.20    0.30
   0   3   0    0.00    0.30
   0   3   0    0.10    0.30
   0   3   0    0.00    0.30
   0   3   0    0.10    0.10
   1  -3   0    1.20    0.30
  -1  -3   0    2.00    0.50
   1  -3   0    1.70    0.40
   1  -3   0    1.70    0.40
   1  -3   0    2.10    0.40
  -1  -3   0    1.20    0.50
  -1  -3   0    1.40    0.50
  -1  -3   0    1.10    0.60
  -1   3   0    1.00    0.40
   1   3   0    1.40    0.50
  -1   3   0    1.60    0.30
   1   3   0    1.60    0.30
   1   3   0    1.50    0.60
  -1   3   0    1.50    0.40
   1   3   0    2.10    0.60
  -2  -3   0  110.99    6.20
   2  -3   0  111.09    5.90
  -2  -3   0  103.59    6.40
   2  -3   0  114.59    5.90
   2   3   0  117.59    5.90
  -2   3   0  117.19    5.80
  -2   3   0  114.59    5.90
   2   3   0  130.09    6.30
   2   3   0  130.19    6.50
   2   3   0  118.79    6.00
  -3  -3   0   90.19    5.30
   3  -3   0   93.69    4.70
   3  -3   0   93.49    4.70
  -3  -3   0   90.29    5.00
   3   3   0   91.09    5.10
   3   3   0   88.39    4.80
   3   3   0   87.09    5.00
  -3   3   0   88.29    4.60
  -3   3   0   90.59    4.70
   3   3   0   80.09    5.20
   3   3   0   75.29    5.20
  -4  -3   0   65.99    4.00
   4  -3   0   62.29    3.60
  -4  -3   0   67.99    4.40
   4  -3   0   58.59    3.60
   4   3   0   62.39    3.30
  -4   3   0   65.39    3.60
   4   3   0   64.79    4.00
   4   3   0   62.29    4.30
   4   3   0   55.29    4.20
   4   3   0   60.69    3.80
  -4   3   0   64.89    3.70
   5  -3   0  318.97   16.30
  -5  -3   0  345.37   16.80
  -5  -3   0  349.67   17.30
   5  -3   0  296.57   16.30
   5   3   0  326.47   16.60
   5   3   0  317.87   17.00
  -5   3   0  306.97   16.40
   5   3   0  323.57   16.50
  -5   3   0  326.57   16.30
  -6  -3   0  142.29    8.30
   6  -3   0  114.29    7.10
  -6  -3   0  125.69    7.70
   6  -3   0  130.79    7.20
  -6   3   0  128.89    7.20
   6   3   0  132.79    7.40
  -6   3   0  128.49    7.30
   6   3   0  132.89    7.90
   0  -4   0    0.40    0.30
   0  -4   0    0.20    0.40
   0  -4   0    0.80    0.50
   0  -4   0    0.40    0.40
   0   4   0    0.50    0.20
   0   4   0    1.00    0.50
   0   4   0    0.80    0.50
   0   4   0    0.70    0.50
   0   4   0    0.40    0.40
  -1  -4   0   25.00    1.90
  -1  -4   0   27.90    1.80
   1  -4   0   26.70    1.70
   1  -4   0   29.20    1.80
   1  -4   0   25.00    1.80
  -1  -4   0   28.70    2.00
  -1  -4   0   28.00    2.10
  -1   4   0   28.70    1.80
   1   4   0   28.10    1.60
  -1   4   0   27.70    1.70
  -1   4   0   27.60    1.50
   1   4   0   22.40    2.00
   1   4   0   31.70    2.20
   1   4   0   24.80    1.90
  -1   4   0   27.30    1.80
  -2  -4   0  351.26   16.50
   2  -4   0  326.47   16.00
   2  -4   0  332.27   16.00
  -2  -4   0  316.07   16.30
  -2  -4   0  324.47   16.60
   2   4   0  326.87   16.00
  -2   4   0  319.27   16.00
   2   4   0  333.37   16.40
   2   4   0  323.57   16.60
  -2   4   0  319.37   15.90
   2   4   0  294.67   16.50
  -3  -4   0   16.20    1.70
  -3  -4   0   12.70    1.80
   3  -4   0   13.20    1.10
   3  -4   0   12.10    1.10
   3   4   0   13.50    1.30
  -3   4   0   11.60    1.00
   3   4   0   13.10    1.80
   3   4   0   15.70    1.70
   3   4   0   16.30    2.00
   4  -4   0  171.78    8.80
  -4  -4   0  164.18    9.30
  -4  -4   0  182.38    9.80
   4  -4   0  170.18    8.70
   4   4   0  170.08    9.00
   4   4   0  183.98    9.40
   4   4   0  155.18    9.60
   4   4   0  166.38    9.70
  -4   4   0  172.58    8.70
   5  -4   0  208.18   10.50
  -5  -4   0  207.68   11.10
  -5  -4   0  211.58   11.60
   5  -4   0  193.48   10.50
   5   4   0  198.68   11.00
   5   4   0  199.28   11.50
   5   4   0  192.78   10.70
  -5   4   0  211.88   10.80
  -6  -4   0    6.00    1.80
   6  -4   0    7.30    1.20
   6  -4   0    6.00    1.10
  -6  -4   0    7.40    1.70
   6   4   0    5.20    1.30
   6   4   0    7.30    1.80
   0  -5   0    0.20    0.30
   0  -5   0    0.30    0.40
   0  -5   0   -0.20    0.40
   0  -5   0    0.10    0.50
   0   5   0   -0.10    0.50
   0   5   0    0.20    0.50
   0   5   0    0.40    0.40
  -1  -5   0  364.16   19.10
   1  -5   0  406.96   18.80
   1  -5   0  362.96   18.70
  -1  -5   0  389.36   19.00
  -1  -5   0  370.56   18.70
  -1  -5   0  389.06   19.10
  -1   5   0  378.76   18.90
   1   5   0  338.87   18.90
  -1   5   0  361.96   18.70
   1   5   0  393.06   19.20
   1   5   0  411.76   19.20
   1   5   0  376.46   18.40
  -2  -5   0   93.19    6.00
  -2  -5   0  102.99    5.70
   2  -5   0  108.99    5.50
   2  -5   0  103.99    5.40
   2   5   0  100.09    6.10
   2   5   0  109.19    6.20
   2   5   0  106.79    5.90
   2   5   0  102.59    5.30
  -2   5   0   97.59    5.40
  -3  -5   0   66.49    4.20
  -3  -5   0   76.29    4.80
   3  -5   0   69.29    3.80
   3  -5   0   71.79    3.80
   3   5   0   72.19    4.70
   3   5   0   61.59    4.30
   3   5   0   63.59    4.60
   3   5   0   66.29    3.80
  -3   5   0   64.79    3.70
   4  -5   0   67.29    3.80
   4  -5   0   64.09    3.80
  -4  -5   0   58.19    4.70
  -4  -5   0   71.29    4.40
   4   5   0   71.49    4.00
   4   5   0   59.69    4.40
   4   5   0   65.29    4.80
   4   5   0   71.69    4.90
   4   5   0   77.49    4.60
  -5  -5   0   12.00    2.00
   5  -5   0   13.20    1.30
   5  -5   0   12.60    1.40
  -5  -5   0   17.20    2.60
   5   5   0    9.20    2.10
   5   5   0   10.10    1.50
   5   5   0   13.60    2.00
  -6  -5   0   78.99    5.90
  -6  -5   0   69.59    5.20
   6  -5   0   70.69    4.30
   6  -5   0   72.49    4.30
   6   5   0   75.09    4.80
   6   5   0   77.19    5.60
   0  -6   0    5.80    1.00
   0  -6   0    6.90    1.10
   0   6   0    6.20    1.10
   0   6   0    3.90    1.00
   1  -6   0    7.40    1.00
  -1  -6   0    7.00    1.20
   1  -6   0    9.50    1.20
   1   6   0    9.90    1.40
   1   6   0    9.30    1.50
   1   6   0    7.80    1.30
  -1   6   0    9.80    1.30
  -1   6   0   11.20    1.20
   2  -6   0  118.69    5.90
   2  -6   0  107.09    5.90
  -2  -6   0  100.49    6.00
   2  -6   0  112.29    5.90
  -2   6   0  108.99    5.80
   2   6   0  114.39    6.40
   2   6   0  116.99    6.70
   2   6   0  101.59    6.60
  -2   6   0  104.99    5.90
   3  -6   0   34.10    2.10
  -3  -6   0   30.10    2.50
   3  -6   0   34.40    2.10
  -3   6   0   28.30    2.10
   3   6   0   29.90    3.00
   3   6   0   31.60    3.10
   3   6   0   27.50    2.70
   4  -6   0  204.08   10.50
   4  -6   0  197.28   10.50
  -4  -6   0  214.98   11.30
   4   6   0  219.08   11.50
   4   6   0  201.08   11.80
   4   6   0  202.38   11.80
   4   6   0  220.78   11.50
   5  -6   0    5.20    0.80
  -5  -6   0    5.10    1.50
   5  -6   0    5.70    0.90
   5   6   0    7.50    1.80
   5   6   0    3.40    1.70
   0  -7   0    0.20    0.70
   0   7   0   -0.30    0.60
   0   7   0    0.30    0.70
   1  -7   0  300.67   15.40
   1  -7   0  317.87   15.50
   1  -7   0  273.67   15.50
   1   7   0  321.27   15.90
  -1   7   0  290.67   15.30
  -1   7   0  292.37   15.50
   1   7   0  322.67   15.70
   2  -7   0    1.10    0.50
   2  -7   0    0.50    0.50
   2  -7   0    0.60    0.50
  -2   7   0    1.50    0.70
   2   7   0    0.60    1.00
  -2   7   0    1.30    0.60
   2   7   0    2.10    1.00
   2   7   0    1.00    1.10
   3  -7   0  304.17   15.10
   3  -7   0  295.77   15.00
  -3   7   0  305.57   15.10
   3   7   0  285.07   16.20
   3   7   0  311.87   16.40
   3   7   0  294.57   15.90
   4  -7   0  134.99    7.20
   4  -7   0  134.99    7.20
   4   7   0  137.79    8.80
   4   7   0  151.78    8.40
   4   7   0  143.09    8.30
   4   7   0  133.19    8.70
   0  -8   0   54.69    3.80
   0   8   0   52.39    3.80
   0   8   0   56.19    3.80
   1  -8   0    3.70    0.90
   1  -8   0    4.10    1.10
   1   8   0    4.30    1.30
   1   8   0    5.70    1.40
  -1   8   0    2.80    1.00
  -1   8   0    4.70    1.10
   2  -8   0   68.59    4.30
   2  -8   0   71.09    4.30
  -2   8   0   71.49    4.40
   2   8   0   72.79    5.20
   2   8   0   74.89    5.00
  -2   8   0   72.19    4.40
   3  -8   0    1.10    0.60
   3  -8   0    1.30    0.60
   3   8   0    1.60    1.10
   3   8   0    1.80    1.40
   3   8   0    1.00    1.40
  -3   8   0    1.40    0.70
   0   9   0    0.20    0.90
   0   9   0   -0.80    0.80
   1  -9   0   89.89    5.50
   1  -9   0   84.49    5.50
  -1   9   0   89.49    5.60
  -1   9   0   88.09    5.50
   1   9   0   94.99    6.20
   1   9   0   97.29    5.90
   2  -9   0    1.90    0.80
   2  -9   0    1.20    0.70
  -2   9   0    0.90    0.80
   2   9   0    2.30    1.30
   2   9   0   -0.10    1.10
   7   0  -1   35.10    2.60
  -7   0   1   40.20    3.30
  -7   0   1   35.70    3.50
  -6   0   1   -0.10    0.70
   6   0  -1    0.70    0.60
   6   0  -1    0.70    0.90
   6   0  -1    0.50    0.70
  -6   0   1    0.40    0.80
  -5   0   1  133.89    7.00
   5   0  -1  117.79    6.80
  -5   0   1  133.19    7.30
   5   0  -1  111.89    6.90
   5   0  -1  127.29    6.90
   5   0  -1  125.39    6.50
   4   0  -1    0.20    0.50
   4   0  -1    0.10    0.40
  -4   0   1   -0.40    0.50
   4   0  -1    0.30    0.40
  -4   0   1   -0.20    0.50
   4   0  -1    0.00    0.40
   4   0  -1   -0.10    0.50
   4   0  -1    1.30    0.60
   4   0  -1    1.70    0.60
   3   0  -1  385.16   18.50
   3   0  -1  369.36   18.80
   3   0  -1  363.06   18.90
   3   0  -1  350.66   18.80
  -3   0   1  384.56   18.70
   3   0  -1  383.06   18.60
   3   0  -1  395.36   18.70
  -3   0   1  355.46   18.90
   3   0  -1  417.66   18.90
   2   0  -1   -0.30    0.30
  -2   0   1    0.00    0.30
   2   0  -1    0.20    0.30
   2   0  -1   -0.10    0.30
  -2   0   1   -0.70    0.30
   2   0  -1   -0.40    0.20
   2   0  -1   -0.30    0.30
   2   0  -1   -0.20    0.40
   2   0  -1   -0.30    0.30
  -1   0   1   12.90    1.10
   1   0  -1   10.90    1.10
   1   0  -1   13.40    1.10
  -1   0   1   11.80    1.10
   1   0  -1   11.90    1.00
   1   0  -1   13.20    1.10
   1   0  -1   13.30    1.10
   1   0  -1   11.80    1.10
   0   0   1   -1.60    0.10
   0   0   1   -1.60    0.10
   0   0   1   -1.60    0.10
   0   0   1   -1.60    0.10
   0   0  -1   -1.60    0.10
   0   0  -1   -1.40    0.10
   0   0  -1   -1.60    0.10
   0   0   1   -1.60    0.10
   0   0   1   -1.60    0.10
   1   0   1  529.35   24.90
  -1   0  -1  472.55   24.90
   1   0   1  522.25   24.90
  -1   0  -1  503.85   24.80
  -1   0  -1  529.75   24.80
   1   0   1  511.65   24.80
   1   0   1  521.15   24.80
  -1   0  -1  487.75   24.90
   1   0   1  491.55   24.90
   1   0   1  491.85   24.80
   1   0   1  520.05   24.80
   1   0   1  491.15   24.80
  -2   0  -1    0.10    0.30
  -2   0  -1    0.10    0.30
   2   0   1    0.50    0.40
  -2   0  -1   -0.10    0.30
   2   0   1   -0.40    0.30
   2   0   1    0.20    0.30
   2   0   1   -0.10    0.20
   2   0   1    0.40    0.40
   2   0   1    0.00    0.40
   2   0   1    0.30    0.30
   2   0   1   -0.10    0.20
   3   0   1   63.19    3.60
  -3   0  -1   64.59    3.60
   3   0   1   64.09    3.70
   3   0   1   64.49    3.60
   3   0   1   62.89    3.60
   3   0   1   62.19    3.60
   3   0   1   67.99    3.70
   3   0   1   63.79    3.30
  -3   0  -1   63.79    3.80
   3   0   1   62.99    3.40
   4   0   1    0.40    0.50
  -4   0  -1   -0.40    0.50
   4   0   1    0.00    0.50
   4   0   1    0.00    0.40
  -4   0  -1    0.10    0.50
   4   0   1   -0.40    0.30
   4   0   1    0.10    0.50
   4   0   1    0.30    0.40
   5   0   1   13.40    1.40
   5   0   1   10.80    1.50
   5   0   1   12.50    1.50
   5   0   1   11.60    1.10
  -5   0  -1   11.50    1.50
  -5   0  -1    8.40    1.50
   5   0   1   10.60    1.40
   6   0   1    0.60    0.60
  -6   0  -1    1.30    1.00
   6   0   1   -1.00    0.70
  -6   0  -1   -0.50    0.70
  -7   0  -1   14.60    2.10
   7   0   1   16.00    2.20
  -7   0  -1   14.50    2.30
  -7  -1   1   14.80    2.30
  -7  -1   1   17.10    2.60
   7  -1  -1   16.30    1.70
  -7   1   1   14.40    2.10
  -7   1   1   16.20    2.40
   7   1  -1   16.40    2.10
  -6  -1   1  170.98   10.10
  -6  -1   1  168.18    9.70
   6  -1  -1  171.08    9.10
   6  -1  -1  171.18    9.60
   6   1  -1  181.28    9.00
  -6   1   1  184.18    9.90
   6   1  -1  170.28    9.50
  -6   1   1  174.68    9.60
   6   1  -1  188.18    9.70
   5  -1  -1   58.69    4.20
   5  -1  -1   57.99    3.50
  -5  -1   1   62.79    4.30
   5  -1  -1   67.59    3.90
  -5  -1   1   61.29    4.00
   5  -1  -1   56.69    3.70
   5  -1  -1   58.19    3.50
   5  -1  -1   60.59    3.90
  -5   1   1   63.19    3.80
   5   1  -1   58.89    3.80
   5   1  -1   60.89    4.10
   5   1  -1   59.29    3.40
  -5   1   1   62.99    4.10
   4  -1  -1   90.39    4.70
   4  -1  -1   99.29    5.10
   4  -1  -1   84.19    4.90
  -4  -1   1   91.29    5.10
   4  -1  -1   92.19    4.90
  -4  -1   1   87.39    5.30
   4  -1  -1   88.29    5.00
   4   1  -1   89.79    5.00
   4   1  -1   86.09    4.90
  -4   1   1   89.99    5.00
   4   1  -1   82.89    5.20
  -4   1   1   96.39    5.20
   4   1  -1   85.39    5.30
   4   1  -1   89.89    4.60
   4   1  -1   86.19    5.20
   3  -1  -1  286.87   14.00
  -3  -1   1  264.97   14.30
   3  -1  -1  279.97   13.70
   3  -1  -1  253.57   14.00
   3  -1  -1  281.07   13.90
   3  -1  -1  294.17   14.10
   3  -1  -1  282.87   14.10
   3  -1  -1  279.07   13.80
  -3  -1   1  283.57   14.10
   3   1  -1  275.27   14.00
   3   1  -1  293.27   14.20
   3   1  -1  301.07   14.20
  -3   1   1  272.07   14.10
   3   1  -1  271.27   14.30
   3   1  -1  282.57   14.20
  -3   1   1  284.27   14.20
   3   1  -1  282.07   14.00
  -3   1   1  275.37   13.90
   3   1  -1  288.27   14.20
   2  -1  -1   40.70    2.20
   2  -1  -1   37.90    2.20
  -2  -1   1   37.30    2.40
   2  -1  -1   39.50    2.20
   2  -1  -1   37.30    2.30
   2  -1  -1   38.60    2.10
   2  -1  -1   41.40    2.30
   2  -1  -1   40.50    2.10
  -2   1   1   39.80    2.20
  -2   1   1   36.20    2.30
   2   1  -1   38.30    2.20
   2   1  -1   39.00    2.30
   2   1  -1   43.50    2.30
   2   1  -1   38.70    2.40
   2   1  -1   34.60    2.40
   2   1  -1   36.30    2.40
  -2   1   1   37.80    2.30
   1  -1  -1   58.29    2.80
   1  -1  -1   57.49    2.90
  -1  -1   1   63.39    3.00
   1  -1  -1   57.59    2.90
   1  -1  -1   55.39    2.80
  -1  -1   1   54.79    2.90
   1  -1  -1   55.39    2.90
  -1   1   1   46.10    2.90
   1   1  -1   49.90    2.90
   1   1  -1   52.59    2.90
   1   1  -1   58.69    3.10
   1   1  -1   55.59    3.00
   1   1  -1   50.99    3.00
  -1   1   1   58.49    2.90
   1   1  -1   56.79    2.90
   1   1  -1   60.89    3.10
  -1   1   1   59.79    2.90
   0  -1  -1  700.23   33.00
   0  -1   1  713.93   33.00
   0  -1  -1  580.34   33.10
   0  -1   1  690.63   33.10
   0  -1   1  670.03   33.10
   0  -1   1  688.03   33.00
   0  -1   1  693.03   33.00
   0  -1  -1  737.63   33.10
   0  -1  -1  717.43   33.10
   0  -1   1  607.04   33.10
   0  -1  -1  702.23   33.20
   0  -1   1  631.34   33.10
   0   1   1  692.43   33.20
   0   1   1  654.13   33.10
   0   1   1  689.83   33.10
   0   1  -1  671.63   33.10
   0   1  -1  713.33   33.10
   0   1  -1  706.83   33.10
   0   1   1  721.83   33.00
   0   1  -1  690.63   33.00
   1  -1   1    4.50    0.30
  -1  -1  -1    4.70    0.50
   1  -1   1    4.30    0.40
   1  -1   1    4.00    0.40
  -1  -1  -1    4.60    0.60
   1  -1   1    4.20    0.30
   1   1   1    4.70    0.50
  -1   1  -1    4.10    0.30
   1   1   1    4.90    0.60
  -1   1  -1    4.20    0.30
   1   1   1    4.20    0.60
   1   1   1    5.80    0.70
   1   1   1    5.20    0.50
   1   1   1    4.20    0.30
   1   1   1    5.40    0.70
   1   1   1    4.40    0.50
   2  -1   1 2448.66  111.69
   2  -1   1 2253.07  111.69
  -2  -1  -1 2424.26  112.09
   2  -1   1 2227.38  111.69
   2  -1   1 2351.56  111.69
   2  -1   1 2218.28  111.69
   2  -1   1 2334.57  111.79
  -2  -1  -1 2242.48  111.79
  -2   1  -1 2414.86  111.79
  -2   1  -1 2226.38  111.69
  -2   1  -1 2374.06  111.99
   2   1   1 2334.47  111.79
   2   1   1 2262.17  111.59
   2   1   1 2388.06  111.79
   2   1   1 2341.87  111.89
   2   1   1 2238.98  111.99
   2   1   1 2145.39  111.99
   2   1   1 2415.76  111.79
  -2   1  -1 2324.07  111.79
   2   1   1 2331.97  111.89
   2   1   1 2319.67  111.79
   3  -1   1  160.98    7.70
   3  -1   1  148.89    8.00
   3  -1   1  157.38    8.00
   3  -1   1  166.18    8.00
  -3  -1  -1  155.38    8.40
   3  -1   1  159.88    8.10
  -3  -1  -1  157.68    8.20
   3  -1   1  157.48    7.90
   3  -1   1  162.68    8.10
   3  -1   1  152.58    8.00
  -3   1  -1  151.88    8.10
   3   1   1  140.19    8.30
   3   1   1  157.48    8.00
   3   1   1  156.08    8.10
   3   1   1  156.28    8.10
  -3   1  -1  160.78    8.00
   3   1   1  162.38    8.30
  -3   1  -1  154.58    8.10
   3   1   1  163.78    8.30
   3   1   1  157.38    7.80
   3   1   1  159.18    8.20
   4  -1   1   22.20    1.80
   4  -1   1   23.20    1.60
  -4  -1  -1   24.80    1.90
   4  -1   1   24.60    1.40
  -4  -1  -1   23.60    2.10
   4  -1   1   24.70    1.90
   4  -1   1   24.10    1.80
   4  -1   1   21.90    1.80
   4   1   1   22.60    2.00
   4   1   1   25.70    1.50
   4   1   1   25.10    2.00
  -4   1  -1   21.60    1.90
   4   1   1   23.40    1.70
   4   1   1   24.70    2.00
  -4   1  -1   22.00    1.70
  -5  -1  -1   40.30    3.20
   5  -1   1   38.60    2.50
  -5  -1  -1   43.90    3.00
   5  -1   1   37.00    2.80
   5  -1   1   44.00    2.90
   5  -1   1   39.90    2.80
  -5   1  -1   41.10    3.00
   5   1   1   36.40    2.90
   5   1   1   37.00    2.80
   5   1   1   44.70    2.80
  -5   1  -1   41.10    2.80
   5   1   1   42.90    2.40
   6  -1   1    0.50    0.70
  -6  -1  -1   -0.20    0.80
  -6  -1  -1   -0.20    0.90
   6  -1   1   -0.30    0.70
   6   1   1    0.20    0.60
  -6   1  -1    0.30    0.80
   6   1   1   -1.40    0.80
   6   1   1    0.40    0.70
  -6   1  -1   -0.20    0.80
  -7  -1  -1   42.40    3.50
  -7  -1  -1   38.80    3.70
   7  -1   1   31.80    3.20
  -7   1  -1   38.60    3.20
  -7   1  -1   38.90    3.40
   7   1   1   35.40    3.40
  -7  -2   1   11.60    2.40
  -7  -2   1   10.30    1.90
  -7   2   1    7.80    1.60
   7   2  -1    8.50    1.70
   7   2  -1   10.90    2.00
  -7   2   1    8.10    1.70
   6  -2  -1   12.70    1.70
  -6  -2   1   10.80    1.80
  -6  -2   1   15.10    2.40
   6  -2  -1   13.50    1.50
   6   2  -1   11.50    1.70
  -6   2   1   16.60    2.10
   6   2  -1   12.50    2.10
  -6   2   1   12.60    1.70
   5  -2  -1  210.78   10.60
  -5  -2   1  202.78   10.80
   5  -2  -1  191.78   10.50
   5  -2  -1  198.98   10.20
  -5  -2   1  191.48   11.10
   5   2  -1  206.28   10.10
   5   2  -1  203.48   11.00
   5   2  -1  196.98   10.70
  -5   2   1  199.68   10.50
   5   2  -1  200.58   10.60
  -5   2   1  204.58   10.70
   4  -2  -1    1.00    0.50
   4  -2  -1   -0.30    0.40
   4  -2  -1    0.90    0.50
  -4  -2   1    1.10    0.80
  -4  -2   1    0.80    0.60
   4   2  -1    0.50    0.60
   4   2  -1    0.70    0.60
  -4   2   1    0.90    0.50
   4   2  -1   -0.20    0.70
  -4   2   1    0.70    0.50
   4   2  -1    0.90    0.40
   4   2  -1   -0.20    0.60
   3  -2  -1  335.97   17.70
  -3  -2   1  360.66   17.90
   3  -2  -1  372.56   17.60
  -3  -2   1  376.06   18.20
   3  -2  -1  370.66   17.70
   3   2  -1  346.87   18.10
   3   2  -1  314.77   17.90
   3   2  -1  345.07   17.90
   3   2  -1  405.06   18.20
   3   2  -1  365.76   17.70
  -3   2   1  353.26   17.60
  -3   2   1  341.87   17.70
  -3   2   1  365.96   17.80
  -2  -2   1   56.09    3.10
  -2  -2   1   57.39    3.20
   2  -2  -1   48.40    2.70
   2  -2  -1   54.59    2.80
   2  -2  -1   46.20    2.80
  -2  -2   1   50.79    2.90
   2  -2  -1   51.09    2.80
   2   2  -1   57.19    3.20
   2   2  -1   48.00    2.90
  -2   2   1   44.10    2.80
   2   2  -1   52.39    3.10
  -2   2   1   49.80    2.70
   2   2  -1   52.39    2.80
  -2   2   1   52.79    2.80
   2   2  -1   44.60    3.00
   2   2  -1   48.00    2.90
  -1  -2   1  156.48    7.60
   1  -2  -1  152.98    7.40
  -1  -2   1  155.08    7.60
   1  -2  -1  155.98    7.30
  -1  -2   1  154.98    7.60
   1  -2  -1  130.09    7.50
   1  -2  -1  151.08    7.50
  -1  -2   1  158.68    7.60
  -1  -2   1  142.59    7.70
   1  -2  -1  154.28    7.60
   1  -2  -1  149.99    7.50
   1   2  -1  154.78    7.70
  -1   2   1  149.39    7.40
   1   2  -1  149.79    7.40
  -1   2   1  144.99    7.50
   1   2  -1  131.49    7.50
   0  -2   1  347.67   16.00
   0  -2   1  331.97   15.80
   0  -2  -1  331.17   16.00
   0  -2  -1  358.06   16.20
   0  -2  -1  347.97   16.10
   0  -2   1  324.67   16.00
   0  -2   1  306.97   16.00
   0  -2  -1  342.17   16.10
   0  -2   1  311.27   15.90
   0   2   1  301.37   16.00
   0   2   1  310.37   16.10
   0   2  -1  321.67   16.00
   0   2  -1  335.67   16.00
   0   2   1  327.27   15.90
   0   2  -1  325.67   16.00
   0   2  -1  313.27   16.00
   0   2   1  336.27   16.30
  -1  -2  -1    7.30    0.90
   1  -2   1    6.90    0.60
   1  -2   1    6.90    0.50
   1  -2   1    7.90    0.50
   1  -2   1    6.80    0.50
  -1  -2  -1    6.30    0.70
  -1  -2  -1    4.90    0.70
  -1  -2  -1    6.10    0.80
   1   2   1    8.50    0.80
  -1   2  -1    6.30    0.50
   1   2   1    6.30    0.50
   1   2   1    4.60    0.80
   1   2   1    7.20    0.90
   1   2   1    6.80    0.60
  -2  -2  -1   -0.50    0.40
  -2  -2  -1   -0.20    0.50
   2  -2   1   -0.50    0.30
   2  -2   1   -0.60    0.20
   2  -2   1   -0.10    0.30
   2  -2   1   -0.60    0.20
   2   2   1   -0.30    0.50
   2   2   1   -0.60    0.40
   2   2   1   -0.40    0.50
   2   2   1   -0.40    0.50
  -2   2  -1   -0.50    0.20
   2   2   1   -0.60    0.30
  -2   2  -1   -0.40    0.20
   2   2   1   -0.30    0.40
   2   2   1   -0.80    0.30
  -3  -2  -1    3.60    0.80
   3  -2   1    1.60    0.50
  -3  -2  -1    3.00    0.90
   3  -2   1    2.70    0.60
   3  -2   1    4.20    0.60
   3  -2   1    2.70    0.50
   3  -2   1    2.00    0.60
   3   2   1    3.60    0.80
   3   2   1    3.40    0.70
   3   2   1    2.80    0.60
  -3   2  -1    3.30    0.50
   3   2   1    4.40    1.00
   3   2   1    3.10    0.70
  -3   2  -1    2.60    0.50
   3   2   1    3.60    0.90
   3   2   1    2.50    0.40
   3   2   1    2.60    0.80
  -3   2  -1    2.90    0.60
  -4  -2  -1   28.90    2.60
  -4  -2  -1   33.50    2.40
   4  -2   1   29.40    2.10
   4  -2   1   29.60    2.20
   4  -2   1   31.80    2.20
   4  -2   1   33.10    2.10
   4  -2   1   30.40    2.00
   4  -2   1   30.30    2.10
   4   2   1   29.10    2.50
   4   2   1   29.60    2.20
   4   2   1   34.00    2.60
  -4   2  -1   27.10    2.00
  -4   2  -1   30.60    2.20
   4   2   1   32.30    2.60
   4   2   1   31.60    1.80
   4   2   1   30.50    2.10
   4   2   1   30.40    2.20
  -5  -2  -1   58.19    3.80
   5  -2   1   56.49    3.50
  -5  -2  -1   52.59    4.00
   5  -2   1   53.69    3.40
   5  -2   1   52.79    3.50
   5   2   1   56.89    3.90
   5   2   1   54.19    3.10
  -5   2  -1   57.79    3.60
  -5   2  -1   55.89    3.40
   5   2   1   51.19    3.60
   6  -2   1   42.00    3.00
  -6  -2  -1   37.90    3.20
  -6  -2  -1   40.00    3.70
   6  -2   1   40.40    3.10
   6   2   1   43.90    3.20
   6   2   1   39.80    3.30
  -6   2  -1   39.30    3.10
  -6   2  -1   43.80    3.00
   6  -3  -1   14.10    1.70
  -6  -3   1   13.00    2.00
   6  -3  -1   14.80    1.80
  -6  -3   1   12.20    2.30
   6   3  -1   17.80    2.10
  -6   3   1   15.50    1.90
  -6   3   1   16.80    2.00
   6   3  -1   13.20    2.20
  -5  -3   1    7.10    1.70
   5  -3  -1    5.90    1.10
  -5  -3   1    6.40    1.40
   5  -3  -1    5.70    0.90
   5  -3  -1    5.50    1.00
  -5   3   1    5.00    1.00
   5   3  -1    6.80    1.20
   5   3  -1    7.80    1.60
  -5   3   1    7.30    1.20
   5   3  -1    3.50    1.10
  -4  -3   1   86.59    5.40
   4  -3  -1   98.79    5.20
  -4  -3   1   88.99    5.80
   4  -3  -1   88.99    5.00
   4  -3  -1   98.09    5.20
  -4   3   1   89.79    5.10
   4   3  -1   97.29    5.30
  -4   3   1   93.19    5.20
   4   3  -1  100.39    5.90
   4   3  -1  101.29    5.90
   4   3  -1   94.39    5.50
   3  -3  -1   19.20    1.40
  -3  -3   1   18.30    1.90
  -3  -3   1   19.30    1.70
   3  -3  -1   19.00    1.40
   3  -3  -1   16.20    1.30
   3   3  -1   19.50    2.00
  -3   3   1   19.70    1.50
   3   3  -1   19.90    1.70
   3   3  -1   18.70    1.50
  -3   3   1   18.90    1.30
   3   3  -1   24.90    2.10
   3   3  -1   19.40    1.70
  -2  -3   1   81.69    4.60
   2  -3  -1   83.59    4.20
  -2  -3   1   80.19    4.50
   2  -3  -1   90.89    4.40
   2  -3  -1   82.09    4.30
  -2  -3   1   74.59    4.60
  -2  -3   1   74.79    4.60
  -2  -3   1   88.19    4.80
   2   3  -1   69.19    4.70
  -2   3   1   84.29    4.20
   2   3  -1   75.29    4.70
  -2   3   1   78.09    4.30
   2   3  -1   86.89    4.60
   2   3  -1   87.79    4.30
  -1  -3   1    5.40    0.70
   1  -3  -1    5.20    0.70
   1  -3  -1    6.50    0.70
  -1  -3   1    5.40    0.90
   1  -3  -1    6.00    0.80
  -1  -3   1    6.30    0.80
   1  -3  -1    6.10    0.70
  -1  -3   1    5.40    0.80
  -1   3   1    7.50    0.70
   1   3  -1    3.40    0.70
  -1   3   1    3.90    0.60
   1   3  -1    4.70    0.80
   1   3  -1    4.00    0.50
   1   3  -1    4.90    0.70
   0  -3  -1  298.67   14.60
   0  -3  -1  316.27   14.80
   0  -3  -1  254.57   14.70
   0  -3   1  286.07   14.70
   0  -3   1  306.47   14.50
   0  -3   1  320.57   14.70
   0  -3   1  311.87   14.70
   0  -3  -1  297.37   14.70
   0   3  -1  324.97   14.80
   0   3   1  266.97   14.80
   0   3   1  256.67   14.70
   0   3  -1  287.07   14.70
   0   3  -1  307.57   14.60
   0   3  -1  287.97   14.70
   0   3   1  302.47   14.40
   0   3   1  316.47   14.70
   0   3   1  304.17   14.40
  -1  -3  -1  460.65   23.40
   1  -3   1  492.75   23.10
   1  -3   1  489.95   23.10
   1  -3   1  483.95   23.00
  -1  -3  -1  487.25   23.30
  -1  -3  -1  413.06   23.40
   1  -3   1  493.85   23.10
  -1  -3  -1  507.05   23.40
   1   3   1  415.26   23.50
  -1   3  -1  476.95   23.10
  -1   3  -1  480.45   23.00
   1   3   1  490.95   23.40
   1   3   1  497.75   23.10
  -1   3  -1  479.65   23.10
   1   3   1  487.85   23.00
   1   3   1  422.76   23.40
  -1   3  -1  480.45   23.00
  -2  -3  -1  220.98   11.00
   2  -3   1  220.38   10.30
   2  -3   1  219.48   10.40
   2  -3   1  216.18   10.40
  -2  -3  -1  176.88   10.70
   2  -3   1  209.18   10.30
  -2  -3  -1  199.88   10.70
   2   3   1  210.78   10.50
   2   3   1  221.18   11.00
   2   3   1  205.78   10.40
   2   3   1  224.28   10.80
  -2   3  -1  209.88   10.30
   2   3   1  217.58   10.80
   2   3   1  182.08   10.90
  -3  -3  -1    1.60    0.80
  -3  -3  -1    1.70    0.70
   3  -3   1    0.90    0.30
   3  -3   1    2.10    0.40
   3  -3   1    1.10    0.50
   3  -3   1    2.00    0.60
   3   3   1    0.20    0.40
  -3   3  -1    1.30    0.30
   3   3   1    0.70    0.30
   3   3   1    1.00    0.50
   3   3   1    1.90    0.90
   3   3   1    1.00    0.70
  -3   3  -1    1.10    0.40
   3   3   1    0.80    0.60
   4  -3   1  257.57   13.00
   4  -3   1  260.77   12.90
  -4  -3  -1  262.97   13.80
   4  -3   1  254.87   12.90
  -4  -3  -1  268.07   13.40
   4   3   1  263.07   13.70
  -4   3  -1  259.87   12.80
   4   3   1  244.88   13.00
   4   3   1  267.67   13.40
  -4   3  -1  251.57   13.00
   4   3   1  238.08   13.60
   4   3   1  258.57   13.10
   5  -3   1   22.50    1.90
   5  -3   1   26.80    1.90
  -5  -3  -1   27.50    2.80
   5  -3   1   26.60    2.30
  -5  -3  -1   27.90    2.40
   5   3   1   23.50    2.30
   5   3   1   23.30    2.70
  -5   3  -1   25.40    2.00
  -5   3  -1   23.70    1.90
  -6  -3  -1   86.59    5.60
   6  -3   1   80.79    5.10
  -6  -3  -1   89.19    6.10
   6  -3   1   92.59    5.20
   6   3   1   90.19    5.80
  -6   3  -1   88.19    5.30
  -6   3  -1   88.09    5.20
   6   3   1   80.49    5.30
   6  -4  -1   56.09    3.70
  -6  -4   1   59.99    4.40
   6  -4  -1   56.69    3.80
   6  -4  -1   56.09    3.70
  -6  -4   1   62.79    5.00
   6   4  -1   57.69    4.60
   6   4  -1   59.19    4.00
   5  -4  -1   93.69    5.70
  -5  -4   1  100.09    6.20
  -5  -4   1   97.29    6.60
   5  -4  -1  104.79    5.70
   5   4  -1  107.69    5.90
   5   4  -1  103.39    6.20
  -5   4   1  105.59    5.70
   5   4  -1  105.49    6.60
  -4  -4   1    8.80    1.60
   4  -4  -1   12.20    1.30
   4  -4  -1    9.50    1.10
  -4  -4   1   13.30    1.70
   4   4  -1   12.40    1.70
  -4   4   1   11.70    1.20
   4   4  -1    6.40    1.50
   4   4  -1   11.50    1.40
   4   4  -1   12.10    2.00
  -3  -4   1   49.80    3.80
  -3  -4   1   55.39    3.50
   3  -4  -1   55.09    3.20
   3  -4  -1   58.59    3.30
   3   4  -1   63.79    3.70
  -3   4   1   55.99    3.20
   3   4  -1   55.19    3.90
   3   4  -1   59.99    3.70
   3   4  -1   57.99    3.30
   3   4  -1   53.99    3.90
  -2  -4   1   54.09    3.40
  -2  -4   1   49.50    3.00
  -2  -4   1   49.10    3.20
   2  -4  -1   46.60    2.80
  -2  -4   1   45.60    3.10
  -2  -4   1   49.50    3.10
   2  -4  -1   52.49    2.80
   2   4  -1   50.09    3.30
  -2   4   1   49.40    2.70
   2   4  -1   48.90    2.70
   2   4  -1   43.70    3.30
  -2   4   1   44.60    2.80
   2   4  -1   44.50    3.00
   1  -4  -1   25.10    1.70
  -1  -4   1   22.40    1.90
   1  -4  -1   21.80    1.60
  -1  -4   1   24.90    1.70
   1  -4  -1   25.30    1.80
   1  -4  -1   27.70    1.70
  -1  -4   1   19.00    1.70
   1   4  -1   22.10    1.90
  -1   4   1   25.90    1.70
   1   4  -1   21.60    1.90
  -1   4   1   23.50    1.60
   1   4  -1   23.00    1.40
   1   4  -1   25.50    1.80
  -1   4   1   26.50    1.40
   0  -4  -1    4.80    0.90
   0  -4   1    6.00    0.90
   0  -4  -1    5.60    0.80
   0  -4  -1    4.50    0.60
   0  -4   1   10.00    0.90
   0  -4  -1    5.00    0.80
   0  -4   1    6.60    0.80
   0  -4   1    5.60    0.50
   0   4   1    7.20    1.00
   0   4  -1    4.50    0.80
   0   4  -1    5.20    0.70
   0   4  -1    5.00    0.80
   0   4   1    4.30    0.80
   0   4   1    5.00    0.80
   0   4   1    5.70    0.50
   0   4  -1    5.20    0.80
   1  -4   1   99.89    5.30
  -1  -4  -1  103.49    5.70
  -1  -4  -1  103.69    5.80
   1  -4   1  104.49    5.30
  -1  -4  -1   93.99    5.60
  -1  -4  -1  105.39    5.50
   1   4   1   96.99    5.80
  -1   4  -1  103.79    5.40
  -1   4  -1  104.79    5.40
   1   4   1  102.59    5.20
   1   4   1  116.89    5.70
  -1   4  -1   99.49    5.20
   1   4   1  101.79    5.10
   1   4   1  104.79    5.80
  -2  -4  -1   77.49    4.40
  -2  -4  -1   70.89    4.60
   2  -4   1   78.99    4.00
   2  -4   1   75.49    4.00
  -2  -4  -1   74.79    4.50
   2   4   1   73.99    4.10
   2   4   1   77.59    4.70
   2   4   1   77.39    4.00
  -2   4  -1   75.09    3.90
   2   4   1   82.29    4.80
  -2   4  -1   76.29    4.00
  -3  -4  -1    0.00    0.60
   3  -4   1    0.00    0.30
   3  -4   1    0.10    0.30
  -3  -4  -1    0.20    0.70
   3   4   1   -0.20    0.50
   3   4   1   -0.50    0.40
   3   4   1    0.30    0.80
  -3   4  -1   -0.10    0.30
   3   4   1    0.10    0.70
   3   4   1    0.80    0.70
   4  -4   1  120.99    6.40
  -4  -4  -1  115.89    7.40
   4  -4   1  127.29    6.50
  -4  -4  -1  128.99    7.10
  -4   4  -1  117.59    6.50
   4   4   1  117.29    7.00
   4   4   1  130.79    7.50
   4   4   1  127.19    7.10
   4   4   1  133.69    7.50
   4   4   1  122.69    6.70
  -5  -4  -1   48.90    3.60
   5  -4   1   48.20    2.90
  -5  -4  -1   48.20    4.00
   5  -4   1   44.80    2.90
   5  -4   1   49.10    2.90
   5   4   1   48.30    3.30
   5   4   1   43.90    3.50
   5   4   1   43.60    3.80
   6  -4   1   -0.20    0.50
  -6  -4  -1    0.90    1.30
  -6  -4  -1   -0.10    0.90
   6  -4   1    0.00    0.50
   6   4   1    1.50    1.20
   6   4   1   -0.20    0.90
  -6  -5   1   84.89    6.40
  -6  -5   1   95.39    5.90
   6  -5  -1   79.89    5.00
   6  -5  -1   88.79    5.10
   6   5  -1   81.59    5.30
   6   5  -1   86.89    6.20
  -5  -5   1    1.10    1.20
   5  -5  -1   -0.20    0.50
   5  -5  -1   -0.10    0.50
  -5  -5   1    0.20    0.90
   5   5  -1   -0.30    0.70
   5   5  -1   -0.60    0.90
   5   5  -1    0.40    1.20
  -4  -5   1   -0.70    0.70
   4  -5  -1    0.20    0.40
   4  -5  -1   -0.10    0.40
  -4  -5   1    0.80    0.90
   4   5  -1   -0.50    0.90
   4   5  -1   -0.10    1.00
   4   5  -1   -0.40    0.80
   4   5  -1    0.00    0.60
  -4   5   1    0.20    0.50
   4   5  -1   -0.20    0.80
  -3  -5   1   15.90    1.80
   3  -5  -1   12.90    1.20
   3  -5  -1   11.90    1.20
  -3  -5   1   11.10    1.80
   3   5  -1   11.90    1.80
   3   5  -1   10.40    1.80
   3   5  -1   15.30    1.80
  -3   5   1   15.20    1.20
   3   5  -1   13.70    1.30
  -2  -5   1   18.60    2.10
   2  -5  -1   25.50    1.80
  -2  -5   1   20.30    2.00
   2  -5  -1   25.20    1.70
   2  -5  -1   24.90    1.70
  -2  -5   1   20.90    1.80
   2   5  -1   25.30    2.30
   2   5  -1   20.30    1.90
   2   5  -1   22.40    1.50
   2   5  -1   25.30    2.30
  -2   5   1   24.40    1.60
  -1  -5   1   -0.80    0.30
   1  -5  -1    0.20    0.40
   1  -5  -1   -0.20    0.40
  -1  -5   1    0.10    0.50
  -1  -5   1    0.00    0.40
  -1  -5   1    0.80    0.60
   1   5  -1    0.10    0.50
   1   5  -1    0.00    0.50
   1   5  -1   -0.20    0.60
   1   5  -1    0.20    0.20
  -1   5   1    0.20    0.50
  -1   5   1   -0.20    0.20
  -1   5   1    0.10    0.50
  -1   5   1   -0.10    0.40
   0  -5  -1    0.90    0.50
   0  -5  -1    1.40    0.50
   0  -5  -1    0.80    0.40
   0  -5  -1    1.10    0.60
   0  -5   1    2.00    0.60
   0  -5   1    0.90    0.50
   0   5  -1    1.30    0.60
   0   5   1    1.10    0.60
   0   5   1    0.90    0.50
   0   5  -1    1.50    0.50
   0   5  -1    1.30    0.60
   0   5   1    1.20    0.30
   0   5   1    1.40    0.60
   1  -5   1  274.57   13.70
  -1  -5  -1  274.17   13.80
  -1  -5  -1  251.07   14.00
  -1  -5  -1  274.57   14.20
   1  -5   1  256.57   13.70
  -1  -5  -1  274.47   14.10
   1   5   1  282.27   14.20
  -1   5  -1  263.27   13.80
   1   5   1  296.37   14.30
  -1   5  -1  271.97   13.60
   1   5   1  294.97   14.00
   1   5   1  277.07   13.50
  -2  -5  -1  532.85   28.00
  -2  -5  -1  576.84   28.50
   2  -5   1  563.44   27.70
   2  -5   1  580.44   27.70
   2   5   1  589.74   27.70
   2   5   1  515.25   28.40
  -2   5  -1  577.44   27.60
  -2   5  -1  563.44   27.70
   2   5   1  582.14   28.50
   2   5   1  588.14   28.30
  -3  -5  -1   85.79    5.20
   3  -5   1   80.09    4.10
   3  -5   1   77.69    4.10
  -3  -5  -1   76.19    4.70
   3   5   1   71.29    5.10
   3   5   1   77.09    5.10
   3   5   1   79.99    4.30
   3   5   1   67.69    4.70
   4  -5   1    8.80    0.90
  -4  -5  -1    4.90    1.30
  -4  -5  -1    7.40    1.70
   4  -5   1    9.00    0.90
   4   5   1   10.00    1.70
   4   5   1    7.90    1.80
   4   5   1    7.70    1.80
   4   5   1    6.50    1.40
   4   5   1    5.10    1.00
   5  -5   1  117.09    6.10
   5  -5   1  114.79    6.00
  -5  -5  -1  117.79    7.50
   5  -5   1  115.89    6.10
  -5  -5  -1  102.79    6.80
   5   5   1  111.99    7.00
   5   5   1  108.39    6.50
   5   5   1  128.99    7.60
  -6  -5  -1    5.10    1.60
   6  -5   1    2.80    0.70
  -6  -5  -1    3.50    1.80
   6  -5   1    3.50    0.80
   6   5   1    3.80    1.60
   6   5   1    4.30    1.30
   5  -6  -1   10.70    1.30
  -5  -6   1   13.80    2.10
   5  -6  -1   10.20    1.20
   5   6  -1    6.40    1.90
   5   6  -1   10.60    2.00
   4  -6  -1   14.60    1.30
   4  -6  -1   14.60    1.40
  -4  -6   1   14.40    1.90
   4   6  -1   15.90    2.50
   4   6  -1   10.40    1.80
   4   6  -1   10.70    1.80
   4   6  -1    9.60    2.00
   3  -6  -1  124.09    6.50
  -3  -6   1  116.59    6.80
   3  -6  -1  121.29    6.50
   3   6  -1  113.19    7.40
   3   6  -1  134.09    7.60
  -3   6   1  124.09    6.50
   3   6  -1  118.79    7.10
   2  -6  -1  290.27   14.20
  -2  -6   1  287.47   14.30
   2  -6  -1  268.07   14.30
   2  -6  -1  272.67   14.20
  -2   6   1  278.97   14.30
  -2   6   1  278.37   14.10
   2   6  -1  270.17   14.80
   2   6  -1  323.17   15.00
   2   6  -1  263.27   14.50
   1  -6  -1   90.19    5.00
  -1  -6   1   79.69    4.90
   1  -6  -1   76.49    4.70
   1  -6  -1   81.49    4.80
  -1   6   1   87.89    4.90
   1   6  -1   82.19    5.10
   1   6  -1   86.79    4.90
   1   6  -1   77.19    5.00
  -1   6   1   83.79    4.70
   0  -6   1  117.19    6.20
   0  -6  -1  102.99    6.20
   0  -6   1  115.89    6.20
   0  -6  -1  124.79    6.40
   0   6   1  113.49    6.50
   0   6   1  117.49    6.50
   0   6  -1  105.69    6.30
   0   6  -1  116.69    6.20
   0   6   1  100.79    6.20
   1  -6   1   27.30    1.90
  -1  -6  -1   21.60    2.10
   1  -6   1   26.70    1.90
  -1   6  -1   25.20    1.90
  -1   6  -1   25.30    1.80
   1   6   1   24.20    2.30
   1   6   1   24.40    2.30
   1   6   1   23.50    2.10
   2  -6   1   61.69    3.50
  -2  -6  -1   62.29    3.90
   2  -6   1   60.59    3.50
   2   6   1   57.09    4.00
  -2   6  -1   66.09    3.60
  -2   6  -1   61.09    3.50
   2   6   1   57.19    4.30
   2   6   1   67.19    4.40
   3  -6   1   32.10    1.90
  -3  -6  -1   26.40    2.50
   3  -6   1   30.80    1.90
   3   6   1   33.70    2.70
  -3   6  -1   29.40    1.90
   3   6   1   30.60    3.10
   3   6   1   28.40    2.90
   4  -6   1   98.19    5.10
   4  -6   1  102.49    5.10
  -4  -6  -1   98.59    6.00
   4   6   1   87.89    6.00
   4   6   1   82.89    5.90
   4   6   1  100.19    5.60
   4   6   1  110.59    6.80
   4   6   1   92.39    6.50
   5  -6   1    3.30    0.60
   5  -6   1    4.80    0.70
  -5  -6  -1    5.90    1.60
   5  -6   1    4.70    0.70
   5   6   1    7.90    2.10
   5   6   1    5.80    1.60
   5   6   1    4.00    1.10
   4  -7  -1   17.60    1.60
   4  -7  -1   12.80    1.40
   4   7  -1   13.30    2.50
  -4   7   1   15.20    1.50
   4   7  -1   16.20    2.70
   4   7  -1   18.70    2.50
   4   7  -1   17.50    2.50
   3  -7  -1    5.20    0.90
   3  -7  -1    3.10    0.70
   3   7  -1    2.10    1.30
  -3   7   1    2.50    0.80
   3   7  -1    2.70    1.40
   3   7  -1    5.20    1.40
   2  -7  -1    0.30    0.50
   2  -7  -1   -0.20    0.50
   2  -7  -1   -0.20    0.50
   2   7  -1    0.60    1.10
  -2   7   1    0.40    0.60
  -2   7   1    0.40    0.60
   2   7  -1   -0.20    0.80
   2   7  -1    0.90    0.90
   1  -7  -1    9.10    1.30
  -1  -7   1    8.30    1.40
   1  -7  -1    9.80    1.30
   1  -7  -1    9.10    1.50
  -1   7   1    6.00    1.20
  -1   7   1    8.90    1.30
   1   7  -1    8.10    1.40
   1   7  -1    8.20    1.60
   0  -7   1   27.40    2.30
   0  -7   1   30.70    2.30
   0  -7  -1   31.30    2.50
   0   7  -1   28.40    2.40
   0   7  -1   26.10    2.30
   0   7   1   30.10    2.60
   0   7   1   30.10    2.40
   1  -7   1   -0.30    0.40
   1  -7   1    0.40    0.50
   1  -7   1   -0.20    0.50
   1   7   1    0.60    0.80
  -1   7  -1    0.10    0.50
  -1   7  -1    0.00    0.60
   1   7   1    0.20    0.80
   2  -7   1  253.67   12.90
   2  -7   1  248.78   12.90
   2   7   1  244.98   13.90
   2   7   1  263.97   13.60
  -2   7  -1  258.07   13.00
   2   7   1  261.37   13.90
  -2   7  -1  253.37   12.90
   3  -7   1    4.60    0.70
   3  -7   1    3.30    0.70
   3   7   1    4.70    1.50
  -3   7  -1    3.70    0.70
   3   7   1    4.40    1.30
   3   7   1    4.00    1.60
   4  -7   1   25.30    1.60
  -4  -7  -1   26.40    4.00
   4  -7   1   25.90    1.70
   4   7   1   23.20    3.10
   4   7   1   19.60    2.60
   4   7   1   30.10    3.60
   4   8  -1   49.10    4.70
   3  -8  -1  177.68    9.50
   3  -8  -1  177.48    9.40
   3   8  -1  173.58   10.60
   3   8  -1  175.28   10.20
   3   8  -1  186.48   10.80
  -3   8   1  182.48    9.50
   2  -8  -1   18.70    1.80
   2  -8  -1   17.40    1.70
   2  -8  -1   15.00    1.80
   2   8  -1   19.00    2.60
   2   8  -1   19.90    2.40
  -2   8   1   20.00    2.00
  -2   8   1   18.80    2.00
   1  -8  -1  412.06   20.40
   1  -8  -1  409.16   20.10
   1   8  -1  379.06   20.20
   1   8  -1  373.56   20.40
  -1   8   1  402.76   20.20
  -1   8   1  385.46   20.00
   0  -8  -1   19.30    2.20
   0  -8   1   19.30    2.20
   0   8  -1   21.60    2.20
   0   8  -1   19.60    2.10
   0   8   1   21.30    2.30
   0   8   1   17.40    2.20
   1  -8   1   53.99    3.50
   1  -8   1   46.80    3.40
   1  -8   1   54.09    3.40
   1   8   1   51.49    3.80
  -1   8  -1   52.09    3.50
  -1   8  -1   51.69    3.50
   1   8   1   46.00    3.80
   2  -8   1    5.70    1.00
   2  -8   1    7.00    1.10
   2   8   1    7.80    1.80
  -2   8  -1    5.60    1.00
   2   8   1    6.70    1.70
   3  -8   1  142.99    7.60
   3  -8   1  150.88    7.70
   3   8   1  149.99    9.20
   3   8   1  140.19    8.60
   3   8   1  145.79    9.20
   2  -9  -1    0.30    0.70
   2  -9  -1    0.20    0.60
   2   9  -1   -0.30    1.00
  -2   9   1   -0.30    0.90
   2   9  -1   -0.70    1.10
  -2   9   1    0.70    0.80
   1  -9  -1    8.70    1.60
   1  -9  -1    4.60    1.20
  -1   9   1    7.50    1.50
   1   9  -1    7.90    1.60
   1   9  -1    8.80    1.90
  -1   9   1    6.80    1.50
   0  -9   1   16.00    2.10
   0   9  -1   17.30    2.20
   0   9   1   18.00    2.40
   0   9  -1   20.30    2.40
   0   9   1   17.90    2.30
   1  -9   1    2.50    0.90
   1  -9   1    2.80    0.90
   1   9   1    3.00    1.30
   1   9   1    3.40    1.40
  -1   9  -1    4.20    1.20
  -1   9  -1    3.40    1.10
   2  -9   1   13.70    1.60
   2  -9   1   12.30    1.50
  -2   9  -1   11.90    1.60
   2   9   1   18.10    2.80
   2   9   1   14.10    2.30
  -7   0   2   -1.00    0.80
  -7   0   2    0.60    1.00
   7   0  -2   -0.70    0.70
  -6   0   2  129.89    7.90
   6   0  -2  135.59    7.40
   6   0  -2  132.69    6.90
  -6   0   2  124.79    7.50
   5   0  -2    0.00    0.70
  -5   0   2   -0.70    0.60
   5   0  -2   -0.10    0.60
   5   0  -2   -0.40    0.60
  -5   0   2    0.10    0.60
   5   0  -2    0.30    0.70
   5   0  -2    0.40    0.50
  -4   0   2  286.77   15.10
  -4   0   2  285.47   15.40
   4   0  -2  297.47   15.00
   4   0  -2  293.57   15.20
   4   0  -2  294.77   14.80
   4   0  -2  308.37   15.10
   4   0  -2  306.07   15.30
   4   0  -2  324.87   15.40
   3   0  -2    0.10    0.50
  -3   0   2    0.00    0.40
  -3   0   2    0.10    0.40
   3   0  -2   -0.20    0.30
   3   0  -2    0.50    0.40
   3   0  -2    0.10    0.40
   3   0  -2   -0.20    0.30
   3   0  -2    0.00    0.40
   3   0  -2    0.20    0.50
   2   0  -2 3906.01  177.98
   2   0  -2 3496.65  177.08
  -2   0   2 3564.84  177.28
  -2   0   2 3992.90  178.68
   2   0  -2 3980.70  177.78
   2   0  -2 3142.09  177.18
   2   0  -2 3655.33  178.08
   1   0  -2   -0.60    0.30
   1   0  -2   -0.40    0.30
   1   0  -2   -0.50    0.30
  -1   0   2   -0.50    0.20
  -1   0   2   -0.80    0.20
   1   0  -2   -0.70    0.20
   1   0  -2   -1.20    0.30
   0   0  -2 1120.59   52.39
   0   0  -2  966.20   51.99
   0   0   2 1009.30   51.99
   0   0   2 1222.28   52.39
   0   0   2 1136.09   52.19
   0   0   2 1053.79   52.39
   0   0   2 1043.00   52.19
   1   0   2   -0.30    0.20
   1   0   2   -0.50    0.20
   1   0   2   -0.50    0.20
   1   0   2   -0.20    0.30
  -1   0  -2   -0.40    0.30
   1   0   2   -0.90    0.20
   1   0   2   -0.30    0.20
   1   0   2    1.10    0.30
  -1   0  -2   -0.40    0.20
   1   0   2   -0.10    0.30
  -1   0  -2   -0.40    0.20
   2   0   2 4545.75  213.88
   2   0   2 4470.25  214.28
  -2   0  -2 4069.19  213.98
   2   0   2 4346.37  214.38
  -2   0  -2 4561.44  215.08
   2   0   2 4592.54  214.48
   2   0   2 5007.10  215.18
  -2   0  -2 4509.45  214.68
   2   0   2 3846.52  213.88
   2   0   2 4525.35  214.28
   2   0   2 4373.36  214.38
   3   0   2   -0.30    0.30
  -3   0  -2    0.10    0.50
   3   0   2    0.10    0.40
   3   0   2   -0.20    0.30
  -3   0  -2    0.40    0.50
   3   0   2    0.20    0.40
   3   0   2   -0.10    0.20
   3   0   2   -0.40    0.40
  -3   0  -2    0.00    0.40
   3   0   2   -0.70    0.40
   3   0   2    0.20    0.40
   4   0   2   69.69    4.60
   4   0   2   82.89    4.60
   4   0   2   82.59    4.60
   4   0   2   90.99    4.50
   4   0   2   80.79    4.20
   4   0   2   74.49    4.50
  -4   0  -2   76.09    4.70
  -4   0  -2   81.59    4.60
  -5   0  -2    0.30    0.60
   5   0   2   -0.40    0.50
  -5   0  -2   -0.60    0.60
   5   0   2    0.10    0.50
   5   0   2    0.00    0.60
   5   0   2   -0.50    0.70
   5   0   2    0.00    0.50
   6   0   2   43.60    3.20
  -6   0  -2   44.30    3.50
  -6   0  -2   42.50    3.30
  -7  -1   2    1.80    1.40
  -7  -1   2    3.20    1.30
   7  -1  -2    3.30    1.00
   7   1  -2    2.10    1.10
  -7   1   2    2.40    1.30
  -7   1   2    2.50    1.30
   7   1  -2    3.80    0.90
  -6  -1   2   40.50    3.60
  -6  -1   2   45.60    3.40
   6  -1  -2   45.80    2.80
   6   1  -2   44.40    2.70
  -6   1   2   44.40    3.50
   6   1  -2   39.90    3.10
  -6   1   2   45.00    3.30
   6   1  -2   43.30    3.40
   5  -1  -2  435.86   22.10
   5  -1  -2  445.16   21.80
  -5  -1   2  439.46   22.50
   5  -1  -2  432.86   21.60
  -5  -1   2  437.36   22.10
  -5   1   2  424.76   22.00
   5   1  -2  437.06   22.00
   5   1  -2  428.96   21.50
  -5   1   2  439.66   22.30
   5   1  -2  457.95   22.30
   4  -1  -2  347.87   17.00
  -4  -1   2  318.37   17.40
   4  -1  -2  318.77   17.10
   4  -1  -2  369.76   17.20
   4  -1  -2  327.37   16.70
  -4  -1   2  336.97   17.10
  -4   1   2  339.57   17.00
   4   1  -2  351.36   17.30
   4   1  -2  375.86   17.50
  -4   1   2  335.67   17.30
   4   1  -2  343.97   16.70
   4   1  -2  352.86   17.30
   4   1  -2  305.37   17.00
   4   1  -2  322.47   17.30
   4   1  -2  350.66   17.00
   3  -1  -2  133.69    7.00
   3  -1  -2  134.09    6.80
   3  -1  -2  136.79    7.10
   3  -1  -2  137.89    6.80
   3  -1  -2  138.69    7.10
  -3  -1   2  128.59    7.10
  -3  -1   2  124.29    7.30
   3  -1  -2  134.29    7.10
   3   1  -2  144.59    7.30
  -3   1   2  122.09    7.10
   3   1  -2  129.39    6.90
   3   1  -2  147.19    7.40
   3   1  -2  131.99    7.00
   3   1  -2  131.99    7.20
  -3   1   2  141.79    7.00
   3   1  -2  139.19    7.20
   2  -1  -2  464.45   24.00
   2  -1  -2  487.45   24.00
   2  -1  -2  488.55   23.80
  -2  -1   2  465.45   24.00
   2  -1  -2  485.85   24.00
   2  -1  -2  488.05   23.90
  -2  -1   2  487.35   24.20
   2  -1  -2  475.05   24.00
   2   1  -2  546.55   24.10
   2   1  -2  480.25   24.20
   2   1  -2  536.95   24.30
   2   1  -2  520.65   24.10
  -2   1   2  445.86   24.10
   2   1  -2  515.15   24.10
  -2   1   2  456.85   24.20
  -2   1   2  506.15   24.00
   2   1  -2  493.05   23.90
   1  -1  -2 8443.96  428.36
  -1  -1   2 9362.66  429.36
  -1  -1   2 9193.38  428.76
   1  -1  -2 7918.41  428.86
   1  -1  -2 8130.19  427.86
  -1  -1   2 9532.25  429.26
  -1  -1   2 8146.99  428.96
   1  -1  -2 7792.62  428.46
   1  -1  -2 9363.46  429.06
  -1   1   2 9605.14  429.46
   1   1  -2 9466.15  429.66
  -1   1   2 8502.55  428.46
  -1   1   2 9999.00  429.56
   0  -1  -2  874.01   45.20
   0  -1   2  944.51   45.00
   0  -1   2  859.51   45.10
   0  -1  -2  959.40   45.10
   0  -1   2  963.20   45.00
   0  -1   2  900.31   45.00
   0  -1  -2 1051.59   45.20
   0  -1   2  865.81   45.10
   0  -1  -2  918.41   45.20
   0  -1   2  959.00   45.30
   0   1  -2  978.90   45.20
   0   1   2  894.21   45.10
   0   1  -2  972.40   45.10
   0   1  -2  923.21   45.10
   0   1   2  825.92   45.20
   0   1  -2  942.01   45.10
   0   1   2  954.50   45.10
   1  -1   2  419.36   20.20
   1  -1   2  416.66   20.10
   1  -1   2  423.16   20.20
  -1  -1  -2  401.56   20.30
   1  -1   2  431.16   20.10
  -1  -1  -2  410.96   20.40
   1   1   2  413.86   20.30
   1   1   2  399.26   20.20
  -1   1  -2  422.76   20.10
   1   1   2  416.66   20.20
   1   1   2  381.26   20.30
   1   1   2  408.76   20.20
   1   1   2  448.36   20.40
   2  -1   2   30.50    1.70
  -2  -1  -2   29.60    2.10
  -2  -1  -2   32.80    2.00
   2  -1   2   32.10    1.80
   2  -1   2   32.00    1.90
   2  -1   2   31.30    1.80
   2   1   2   31.00    1.60
   2   1   2   33.10    1.90
  -2   1  -2   30.40    1.70
   2   1   2   28.60    1.90
  -2   1  -2   32.10    1.80
   2   1   2   29.10    1.80
  -2   1  -2   30.20    1.80
   2   1   2   30.00    2.00
   2   1   2   30.90    2.00
   2   1   2   28.90    2.00
  -2   1  -2   30.50    1.70
   2   1   2   30.60    1.90
   3  -1   2   19.50    1.40
   3  -1   2   19.30    1.40
   3  -1   2   16.80    1.40
   3  -1   2   17.70    1.30
  -3  -1  -2   18.10    1.50
  -3  -1  -2   16.90    1.60
   3  -1   2   21.00    1.40
   3   1   2   18.00    1.40
   3   1   2   17.80    1.10
   3   1   2   19.30    1.60
  -3   1  -2   20.20    1.40
  -3   1  -2   19.00    1.30
  -3   1  -2   17.90    1.40
   3   1   2   19.60    1.50
   3   1   2   17.60    1.40
   3   1   2   17.00    1.60
   3   1   2   14.90    1.60
   4  -1   2   23.30    1.90
   4  -1   2   26.00    1.80
  -4  -1  -2   23.20    2.10
   4  -1   2   22.90    1.80
   4  -1   2   23.10    1.80
  -4  -1  -2   23.70    2.00
   4   1   2   25.40    1.70
   4   1   2   23.60    1.80
   4   1   2   22.80    1.90
   4   1   2   22.80    1.90
  -4   1  -2   24.20    1.80
   4   1   2   23.20    2.00
  -4   1  -2   25.30    1.90
   4   1   2   24.40    1.50
   5  -1   2   14.70    1.70
  -5  -1  -2   16.20    2.10
   5  -1   2   18.10    1.70
  -5  -1  -2   16.00    1.90
   5  -1   2   12.70    1.60
   5  -1   2   17.90    1.70
   5   1   2   20.10    1.50
   5   1   2   17.90    1.80
   5   1   2   17.10    1.80
   5   1   2   17.90    1.90
   5   1   2   16.30    2.00
  -5   1  -2   14.70    1.70
  -5   1  -2   18.70    1.80
  -6  -1  -2   13.50    1.90
   6  -1   2   14.60    1.90
  -6  -1  -2   14.30    2.20
   6  -1   2   15.00    1.80
   6   1   2   17.60    2.10
  -6   1  -2   14.50    2.00
   6   1   2   16.40    1.80
  -6   1  -2   15.50    1.90
  -7  -2   2   17.50    2.50
  -7  -2   2   19.70    3.00
   7  -2  -2   16.90    1.80
  -7   2   2   13.90    2.10
   7   2  -2   16.70    2.30
  -7   2   2   16.70    2.40
   6  -2  -2   40.00    2.60
   6  -2  -2   37.80    3.00
   6  -2  -2   38.60    3.00
  -6  -2   2   41.50    3.30
  -6  -2   2   43.00    3.70
  -6   2   2   43.60    3.30
   6   2  -2   36.30    2.50
  -6   2   2   37.40    3.00
   6   2  -2   35.30    2.90
   6   2  -2   43.60    3.50
   5  -2  -2   61.59    3.40
  -5  -2   2   61.49    4.30
   5  -2  -2   61.29    3.80
  -5  -2   2   57.49    3.90
   5  -2  -2   49.40    3.60
   5   2  -2   61.09    4.10
  -5   2   2   57.49    3.60
   5   2  -2   55.49    3.70
   5   2  -2   58.79    3.70
   5   2  -2   57.29    3.30
  -5   2   2   56.89    3.80
  -4  -2   2   87.59    4.90
   4  -2  -2   89.29    4.80
   4  -2  -2   82.89    4.50
  -4  -2   2   81.89    5.20
   4  -2  -2   82.99    4.70
   4   2  -2   80.49    5.10
   4   2  -2   87.19    5.10
  -4   2   2   81.69    4.60
   4   2  -2   70.79    4.70
   4   2  -2   85.69    4.70
  -4   2   2   85.89    4.90
  -3  -2   2  239.78   11.50
   3  -2  -2  208.48   11.00
  -3  -2   2  213.48   11.10
   3  -2  -2  216.78   11.00
   3  -2  -2  209.68   10.60
   3  -2  -2  218.98   10.80
   3  -2  -2  215.08   11.00
   3   2  -2  216.48   10.90
   3   2  -2  212.68   11.30
   3   2  -2  184.48   11.20
  -3   2   2  214.58   11.00
  -3   2   2  203.38   11.00
   3   2  -2  219.48   11.50
  -3   2   2  220.28   10.90
   3   2  -2  237.88   11.30
   3   2  -2  239.38   11.20
   2  -2  -2    1.50    0.40
   2  -2  -2    1.10    0.40
   2  -2  -2    1.30    0.40
   2  -2  -2    2.00    0.50
  -2  -2   2    1.90    0.50
  -2  -2   2    1.90    0.60
  -2  -2   2    1.30    0.50
   2  -2  -2    1.30    0.30
   2   2  -2    2.20    0.70
  -2   2   2    0.60    0.30
   2   2  -2    1.30    0.40
   2   2  -2    1.10    0.50
   2   2  -2    1.20    0.50
   2   2  -2    0.60    0.50
  -2   2   2    1.00    0.40
   1  -2  -2 3287.07  163.18
  -1  -2   2 3385.26  163.08
   1  -2  -2 3192.68  163.28
   1  -2  -2 3626.94  163.98
   1  -2  -2 3549.15  163.38
  -1  -2   2 3328.87  163.38
  -1  -2   2 3185.68  162.88
   1  -2  -2 3458.15  163.58
   1  -2  -2 3511.95  162.68
   1   2  -2 3648.33  163.88
  -1   2   2 3469.35  163.08
   1   2  -2 3260.37  163.18
  -1   2   2 3229.48  163.48
   1   2  -2 3145.59  162.88
   0  -2  -2  809.12   42.80
   0  -2  -2  905.41   42.60
   0  -2   2  886.21   42.80
   0  -2   2  866.71   42.80
   0  -2  -2  755.52   42.90
   0  -2   2  902.91   42.80
   0  -2   2  878.71   42.80
   0  -2   2  909.11   42.70
   0  -2  -2  932.11   42.90
   0  -2  -2  890.61   43.00
   0  -2   2  912.51   42.70
   0  -2   2  886.71   42.60
   0   2   2  984.70   43.00
   0   2  -2  877.91   42.80
   0   2   2  881.81   42.90
   0   2  -2  918.11   42.70
   0   2  -2  848.72   42.80
   0   2  -2  857.21   42.80
   0   2  -2  888.01   42.70
   0   2   2  878.81   42.70
   1  -2   2  512.95   24.30
  -1  -2  -2  495.55   24.50
   1  -2   2  519.65   24.30
   1   2   2  493.45   24.60
   1   2   2  506.55   24.40
   1   2   2  509.95   24.30
   1   2   2  509.15   24.50
   1   2   2  519.65   24.70
   1   2   2  440.66   24.60
   2  -2   2  101.39    5.10
   2  -2   2  104.89    5.30
   2  -2   2  106.19    5.30
  -2  -2  -2   97.09    5.50
  -2  -2  -2  100.69    5.70
   2  -2   2  101.69    5.10
   2   2   2  111.99    5.60
   2   2   2   98.79    5.50
   2   2   2  108.79    5.70
   2   2   2  101.79    5.00
   2   2   2  108.39    5.50
  -2   2  -2  104.09    5.10
   2   2   2   91.89    5.60
   2   2   2  102.09    5.40
   2   2   2  102.49    5.30
  -2   2  -2  105.89    5.10
   3  -2   2  935.91   45.60
   3  -2   2  889.31   45.60
  -3  -2  -2  955.70   46.30
   3  -2   2  935.11   45.60
   3  -2   2  972.00   45.80
   3  -2   2  958.90   45.70
  -3  -2  -2  924.01   46.00
  -3   2  -2  943.61   45.70
   3   2   2  901.31   45.90
   3   2   2 1003.00   46.10
   3   2   2  975.90   45.80
   3   2   2  867.81   45.90
  -3   2  -2  910.91   45.70
   3   2   2  981.20   45.80
   3   2   2  906.81   46.20
  -3   2  -2  933.21   45.50
   3   2   2  949.21   45.40
   3   2   2  994.80   46.20
   4  -2   2  433.46   23.70
   4  -2   2  497.15   23.80
  -4  -2  -2  500.65   24.40
  -4  -2  -2  462.95   24.00
   4  -2   2  483.05   23.80
   4  -2   2  479.65   23.70
   4   2   2  494.05   23.90
   4   2   2  495.15   24.20
   4   2   2  497.15   24.20
   4   2   2  499.75   23.80
   4   2   2  490.65   23.40
  -4   2  -2  489.55   23.80
   4   2   2  444.56   23.80
  -4   2  -2  469.15   23.60
   5  -2   2    3.40    0.80
  -5  -2  -2    3.40    1.10
   5  -2   2    3.20    1.00
  -5  -2  -2    2.70    1.10
   5  -2   2    4.90    0.90
   5  -2   2    2.60    0.90
  -5   2  -2    3.20    0.90
   5   2   2    4.50    1.10
   5   2   2    3.60    1.10
  -5   2  -2    4.30    0.90
   5   2   2    4.20    1.00
   6  -2   2   26.10    2.30
   6  -2   2   27.80    2.40
  -6  -2  -2   34.20    3.10
   6  -2   2   22.50    2.40
  -6  -2  -2   27.30    2.70
   6   2   2   29.00    2.70
  -6   2  -2   30.20    2.40
  -6   2  -2   28.80    2.40
   6   2   2   30.70    2.90
  -6  -3   2    8.40    1.70
   6  -3  -2   12.00    1.60
   6  -3  -2   10.50    1.40
  -6  -3   2   10.80    2.10
   6   3  -2   14.80    2.30
   6   3  -2   15.60    2.00
  -6   3   2    8.70    1.50
  -6   3   2   12.70    1.70
   5  -3  -2   11.80    1.50
  -5  -3   2   15.50    2.30
   5  -3  -2   13.00    1.60
  -5  -3   2   16.20    2.00
   5  -3  -2   12.70    1.30
   5   3  -2   11.50    1.10
   5   3  -2   11.10    1.80
  -5   3   2   14.50    1.70
   5   3  -2    6.60    1.30
  -5   3   2   12.10    1.50
   5   3  -2   14.00    1.80
  -4  -3   2  128.99    7.30
   4  -3  -2  117.09    6.60
  -4  -3   2  124.29    6.80
   4  -3  -2  118.89    6.30
   4  -3  -2  131.29    6.60
   4   3  -2  129.99    7.20
  -4   3   2  113.89    6.50
   4   3  -2  126.39    6.90
   4   3  -2  119.09    7.20
  -4   3   2  117.49    6.60
   4   3  -2  116.29    6.50
   3  -3  -2  789.72   37.40
   3  -3  -2  771.62   37.40
   3  -3  -2  780.92   37.20
  -3  -3   2  811.52   38.00
  -3  -3   2  747.33   37.60
   3   3  -2  780.12   37.30
  -3   3   2  753.82   37.30
   3   3  -2  723.63   37.60
   3   3  -2  776.92   38.00
   3   3  -2  719.03   37.90
   2  -3  -2   11.40    1.00
   2  -3  -2   12.90    0.90
   2  -3  -2   10.10    1.00
   2  -3  -2   10.30    1.00
  -2  -3   2   13.30    1.40
  -2  -3   2   12.80    1.20
  -2  -3   2   14.80    1.60
   2   3  -2    6.50    1.00
  -2   3   2   11.80    1.00
   2   3  -2   12.10    1.50
   2   3  -2   10.80    0.90
  -2   3   2   11.80    1.00
   1  -3  -2  212.18   10.50
   1  -3  -2  219.38   10.70
  -1  -3   2  214.88   10.70
  -1  -3   2  211.78   10.80
   1  -3  -2  220.58   10.70
   1  -3  -2  207.18   10.70
  -1  -3   2  231.08   10.80
   1  -3  -2  212.98   10.50
  -1  -3   2  212.68   10.60
  -1  -3   2  230.08   10.90
   1  -3  -2  209.38   10.90
  -1   3   2  201.18   10.70
   1   3  -2  194.28   10.80
  -1   3   2  217.68   10.60
   1   3  -2  186.08   10.70
   1   3  -2  231.78   10.90
   0  -3   2  623.34   30.70
   0  -3  -2  650.63   30.90
   0  -3   2  650.03   30.70
   0  -3  -2  575.94   30.90
   0  -3   2  660.53   30.40
   0  -3  -2  622.74   30.70
   0  -3   2  668.23   30.70
   0  -3  -2  566.54   30.80
   0   3  -2  686.73   30.70
   0   3   2  619.54   30.90
   0   3  -2  594.64   30.70
   0   3  -2  645.54   30.70
   0   3   2  605.44   30.80
   0   3   2  633.64   30.60
   0   3  -2  653.33   30.70
  -1  -3  -2   60.29    3.30
   1  -3   2   57.19    3.00
   1  -3   2   61.59    3.00
   1  -3   2   59.29    3.00
  -1  -3  -2   54.99    3.40
  -1  -3  -2   51.29    3.50
  -1  -3  -2   56.19    3.40
   1  -3   2   62.59    3.00
   1  -3   2   61.79    3.00
   1   3   2   59.19    3.00
   1   3   2   59.09    3.50
   1   3   2   58.29    3.10
  -1   3  -2   60.49    3.00
   1   3   2   58.09    3.40
  -1   3  -2   57.09    3.00
   1   3   2   59.09    3.50
  -2  -3  -2    0.50    0.50
   2  -3   2    1.00    0.20
  -2  -3  -2    0.40    0.60
   2  -3   2    1.00    0.20
   2  -3   2    1.30    0.40
  -2  -3  -2    0.50    0.50
   2  -3   2    0.70    0.40
   2   3   2    0.70    0.40
   2   3   2    0.80    0.40
   2   3   2    0.40    0.70
   2   3   2    0.90    0.70
  -2   3  -2    1.20    0.20
   2   3   2    1.10    0.60
   2   3   2    0.90    0.60
   3  -3   2    2.30    0.40
   3  -3   2    1.20    0.50
   3  -3   2    2.20    0.40
  -3  -3  -2    2.10    0.70
  -3  -3  -2    1.90    0.90
   3  -3   2    1.70    0.60
   3   3   2    1.70    0.30
  -3   3  -2    2.20    0.30
   3   3   2    2.40    0.80
   3   3   2    2.00    0.50
   3   3   2    1.50    0.80
  -3   3  -2    2.10    0.40
   3   3   2    1.50    0.80
  -3   3  -2    1.80    0.40
   3   3   2    2.50    0.70
   4  -3   2  614.24   29.40
   4  -3   2  617.54   29.20
  -4  -3  -2  581.54   29.70
   4  -3   2  604.24   29.20
  -4  -3  -2  594.24   30.10
   4  -3   2  617.24   29.40
   4   3   2  597.84   29.40
   4   3   2  595.84   29.60
   4   3   2  595.94   29.50
   4   3   2  617.94   30.00
  -4   3  -2  606.94   29.10
  -4   3  -2  595.74   29.20
   4   3   2  514.65   29.90
  -5  -3  -2    5.20    1.50
   5  -3   2    6.50    1.10
   5  -3   2    7.60    1.00
   5  -3   2    6.80    1.00
  -5  -3  -2    8.90    1.50
   5   3   2    4.60    1.10
   5   3   2    5.10    1.40
   5   3   2    4.70    1.20
  -5   3  -2    8.30    1.10
  -5   3  -2    7.80    1.10
   6  -3   2    3.40    0.90
   6  -3   2    4.20    0.90
   6  -3   2    6.10    1.30
  -6  -3  -2    4.60    1.40
  -6  -3  -2    3.90    1.50
  -6   3  -2    4.30    1.00
   6   3   2    6.30    1.30
   6   3   2    7.10    1.60
  -6  -4   2   52.59    3.90
   6  -4  -2   44.60    3.30
  -6  -4   2   47.50    4.30
  -6   4   2   45.90    3.30
   6   4  -2   48.90    3.50
   6   4  -2   47.40    4.10
   5  -4  -2    0.40    0.60
   5  -4  -2   -0.10    0.50
  -5  -4   2    0.30    1.00
   5  -4  -2   -0.20    0.60
  -5  -4   2   -0.20    0.80
   5   4  -2   -0.30    0.80
   5   4  -2    0.40    0.80
   5   4  -2   -0.40    1.10
  -5   4   2    0.10    0.60
   4  -4  -2   34.20    2.50
  -4  -4   2   35.90    2.80
  -4  -4   2   31.10    3.00
   4  -4  -2   36.90    2.30
   4  -4  -2   36.10    2.40
   4   4  -2   32.30    3.10
   4   4  -2   44.20    3.00
   4   4  -2   37.30    3.20
  -4   4   2   36.50    2.40
   4   4  -2   35.10    2.40
   3  -4  -2   31.00    2.00
  -3  -4   2   26.90    2.50
   3  -4  -2   29.90    2.10
  -3  -4   2   32.40    2.30
   3  -4  -2   31.10    1.90
   3   4  -2   25.40    2.50
   3   4  -2   29.90    2.60
  -3   4   2   31.90    2.00
   3   4  -2   28.30    2.00
   3   4  -2   32.50    2.40
  -2  -4   2  354.66   18.40
  -2  -4   2  386.96   18.40
  -2  -4   2  395.36   18.40
   2  -4  -2  349.96   18.00
   2  -4  -2  357.76   18.20
  -2  -4   2  373.56   18.10
   2  -4  -2  323.27   18.00
   2   4  -2  365.46   18.50
   2   4  -2  354.46   17.80
   2   4  -2  384.66   18.30
  -2   4   2  355.56   18.10
  -2   4   2  362.56   17.90
   1  -4  -2    4.50    0.80
  -1  -4   2    4.20    0.60
  -1  -4   2    2.20    0.60
   1  -4  -2    3.80    0.80
  -1  -4   2    3.10    0.80
   1  -4  -2    2.90    0.40
   1  -4  -2    2.60    0.60
  -1  -4   2    5.10    0.90
  -1  -4   2    2.60    0.60
   1  -4  -2    4.50    0.70
  -1   4   2    4.00    0.60
  -1   4   2    4.30    0.80
  -1   4   2    5.70    0.50
   1   4  -2    3.50    0.70
   1   4  -2    5.00    0.90
   0  -4  -2  234.58   12.70
   0  -4  -2  249.68   12.40
   0  -4   2  269.77   12.50
   0  -4  -2  258.07   12.60
   0  -4   2  230.08   12.40
   0  -4  -2  263.17   12.70
   0  -4   2  260.37   12.50
   0   4   2  230.78   12.70
   0   4  -2  245.78   12.50
   0   4  -2  237.88   12.50
   0   4   2  250.47   12.60
   0   4  -2  250.87   12.40
   0   4   2  254.07   12.10
   0   4  -2  244.38   12.50
   0   4   2  248.78   12.20
   0   4   2  253.57   12.70
  -1  -4  -2  696.93   35.70
   1  -4   2  739.83   35.40
  -1  -4  -2  698.03   35.90
  -1  -4  -2  765.52   36.10
   1  -4   2  718.63   35.50
  -1  -4  -2  706.53   35.90
   1  -4   2  731.93   35.50
   1   4   2  739.83   35.40
  -1   4  -2  745.43   35.40
   1   4   2  806.62   36.20
   1   4   2  776.42   35.90
  -1   4  -2  710.03   35.50
   1   4   2  696.63   36.00
  -1   4  -2  713.23   35.50
  -1   4  -2  716.83   35.40
   1   4   2  743.73   35.50
   2  -4   2   27.60    1.70
  -2  -4  -2   24.50    2.30
   2  -4   2   29.60    1.60
  -2  -4  -2   32.30    2.40
  -2  -4  -2   25.70    2.00
   2  -4   2   28.20    1.50
   2   4   2   24.00    2.30
   2   4   2   27.40    1.60
   2   4   2   26.20    1.80
  -2   4  -2   26.70    1.50
  -2   4  -2   27.70    1.50
   2   4   2   31.30    2.40
   2   4   2   23.10    2.00
   3  -4   2  120.79    6.00
  -3  -4  -2  113.29    6.80
   3  -4   2  113.19    5.70
   3  -4   2  117.79    6.00
  -3  -4  -2  111.49    6.40
   3  -4   2  116.29    5.80
   3   4   2  109.99    6.00
   3   4   2   99.59    6.30
   3   4   2  110.49    6.10
  -3   4  -2  120.19    5.70
   3   4   2  107.39    6.70
   3   4   2  127.99    6.90
  -4  -4  -2  421.16   22.10
   4  -4   2  439.16   21.40
  -4  -4  -2  425.16   22.60
   4  -4   2  438.26   21.40
   4  -4   2  445.86   21.60
   4  -4   2  456.65   21.40
   4   4   2  449.36   22.10
   4   4   2  384.96   22.30
   4   4   2  441.46   22.60
   4   4   2  429.56   21.80
   4   4   2  459.35   22.10
   4   4   2  435.66   21.60
  -5  -4  -2   45.20    3.90
  -5  -4  -2   40.50    3.30
   5  -4   2   42.30    2.70
   5  -4   2   45.70    2.60
   5   4   2   40.80    3.70
   5   4   2   39.30    3.00
  -6  -4  -2   -0.30    1.10
   6  -4   2    0.00    0.50
  -6  -4  -2    0.20    1.10
   6  -4   2    0.20    0.50
   6   4   2   -0.70    1.00
   6   4   2    0.60    0.90
   6  -5  -2    0.90    0.70
  -6  -5   2    1.10    1.40
   6  -5  -2    0.50    0.70
  -6  -5   2   -0.20    1.10
   6   5  -2   -0.30    1.30
  -5  -5   2   10.40    2.00
   5  -5  -2   12.40    1.50
   5  -5  -2   11.20    1.40
  -5  -5   2   10.20    1.80
   5   5  -2   12.30    2.00
   5   5  -2   10.30    1.50
   5   5  -2   15.00    2.80
   5   5  -2    9.10    2.00
  -5   5   2    8.80    1.30
  -4  -5   2    1.40    1.10
  -4  -5   2   -0.10    0.70
   4  -5  -2    1.00    0.50
   4  -5  -2    0.80    0.60
   4   5  -2    0.30    0.60
   4   5  -2    2.00    1.20
   4   5  -2    1.00    1.00
   4   5  -2    1.70    1.00
  -4   5   2    1.00    0.60
  -3  -5   2   13.60    1.60
   3  -5  -2   14.00    1.30
  -3  -5   2   11.80    1.90
   3  -5  -2   13.70    1.30
   3   5  -2   15.60    1.90
   3   5  -2   12.40    1.20
  -3   5   2   13.70    1.30
   3   5  -2   17.10    2.20
   3   5  -2   17.30    1.90
   3   5  -2   12.70    1.90
  -2  -5   2   20.40    1.60
   2  -5  -2   18.60    1.70
  -2  -5   2   19.70    1.90
   2  -5  -2   17.50    1.50
   2  -5  -2   16.00    1.50
  -2  -5   2   18.10    2.10
   2   5  -2   18.70    2.00
  -2   5   2   18.00    1.50
   2   5  -2   19.90    1.80
   2   5  -2   20.50    1.30
   2   5  -2   19.20    2.20
  -1  -5   2   18.00    1.50
  -1  -5   2   16.80    1.50
  -1  -5   2   17.10    1.60
  -1  -5   2   16.20    2.00
  -1  -5   2   16.00    1.30
   1  -5  -2   15.60    1.60
   1  -5  -2   14.40    1.40
   1  -5  -2   16.50    1.40
  -1   5   2   15.10    1.00
   1   5  -2   16.80    1.70
   1   5  -2   15.80    1.70
  -1   5   2   16.40    1.40
   1   5  -2   17.10    1.50
  -1   5   2   17.50    1.60
   0  -5   2    0.60    0.40
   0  -5  -2    0.70    0.40
   0  -5  -2    0.90    0.60
   0  -5   2    1.00    0.50
   0  -5  -2    0.60    0.50
   0  -5  -2    0.50    0.50
   0   5   2    0.80    0.60
   0   5   2    0.50    0.60
   0   5   2    1.10    0.30
   0   5  -2    2.00    0.60
   0   5   2    1.00    0.60
   0   5  -2    0.80    0.60
   0   5  -2    1.20    0.50
   1  -5   2    3.90    0.60
   1  -5   2    3.40    0.60
  -1  -5  -2    3.10    0.70
  -1  -5  -2    3.80    0.90
  -1  -5  -2    3.30    0.90
  -1   5  -2    3.70    0.60
   1   5   2    3.20    1.00
  -1   5  -2    3.20    0.60
   1   5   2    3.30    0.90
   1   5   2    4.90    1.10
   1   5   2    3.40    0.60
   2  -5   2   31.90    1.80
  -2  -5  -2   31.90    2.40
  -2  -5  -2   28.80    2.60
   2  -5   2   32.40    1.90
   2   5   2   33.40    2.50
   2   5   2   26.50    2.50
  -2   5  -2   31.20    1.80
   2   5   2   30.80    2.00
   2   5   2   34.30    2.80
  -2   5  -2   29.50    1.80
   3  -5   2  314.27   15.30
   3  -5   2  307.87   15.30
  -3  -5  -2  287.17   16.40
  -3  -5  -2  319.07   16.10
   3   5   2  294.17   16.40
   3   5   2  344.87   16.60
   3   5   2  312.57   15.70
   3   5   2  317.47   16.10
   4  -5   2  177.28    8.70
  -4  -5  -2  160.58   10.00
  -4  -5  -2  175.28    9.60
   4  -5   2  172.58    8.70
   4   5   2  184.08    9.70
   4   5   2  161.08   10.00
   4   5   2  182.38    9.30
   4   5   2  186.18    9.70
   4   5   2  168.48   10.00
  -5  -5  -2   70.29    4.70
   5  -5   2   65.39    3.60
   5  -5   2   67.29    3.60
  -5  -5  -2   63.19    5.10
   5   5   2   64.09    4.20
   5   5   2   61.39    5.00
   5   5   2   60.29    4.50
   5  -6  -2   84.29    5.00
   5  -6  -2   84.89    5.00
  -5  -6   2   82.49    5.60
   5   6  -2  100.19    6.50
   5   6  -2   92.69    5.90
   5   6  -2   76.49    6.20
   4  -6  -2  232.28   12.20
  -4  -6   2  219.58   12.60
   4  -6  -2  230.08   12.20
   4   6  -2  253.37   13.40
   4   6  -2  246.08   12.90
  -4   6   2  230.78   12.20
   4   6  -2  240.78   13.40
   4   6  -2  255.07   12.90
   3  -6  -2   12.10    1.40
  -3  -6   2   11.00    1.50
   3  -6  -2   11.20    1.30
   3   6  -2   13.50    1.90
   3   6  -2   10.70    1.90
   3   6  -2   12.50    2.10
  -3   6   2   10.60    1.30
   2  -6  -2   18.90    1.70
   2  -6  -2   21.80    1.80
   2  -6  -2   18.50    1.80
   2   6  -2   18.30    2.30
   2   6  -2   21.00    2.20
   2   6  -2   22.90    2.30
  -2   6   2   19.60    1.70
   1  -6  -2    1.10    0.60
  -1  -6   2    1.10    0.70
   1  -6  -2    1.20    0.70
  -1  -6   2    1.40    0.70
   1  -6  -2    0.60    0.50
  -1  -6   2    0.80    0.70
  -1   6   2    0.60    0.60
  -1   6   2    1.30    0.70
   1   6  -2    0.30    0.60
   1   6  -2    1.20    0.70
   1   6  -2    1.00    0.90
   0  -6  -2  154.78    8.10
   0  -6   2  164.68    8.00
   0  -6  -2  135.29    8.10
   0  -6   2  150.28    8.00
   0   6   2  146.09    8.20
   0   6  -2  147.09    8.00
   0   6   2  141.99    8.20
   0   6   2  153.48    8.10
   0   6  -2  148.29    7.90
  -1  -6  -2   40.60    2.70
   1  -6   2   42.60    2.60
   1  -6   2   41.40    2.60
  -1   6  -2   38.50    2.60
   1   6   2   46.90    3.30
   1   6   2   39.90    3.20
   1   6   2   37.90    2.90
  -1   6  -2   44.20    2.60
   2  -6   2    1.00    0.40
   2  -6   2    1.50    0.50
  -2  -6  -2    0.60    0.70
  -2   6  -2    1.70    0.50
   2   6   2    1.50    1.10
   2   6   2    1.90    1.00
   2   6   2    1.40    0.90
  -3  -6  -2   24.70    2.30
   3  -6   2   26.40    1.60
   3  -6   2   25.80    1.60
   3   6   2   29.70    3.30
   3   6   2   27.00    2.50
   3   6   2   25.00    3.00
   3   6   2   23.70    1.90
  -4  -6  -2   71.69    5.60
  -4  -6  -2   78.29    4.90
   4   6   2   65.39    5.30
   4   6   2   76.09    4.40
   4   6   2   78.09    5.00
   4   6   2   67.49    5.30
  -5  -6  -2   14.50    2.20
  -5  -6  -2   12.90    2.70
   5   6   2   12.60    1.70
   5   6   2   15.80    2.80
   5   6   2   15.50    2.30
   4  -7  -2    0.80    0.60
   4  -7  -2    0.90    0.60
   4   7  -2    1.40    1.20
   4   7  -2    1.30    1.40
   4   7  -2    2.20    1.40
   4   7  -2    1.50    1.20
   3  -7  -2    0.20    0.50
   3  -7  -2   -0.70    0.50
   3   7  -2    0.60    1.00
   3   7  -2    0.90    1.10
  -3   7   2    0.40    0.60
   3   7  -2    1.00    1.00
  -3   7   2   -0.20    0.60
   2  -7  -2   24.70    2.20
   2  -7  -2   28.00    2.20
   2  -7  -2   24.50    2.10
   2   7  -2   31.80    2.60
  -2   7   2   29.80    2.40
   2   7  -2   30.60    2.80
  -2   7   2   26.30    2.20
   1  -7  -2    3.70    1.10
  -1  -7   2    4.90    1.10
   1  -7  -2    4.90    1.00
  -1   7   2    3.50    0.90
  -1   7   2    3.60    1.00
   1   7  -2    4.20    1.20
   1   7  -2    4.50    1.10
   0  -7   2   91.79    5.50
   0  -7   2   89.29    5.50
   0  -7  -2  104.49    5.80
   0   7  -2   98.29    5.80
   0   7   2   95.89    5.70
   0   7  -2   96.59    5.60
   0   7   2  110.79    6.20
   1  -7   2  101.29    5.50
   1  -7   2   97.19    5.60
   1  -7   2  107.19    5.60
   1   7   2  100.79    6.30
   1   7   2   98.89    6.00
  -1   7  -2   99.19    5.60
  -1   7  -2   92.39    5.60
   1   7   2  104.39    6.30
   2  -7   2   27.80    1.90
   2  -7   2   27.00    1.90
   2   7   2   30.30    3.00
   2   7   2   27.10    2.60
  -2   7  -2   27.80    1.90
   2   7   2   27.50    2.80
   3  -7   2   69.19    3.80
   3  -7   2   71.89    3.80
   3   7   2   72.99    4.90
   3   7   2   72.79    5.30
   3   7   2   69.89    5.30
  -4  -7  -2   24.20    2.70
   4   7   2   16.00    2.70
   4   7   2   22.40    2.70
   4   7   2   20.00    2.90
   4   8  -2  212.18   12.60
   3  -8  -2   13.10    1.60
   3  -8  -2   12.50    1.60
  -3   8   2   16.20    1.80
   3   8  -2   13.60    2.50
   3   8  -2   14.80    2.20
   2  -8  -2   59.99    4.00
   2  -8  -2   64.89    4.20
  -2   8   2   61.29    4.10
   2   8  -2   60.09    4.40
  -2   8   2   60.59    4.00
   2   8  -2   68.89    4.80
   1  -8  -2    4.70    1.30
   1  -8  -2    2.90    1.00
  -1   8   2    4.80    1.20
   1   8  -2    3.30    1.20
  -1   8   2    5.20    1.30
   1   8  -2    4.60    1.30
   0  -8   2   25.80    2.30
   0   8  -2   26.50    2.40
   0   8   2   27.60    2.70
   0   8   2   25.50    2.40
   0   8  -2   25.60    2.30
   1  -8   2   22.40    2.10
   1  -8   2   29.90    2.20
   1  -8   2   26.40    2.10
  -1   8  -2   25.90    2.20
  -1   8  -2   27.00    2.30
   1   8   2   31.30    2.80
   1   8   2   29.40    2.80
   2  -8   2   46.70    2.90
   2  -8   2   45.50    2.90
   2   8   2   46.10    4.10
   2   8   2   48.60    3.80
  -2   8  -2   46.70    3.00
   2   8   2   48.60    4.00
   3  -8   2   -0.30    0.30
   3  -8   2    0.00    0.40
   3   8   2    0.20    1.10
   3   8   2    0.10    1.10
   3   8   2   -0.40    1.40
   2  -9  -2    3.70    1.00
   2  -9  -2    3.20    1.00
  -2   9   2    4.50    1.30
   2   9  -2    3.40    1.50
   2   9  -2    2.40    1.40
  -2   9   2    3.30    1.20
   1  -9  -2    5.60    1.40
   1  -9  -2    3.90    1.30
  -1   9   2    6.40    1.40
   1   9  -2    4.60    1.40
   1   9  -2    8.30    1.70
  -1   9   2    3.80    1.20
   0  -9   2  146.99    8.50
   0   9   2  150.08    8.70
   0   9   2  158.48    8.90
   0   9  -2  147.69    8.60
   0   9  -2  149.09    8.50
   1  -9   2   96.49    5.90
   1  -9   2  105.59    5.90
   1   9   2  107.29    6.80
  -1   9  -2   90.39    6.90
   1   9   2  109.69    6.60
  -1   9  -2  104.59    6.10
   2  -9   2   27.80    2.20
   2  -9   2   34.50    2.30
   2  -9   2   31.80    2.30
   2   9   2   30.00    3.50
   2   9   2   29.10    3.30
  -2   9  -2   28.60    2.30
   7   0  -3  492.05   23.80
  -7   0   3  497.15   25.10
  -7   0   3  448.66   24.50
   6   0  -3   -0.20    0.80
  -6   0   3    0.60    0.90
   6   0  -3    0.30    0.60
  -6   0   3   -0.40    0.80
   5   0  -3    4.70    0.80
   5   0  -3    4.80    1.20
  -5   0   3    5.30    1.20
  -5   0   3    5.50    1.30
  -4   0   3   -0.30    0.60
   4   0  -3    0.30    0.50
   4   0  -3   -0.10    0.60
   4   0  -3   -0.10    0.40
  -4   0   3    0.50    0.60
   4   0  -3   -0.10    0.40
   4   0  -3   -0.10    0.50
   4   0  -3   -0.30    0.40
   3   0  -3   51.69    3.20
   3   0  -3   52.39    3.10
   3   0  -3   55.99    3.00
   3   0  -3   44.60    3.10
  -3   0   3   52.99    3.10
   3   0  -3   50.59    3.20
  -3   0   3   48.30    3.20
   2   0  -3   -0.10    0.40
  -2   0   3   -0.30    0.30
   2   0  -3   -0.30    0.30
  -2   0   3   -0.40    0.40
   1   0  -3   28.00    1.70
  -1   0   3   26.60    1.70
   1   0  -3   29.90    1.80
  -1   0   3   33.90    1.70
  -1   0   3   27.00    1.80
   1   0  -3   31.60    1.80
   0   0  -3    0.10    0.20
   0   0   3   -0.20    0.20
   0   0  -3    0.60    0.30
   0   0   3    0.00    0.20
   0   0   3    0.10    0.20
   0   0  -3   -0.10    0.20
   0   0   3   -0.20    0.20
   0   0   3   -0.40    0.20
   1   0   3  645.04   30.30
   1   0   3  610.84   30.40
   1   0   3  596.34   30.30
  -1   0  -3  611.04   30.30
  -1   0  -3  631.04   30.40
   1   0   3  638.74   30.40
   1   0   3  638.54   30.30
   1   0   3  635.44   30.30
   1   0   3  621.54   30.30
  -2   0  -3   -0.10    0.30
   2   0   3    0.20    0.30
   2   0   3   -0.10    0.30
  -2   0  -3    0.20    0.40
  -2   0  -3   -0.20    0.30
   2   0   3    0.00    0.30
   2   0   3    0.10    0.30
   2   0   3    0.10    0.20
   2   0   3    0.10    0.30
   3   0   3  639.04   30.70
   3   0   3  583.14   30.60
  -3   0  -3  619.14   30.60
   3   0   3  627.94   30.60
   3   0   3  620.74   30.30
  -3   0  -3  636.44   30.80
   3   0   3  636.04   30.60
  -3   0  -3  619.14   30.70
   3   0   3  638.74   30.60
   3   0   3  627.14   30.50
  -4   0  -3    0.00    0.50
   4   0   3    0.40    0.50
   4   0   3   -0.30    0.50
  -4   0  -3   -0.10    0.50
   4   0   3   -0.30    0.40
   4   0   3    0.50    0.50
   4   0   3    0.20    0.50
  -5   0  -3  116.49    7.10
   5   0   3  135.29    6.90
   5   0   3  118.09    6.90
   5   0   3  126.79    6.40
   5   0   3  117.69    6.80
  -5   0  -3  124.69    6.90
   6   0   3   -0.90    0.80
   6   0   3   -0.30    0.70
  -6   0  -3   -1.20    0.70
   6   0   3   -0.40    0.80
  -6   0  -3    0.50    0.80
  -7  -1   3    6.40    1.60
   7  -1  -3    5.90    1.10
  -7  -1   3    7.70    2.00
   7   1  -3    7.70    1.20
   7   1  -3    4.20    1.40
  -7   1   3    4.30    1.40
  -7   1   3    4.70    1.50
   6  -1  -3   10.30    1.30
  -6  -1   3   10.10    1.70
  -6  -1   3   13.60    2.20
   6  -1  -3   11.50    1.40
   6   1  -3   14.00    2.00
  -6   1   3    9.80    1.80
   6   1  -3   14.00    1.40
  -6   1   3   11.00    1.70
   5  -1  -3   53.69    3.30
  -5  -1   3   53.39    4.10
  -5  -1   3   56.49    3.80
   5  -1  -3   65.09    3.70
   5  -1  -3   59.99    3.90
  -5   1   3   58.89    3.80
   5   1  -3   55.09    3.30
  -5   1   3   57.79    4.00
   5   1  -3   57.59    4.00
   4  -1  -3  396.16   19.30
   4  -1  -3  383.56   19.60
   4  -1  -3  389.36   19.20
   4  -1  -3  370.56   19.50
   4  -1  -3  414.36   19.70
  -4  -1   3  393.16   20.00
  -4  -1   3  377.66   19.60
   4   1  -3  383.26   19.90
   4   1  -3  402.06   19.80
   4   1  -3  433.06   20.00
  -4   1   3  383.16   19.80
   4   1  -3  384.46   19.50
   4   1  -3  389.46   19.80
  -4   1   3  384.86   19.60
   4   1  -3  386.96   19.50
   3  -1  -3   99.59    5.00
   3  -1  -3   83.49    5.30
   3  -1  -3  102.69    5.40
   3  -1  -3   97.89    5.10
   3  -1  -3   92.79    5.40
  -3  -1   3  107.89    5.70
   3  -1  -3  101.89    5.40
  -3  -1   3  101.19    5.40
   3   1  -3   94.29    5.50
   3   1  -3  108.89    5.70
  -3   1   3   93.59    5.40
   3   1  -3   93.09    5.30
  -3   1   3   96.99    5.30
   3   1  -3  103.29    5.50
  -2  -1   3 1268.27   58.49
   2  -1  -3 1203.78   58.19
   2  -1  -3 1227.38   58.29
   2  -1  -3 1312.27   58.39
   2  -1  -3 1156.48   58.29
   2  -1  -3 1135.29   58.39
  -2  -1   3 1181.28   58.29
   2   1  -3 1338.07   58.39
   2   1  -3 1085.89   58.39
   2   1  -3 1278.57   58.39
   2   1  -3 1008.90   58.39
  -2   1   3 1198.38   58.19
  -2   1   3 1231.68   58.39
  -1  -1   3   15.90    1.20
   1  -1  -3   14.50    1.10
   1  -1  -3   13.10    1.20
   1  -1  -3   13.20    1.00
   1  -1  -3   14.30    1.10
   1  -1  -3   18.10    1.20
  -1  -1   3   16.00    1.10
  -1  -1   3   14.90    1.00
   1   1  -3   15.40    1.20
  -1   1   3   15.10    1.00
   0  -1  -3  986.60   44.20
   0  -1   3  933.51   44.10
   0  -1   3  870.61   44.10
   0  -1   3  867.11   44.20
   0  -1   3  918.81   44.00
   0  -1   3  844.12   44.10
   0  -1   3  938.71   44.00
   0  -1  -3  954.80   44.30
   0   1  -3  870.21   44.10
   0   1   3  911.61   44.10
   0   1   3  979.30   44.20
   0   1  -3  816.12   44.10
   0   1   3  984.10   44.30
   0   1   3  866.61   44.10
   0   1  -3  909.31   44.00
   0   1  -3  918.51   44.10
   0   1  -3  920.61   44.00
  -1  -1  -3   13.80    1.10
   1  -1   3   13.30    0.90
   1  -1   3   13.50    0.80
   1  -1   3   14.30    0.80
   1  -1   3   12.80    0.90
  -1  -1  -3   14.30    1.00
   1   1   3   11.20    1.10
  -1   1  -3   12.30    0.80
   1   1   3   13.80    0.90
   1   1   3   14.80    1.10
   1   1   3   11.80    1.00
   1   1   3   11.00    1.10
   1   1   3   12.20    1.00
   1   1   3   13.40    0.90
   2  -1   3  121.29    6.00
   2  -1   3  121.99    6.00
   2  -1   3  118.29    5.90
   2  -1   3  112.79    5.90
  -2  -1  -3  116.29    6.20
  -2  -1  -3  116.59    6.10
   2   1   3  114.29    6.20
  -2   1  -3  113.59    5.80
   2   1   3   99.79    6.10
   2   1   3  118.49    6.00
  -2   1  -3  118.59    5.80
   2   1   3  117.09    6.10
  -2   1  -3  115.39    5.90
   2   1   3  116.69    6.00
   2   1   3  128.09    6.20
  -2   1  -3  118.19    5.90
   2   1   3  121.49    6.00
  -3  -1  -3  198.58   10.40
  -3  -1  -3  205.18   10.20
   3  -1   3  197.38   10.00
   3  -1   3  201.88   10.10
   3  -1   3  197.08   10.00
   3  -1   3  198.48   10.00
   3   1   3  192.98   10.20
   3   1   3  203.08   10.30
  -3   1  -3  196.68   10.10
   3   1   3  199.48   10.10
   3   1   3  200.78   10.00
   3   1   3  196.58   10.00
  -3   1  -3  191.48    9.90
  -3   1  -3  192.58   10.00
   3   1   3  197.68   10.20
   4  -1   3    1.50    0.60
   4  -1   3    1.90    0.60
   4  -1   3    0.40    0.60
   4  -1   3    1.50    0.60
  -4  -1  -3    0.90    0.70
  -4  -1  -3    1.40    0.70
  -4   1  -3    1.50    0.60
   4   1   3    0.90    0.60
  -4   1  -3    1.80    0.70
   4   1   3    3.20    0.90
   4   1   3    0.80    0.60
   4   1   3    1.60    0.70
   4   1   3    1.50    0.70
   5  -1   3   34.90    2.60
   5  -1   3   35.80    2.60
  -5  -1  -3   39.10    2.80
   5  -1   3   38.10    2.60
   5  -1   3   33.50    2.60
  -5  -1  -3   37.00    3.00
  -5   1  -3   39.60    2.80
   5   1   3   32.60    2.70
   5   1   3   35.80    2.70
  -5   1  -3   37.00    2.60
   5   1   3   37.90    2.70
   5   1   3   36.50    2.90
  -6  -1  -3   52.39    3.90
   6  -1   3   58.19    3.80
   6  -1   3   57.59    3.80
   6  -1   3   58.49    3.80
  -6  -1  -3   54.69    4.20
  -6   1  -3   55.29    3.90
   6   1   3   55.69    3.80
   6   1   3   52.49    3.80
   6   1   3   54.59    3.80
  -6   1  -3   52.19    3.70
   7  -2  -3   73.19    4.60
  -7  -2   3   74.79    5.80
  -7  -2   3   84.79    5.50
  -7   2   3   78.29    5.10
   7   2  -3   77.49    5.40
  -7   2   3   77.59    5.40
   6  -2  -3   18.80    1.80
   6  -2  -3   19.40    2.20
  -6  -2   3   18.40    2.30
  -6  -2   3   17.50    2.50
   6   2  -3   18.00    1.70
   6   2  -3   22.00    2.70
  -6   2   3   22.50    2.20
  -6   2   3   22.60    2.30
  -5  -2   3    7.60    1.60
   5  -2  -3   10.90    1.50
  -5  -2   3    9.40    1.50
   5  -2  -3    6.70    1.00
  -5   2   3    9.00    1.50
  -5   2   3    8.20    1.30
   5   2  -3   10.50    1.80
   5   2  -3    8.30    1.00
   5   2  -3    8.60    1.40
   4  -2  -3   68.69    4.20
   4  -2  -3   68.99    4.20
  -4  -2   3   71.79    4.70
  -4  -2   3   69.29    4.30
   4   2  -3   67.29    4.10
  -4   2   3   71.79    4.10
   4   2  -3   74.09    4.30
   4   2  -3   75.69    4.60
   4   2  -3   78.89    4.70
  -4   2   3   71.09    4.40
   3  -2  -3   30.00    2.20
  -3  -2   3   37.00    2.60
  -3  -2   3   35.50    2.30
   3  -2  -3   32.70    2.00
   3  -2  -3   34.90    2.00
   3  -2  -3   34.50    2.20
   3  -2  -3   35.60    2.30
   3   2  -3   31.30    2.40
   3   2  -3   33.90    2.40
   3   2  -3   34.90    2.60
   3   2  -3   34.30    2.20
  -3   2   3   35.10    2.40
   3   2  -3   33.60    2.30
   3   2  -3   31.20    2.50
  -3   2   3   34.60    2.20
   2  -2  -3    0.00    0.30
  -2  -2   3   -0.20    0.30
   2  -2  -3    0.00    0.30
  -2  -2   3   -0.20    0.40
  -2  -2   3   -0.30    0.40
   2  -2  -3    0.30    0.40
  -2  -2   3   -0.30    0.50
   2  -2  -3    0.30    0.30
   2  -2  -3    0.10    0.40
   2   2  -3   -0.20    0.40
  -2   2   3    0.40    0.30
   2   2  -3    0.10    0.50
   2   2  -3    0.80    0.50
   1  -2  -3  355.86   17.30
   1  -2  -3  315.57   17.30
  -1  -2   3  391.86   17.40
  -1  -2   3  389.96   17.50
   1  -2  -3  362.46   17.10
  -1  -2   3  380.76   17.30
  -1  -2   3  302.67   17.30
   1  -2  -3  350.26   17.50
   1  -2  -3  384.86   17.20
   1  -2  -3  334.67   17.40
   1   2  -3  320.47   17.30
   1   2  -3  324.67   17.40
   1   2  -3  373.16   17.40
   1   2  -3  328.57   17.30
  -1   2   3  356.86   17.30
   0  -2   3  156.08    8.20
   0  -2   3  166.78    8.20
   0  -2   3  167.38    8.10
   0  -2  -3  173.08    8.40
   0  -2  -3  149.39    8.20
   0  -2  -3  163.68    8.40
   0  -2  -3  166.08    8.00
   0  -2  -3  150.88    8.30
   0  -2   3  164.08    8.00
   0  -2   3  172.48    8.00
   0  -2   3  163.28    8.20
   0   2   3  183.08    8.50
   0   2  -3  162.98    8.10
   0   2  -3  172.28    8.20
   0   2  -3  161.18    8.20
   0   2  -3  167.88    8.20
   0   2  -3  166.68    8.10
   0   2   3  168.08    8.20
   0   2   3  153.48    8.30
   1  -2   3   72.49    3.80
   1  -2   3   76.99    3.60
   1  -2   3   75.99    3.60
  -1  -2  -3   67.19    4.00
   1  -2   3   73.59    3.80
   1   2   3   74.29    3.90
   1   2   3   79.29    4.10
   1   2   3   78.59    4.20
   1   2   3   73.79    3.80
   1   2   3   66.59    4.10
   1   2   3   75.69    4.00
  -2  -2  -3   20.90    1.60
   2  -2   3   22.80    1.50
   2  -2   3   22.80    1.30
   2  -2   3   22.50    1.30
  -2  -2  -3   20.00    1.80
   2  -2   3   22.70    1.40
   2   2   3   20.10    1.60
   2   2   3   24.00    1.80
  -2   2  -3   20.50    1.20
   2   2   3   21.60    1.50
   2   2   3   25.40    1.50
   2   2   3   25.00    1.90
  -2   2  -3   23.00    1.30
   2   2   3   22.00    1.80
   3  -2   3   96.99    5.00
   3  -2   3   98.09    5.20
  -3  -2  -3   98.19    5.40
  -3  -2  -3   97.09    5.60
   3  -2   3   96.19    5.00
   3  -2   3   97.19    5.10
   3   2   3   96.99    5.30
   3   2   3   95.09    5.10
   3   2   3   82.69    5.40
  -3   2  -3   93.79    5.00
   3   2   3   92.59    5.50
  -3   2  -3   97.49    4.90
  -3   2  -3   93.39    5.00
   3   2   3  102.59    5.50
   3   2   3   95.59    5.30
   3   2   3   95.39    4.80
   3   2   3  108.49    5.70
   3   2   3   98.49    5.20
  -4  -2  -3   13.90    1.90
   4  -2   3   11.40    1.40
   4  -2   3   12.50    1.40
   4  -2   3   15.70    1.30
   4  -2   3   15.50    1.30
  -4  -2  -3   16.10    1.80
   4   2   3   15.50    1.50
  -4   2  -3   15.40    1.30
   4   2   3   14.50    1.50
   4   2   3   13.30    1.50
  -4   2  -3   16.30    1.40
   4   2   3   13.30    1.00
   4   2   3   14.10    1.80
   4   2   3   17.40    2.00
  -5  -2  -3   35.00    3.20
   5  -2   3   39.30    2.80
   5  -2   3   39.30    2.60
  -5  -2  -3   41.30    3.00
   5  -2   3   35.50    2.70
   5  -2   3   38.60    2.60
  -5   2  -3   37.70    2.60
  -5   2  -3   40.80    2.70
   5   2   3   40.70    2.80
   5   2   3   39.90    2.90
   5   2   3   39.10    3.00
   6  -2   3   12.80    1.80
  -6  -2  -3   18.40    2.30
   6  -2   3   15.50    1.80
   6  -2   3   12.40    1.60
  -6  -2  -3   15.60    2.30
   6   2   3   16.20    1.90
  -6   2  -3   17.70    1.90
   6   2   3   12.00    1.80
   6   2   3   13.90    1.90
  -6   2  -3   15.40    1.90
  -6  -3   3   -0.50    0.90
   6  -3  -3    0.00    0.70
  -6  -3   3   -1.10    0.90
   6  -3  -3   -0.20    0.70
   6   3  -3   -0.40    1.00
  -6   3   3    0.00    0.70
  -6   3   3    0.30    0.80
  -5  -3   3    4.10    1.30
   5  -3  -3    3.50    0.80
  -5  -3   3    2.90    1.10
   5  -3  -3    3.10    0.80
   5  -3  -3    6.10    1.10
   5   3  -3    4.60    1.10
  -5   3   3    4.80    1.00
   5   3  -3    4.70    1.50
   5   3  -3    4.80    1.20
  -5   3   3    4.40    1.10
   4  -3  -3    1.00    0.60
   4  -3  -3    0.50    0.50
  -4  -3   3    1.00    0.70
   4  -3  -3    0.80    0.60
  -4  -3   3    0.70    0.90
  -4   3   3    0.40    0.50
   4   3  -3    1.10    0.90
   4   3  -3    0.50    0.70
   4   3  -3    1.60    0.90
   4   3  -3    0.90    0.60
   3  -3  -3   28.10    2.00
  -3  -3   3   28.10    2.10
  -3  -3   3   27.20    2.40
   3  -3  -3   27.30    1.80
   3  -3  -3   29.70    2.00
   3   3  -3   29.40    2.40
   3   3  -3   28.20    1.90
   3   3  -3   27.00    2.40
  -3   3   3   27.50    1.90
   3   3  -3   26.90    2.20
   2  -3  -3  887.11   42.70
  -2  -3   3  757.32   42.90
  -2  -3   3  944.21   43.10
   2  -3  -3  863.41   42.80
  -2  -3   3  897.61   43.00
   2  -3  -3  925.51   42.50
  -2  -3   3  903.11   42.80
   2  -3  -3  927.01   42.50
   2  -3  -3  938.61   42.90
  -2   3   3  963.20   42.90
  -2   3   3  916.01   42.70
   2   3  -3  782.62   43.00
   2   3  -3  828.82   42.90
   2   3  -3  835.02   42.90
   2   3  -3  790.82   43.00
   1  -3  -3   10.00    1.10
  -1  -3   3    9.00    1.10
   1  -3  -3    8.80    0.70
  -1  -3   3    8.10    0.80
   1  -3  -3    9.50    0.80
   1  -3  -3    7.70    1.10
  -1  -3   3   10.30    1.10
   1  -3  -3    6.20    0.80
  -1  -3   3    8.90    1.00
   1  -3  -3    6.90    0.90
   1   3  -3    9.90    1.10
  -1   3   3    9.00    0.90
   1   3  -3    7.50    1.00
  -1   3   3    7.20    0.70
   0  -3   3  283.87   13.00
   0  -3   3  253.17   13.00
   0  -3  -3  260.07   13.10
   0  -3  -3  275.57   13.30
   0  -3  -3  217.98   13.10
   0  -3  -3  280.37   13.20
   0  -3   3  266.37   12.80
   0  -3   3  263.87   13.00
   0  -3   3  266.37   12.70
   0   3  -3  256.47   13.00
   0   3   3  233.88   13.20
   0   3  -3  266.67   13.00
   0   3   3  269.57   13.10
   0   3   3  265.87   12.90
   0   3  -3  271.17   12.90
   0   3  -3  268.37   13.00
   1  -3   3  190.68    9.40
  -1  -3  -3  194.08   10.10
   1  -3   3  198.98    9.40
   1  -3   3  195.58    9.40
  -1  -3  -3  192.28   10.00
   1  -3   3  188.18    9.40
  -1  -3  -3  188.68    9.80
   1  -3   3  196.08    9.50
  -1  -3  -3  192.58    9.90
   1   3   3  201.08    9.80
   1   3   3  166.48    9.90
   1   3   3  201.78   10.00
   1   3   3  187.28    9.60
   1   3   3  197.98    9.50
  -1   3  -3  190.48    9.40
  -1   3  -3  186.38    9.40
   2  -3   3  392.36   18.80
  -2  -3  -3  347.07   19.30
   2  -3   3  394.36   18.70
   2   3   3  365.86   19.20
   2   3   3  388.06   18.80
   2   3   3  380.16   18.90
   2   3   3  374.36   19.30
   2   3   3  404.26   19.30
   2   3   3  389.16   19.10
   3  -3   3    8.60    1.10
   3  -3   3   10.10    0.70
  -3  -3  -3    7.70    1.20
   3  -3   3   10.60    0.70
  -3  -3  -3   10.10    1.50
   3  -3   3    9.70    1.00
   3   3   3    7.00    1.30
   3   3   3    9.20    1.10
  -3   3  -3   10.00    0.70
  -3   3  -3    9.10    0.70
   3   3   3   13.60    1.50
   3   3   3   10.20    1.50
   3   3   3    8.40    1.00
   4  -3   3   89.99    5.10
  -4  -3  -3   94.29    5.60
   4  -3   3   87.49    5.20
   4  -3   3   94.19    4.90
   4  -3   3   92.09    4.90
  -4  -3  -3   93.79    5.90
   4   3   3   99.19    5.20
  -4   3  -3   95.29    4.90
   4   3   3   92.39    5.30
  -4   3  -3   91.99    4.90
   4   3   3   97.89    5.40
   4   3   3   92.39    5.80
  -5  -3  -3   35.00    3.30
  -5  -3  -3   36.40    3.00
   5  -3   3   35.40    2.40
   5  -3   3   34.60    2.60
   5  -3   3   37.30    2.70
   5  -3   3   37.90    2.40
   5   3   3   38.70    2.70
   5   3   3   35.30    2.70
  -5   3  -3   34.60    2.40
   5   3   3   36.30    3.20
   6  -3   3  392.96   19.40
   6  -3   3  380.96   19.60
  -6  -3  -3  398.96   20.20
   6  -3   3  376.86   19.40
  -6  -3  -3  392.16   20.60
  -6   3  -3  381.96   19.40
   6   3   3  391.56   19.90
   6   3   3  374.26   20.10
  -6  -4   3   32.30    3.10
   6  -4  -3   30.80    2.60
  -6  -4   3   26.30    3.50
   6  -4  -3   32.70    2.70
  -6   4   3   33.90    2.70
   6   4  -3   36.60    3.60
  -5  -4   3    1.60    1.00
   5  -4  -3    0.80    0.60
   5  -4  -3    0.80    0.60
  -5  -4   3    0.40    1.10
   5  -4  -3    1.40    0.80
   5   4  -3    0.90    1.00
   5   4  -3    2.50    1.40
  -5   4   3    1.20    0.70
   5   4  -3    2.10    1.20
   4  -4  -3   -0.30    0.40
  -4  -4   3    0.50    0.70
  -4  -4   3   -0.60    0.80
   4  -4  -3    0.70    0.50
   4  -4  -3   -0.20    0.50
   4   4  -3    0.20    0.60
   4   4  -3    0.10    0.90
   4   4  -3    0.20    0.80
   4   4  -3   -0.40    0.80
  -4   4   3    0.50    0.50
  -3  -4   3  109.09    7.00
  -3  -4   3  118.79    6.70
   3  -4  -3  111.59    6.50
   3  -4  -3  118.89    6.30
   3  -4  -3  127.39    6.60
   3   4  -3  130.59    7.20
  -3   4   3  126.89    6.50
   3   4  -3  116.59    6.80
   3   4  -3  124.29    6.40
   3   4  -3  138.89    7.30
  -2  -4   3   85.29    4.90
   2  -4  -3   93.49    4.90
  -2  -4   3   87.59    5.10
   2  -4  -3   89.19    4.60
  -2  -4   3   83.39    5.10
   2  -4  -3   88.59    4.90
   2  -4  -3   91.99    5.20
  -2  -4   3   92.59    5.30
  -2   4   3   83.79    4.80
   2   4  -3   99.29    5.40
   2   4  -3   87.39    5.30
   2   4  -3   90.89    5.10
   1  -4  -3   84.29    4.20
   1  -4  -3   75.89    4.40
  -1  -4   3   72.39    4.40
  -1  -4   3   81.59    4.20
  -1  -4   3   83.09    4.50
   1  -4  -3   86.89    4.80
   1  -4  -3   74.89    4.50
  -1  -4   3   71.19    4.40
   1  -4  -3   76.29    4.40
   1   4  -3   86.09    4.60
   1   4  -3   80.49    4.40
  -1   4   3   74.89    4.30
   1   4  -3   73.19    4.50
  -1   4   3   86.29    4.10
   0  -4   3   54.59    2.60
   0  -4   3   52.69    2.90
   0  -4  -3   44.00    3.00
   0  -4   3   53.99    2.90
   0  -4   3   42.60    2.80
   0  -4   3   46.90    2.90
   0  -4  -3   50.09    2.90
   0  -4  -3   50.19    3.10
   0  -4  -3   51.69    3.20
   0   4  -3   51.29    3.00
   0   4   3   51.69    2.60
   0   4   3   47.10    3.00
   0   4  -3   51.19    3.00
   0   4   3   55.29    3.30
   0   4   3   53.29    3.20
   0   4  -3   51.19    2.80
   0   4   3   50.99    2.70
   0   4  -3   55.89    3.00
  -1  -4  -3  598.34   28.20
  -1  -4  -3  515.85   28.00
  -1  -4  -3  592.24   28.00
   1  -4   3  585.14   27.50
   1  -4   3  562.44   27.60
  -1  -4  -3  551.04   28.20
   1  -4   3  566.24   27.60
   1   4   3  580.94   27.50
  -1   4  -3  559.14   27.60
   1   4   3  575.44   28.00
   1   4   3  571.34   28.20
   1   4   3  499.95   28.10
  -1   4  -3  570.94   27.60
  -1   4  -3  587.94   27.50
   1   4   3  578.74   27.70
  -1   4  -3  578.94   27.50
   2  -4   3  284.47   13.90
  -2  -4  -3  274.97   14.40
   2  -4   3  287.97   14.00
  -2  -4  -3  293.97   14.80
   2   4   3  282.87   14.80
   2   4   3  289.67   14.00
   2   4   3  260.17   14.40
   2   4   3  291.97   14.70
   2   4   3  285.97   14.20
  -3  -4  -3   35.70    2.90
   3  -4   3   32.60    2.10
   3  -4   3   33.70    2.20
  -3  -4  -3   36.10    2.60
   3   4   3   32.80    2.50
   3   4   3   36.00    2.90
   3   4   3   31.20    2.30
   3   4   3   33.60    2.90
   3   4   3   33.10    2.10
   4  -4   3    6.00    0.60
   4  -4   3    3.90    0.90
  -4  -4  -3    5.30    1.20
   4  -4   3    5.90    0.60
  -4  -4  -3    5.40    1.40
   4  -4   3    4.10    0.90
   4   4   3    5.20    1.60
   4   4   3    4.40    0.90
   4   4   3    4.50    1.40
   4   4   3    5.50    1.20
   4   4   3    6.70    1.20
   4   4   3    4.60    1.20
  -5  -4  -3   -0.10    0.90
   5  -4   3    0.00    0.70
  -5  -4  -3    1.10    1.10
   5  -4   3   -0.10    0.40
   5  -4   3    0.10    0.40
   5   4   3   -0.10    0.70
   5   4   3   -1.30    0.70
   5   4   3    1.10    1.20
   6  -4   3    0.40    0.50
   6  -4   3    1.00    0.50
  -6  -4  -3   -0.40    1.00
  -6  -4  -3   -0.10    1.20
   6   4   3    0.30    1.20
   6   4   3    2.30    1.10
   6  -5  -3   43.60    3.10
  -6  -5   3   40.80    3.60
  -6  -5   3   37.50    4.40
   6   5  -3   45.00    5.50
   6   5  -3   38.20    4.00
  -5  -5   3    2.80    1.50
  -5  -5   3    2.10    1.10
   5  -5  -3    1.40    0.80
   5  -5  -3    1.20    0.70
   5   5  -3    1.90    1.40
  -5   5   3    1.70    0.80
   5   5  -3    1.00    1.10
   5   5  -3    1.30    1.40
  -4  -5   3    4.70    1.20
   4  -5  -3    5.10    1.00
  -4  -5   3    5.70    1.50
   4  -5  -3    4.70    1.00
   4   5  -3    5.00    1.30
  -4   5   3    5.30    0.90
   4   5  -3    5.00    1.60
   4   5  -3    4.60    1.50
  -3  -5   3   89.99    5.00
  -3  -5   3   76.69    5.30
   3  -5  -3   83.79    4.80
   3  -5  -3   89.29    4.80
   3   5  -3   76.59    5.10
  -3   5   3   77.79    4.70
   3   5  -3   94.49    5.50
   3   5  -3   90.69    5.50
   3   5  -3   77.29    5.10
   2  -5  -3   46.20    3.10
   2  -5  -3   51.99    3.10
  -2  -5   3   44.80    3.30
   2  -5  -3   49.10    3.30
  -2  -5   3   51.89    3.80
  -2  -5   3   49.70    3.10
   2   5  -3   47.50    3.20
   2   5  -3   55.19    3.60
  -2   5   3   48.10    2.80
  -2   5   3   51.99    3.10
   2   5  -3   53.49    3.60
  -1  -5   3   21.70    1.60
  -1  -5   3   24.20    1.80
   1  -5  -3   23.40    2.00
   1  -5  -3   24.80    1.90
   1  -5  -3   23.20    1.80
  -1  -5   3   20.40    1.80
  -1  -5   3   22.90    1.90
  -1   5   3   23.90    1.80
   1   5  -3   23.90    1.80
  -1   5   3   20.60    1.40
   1   5  -3   21.00    2.00
   1   5  -3   20.10    1.90
  -1   5   3   22.30    1.90
   0  -5  -3   40.70    2.70
   0  -5  -3   42.10    2.80
   0  -5   3   42.20    2.50
   0  -5  -3   38.50    2.70
   0  -5  -3   37.40    2.40
   0  -5   3   33.80    2.40
   0  -5   3   35.50    2.40
   0   5   3   39.20    2.60
   0   5   3   32.50    2.70
   0   5   3   41.10    2.20
   0   5  -3   36.70    2.40
   0   5  -3   41.40    2.60
   0   5   3   41.50    2.80
   1  -5   3  288.47   14.20
  -1  -5  -3  268.97   14.90
  -1  -5  -3  286.77   14.50
   1  -5   3  289.37   14.20
  -1  -5  -3  262.07   14.70
   1   5   3  293.07   15.00
   1   5   3  311.17   15.00
  -1   5  -3  308.47   14.20
   1   5   3  280.87   14.70
   1   5   3  291.17   14.20
  -1   5  -3  276.17   14.20
   2  -5   3    0.20    0.20
  -2  -5  -3    0.00    0.60
   2  -5   3    0.80    0.40
  -2  -5  -3    0.10    0.70
   2  -5   3    0.30    0.20
  -2   5  -3    0.40    0.20
   2   5   3    0.70    0.80
   2   5   3    0.10    0.80
   2   5   3    1.00    0.70
   2   5   3    0.40    0.50
   3  -5   3  150.38    7.90
  -3  -5  -3  158.88    8.50
  -3  -5  -3  142.39    8.80
   3   5   3  160.98    8.10
   3   5   3  169.68    9.00
   3   5   3  156.38    8.90
   3   5   3  153.78    8.50
   3   5   3  139.49    8.40
  -4  -5  -3  142.19    8.80
  -4  -5  -3  147.89    8.30
   4   5   3  156.58    8.90
   4   5   3  143.29    8.30
   4   5   3  154.28    8.80
   4   5   3  137.09    7.90
  -5  -5  -3  150.58    8.80
  -5  -5  -3  133.99    8.00
   5   5   3  132.29    7.60
   5   5   3  128.79    8.40
   5  -6  -3  107.29    6.40
   5  -6  -3  107.99    6.50
  -5  -6   3  114.79    7.00
   5   6  -3  122.49    7.80
   5   6  -3  118.69    7.80
   5   6  -3  123.99    7.30
  -4  -6   3   62.89    4.20
   4  -6  -3   61.69    3.80
   4  -6  -3   55.69    3.80
  -4   6   3   57.99    3.80
   4   6  -3   56.69    4.70
   4   6  -3   66.29    4.40
   4   6  -3   64.79    4.90
   3  -6  -3   82.79    5.00
   3  -6  -3   82.19    4.90
   3   6  -3   86.79    5.40
   3   6  -3   72.69    5.60
   3   6  -3   81.99    5.60
   3   6  -3  105.39    5.60
  -3   6   3   93.89    5.00
   2  -6  -3   10.50    1.50
   2  -6  -3   12.90    1.50
   2  -6  -3    8.60    1.20
   2   6  -3   14.00    2.00
  -2   6   3   14.70    1.50
   2   6  -3   13.50    1.70
   2   6  -3    9.70    1.60
  -1  -6   3   74.49    4.60
  -1  -6   3   81.79    4.70
  -1  -6   3   79.59    4.80
   1  -6  -3   69.09    4.60
   1  -6  -3   72.89    4.60
   1  -6  -3   77.39    5.00
   1   6  -3   81.79    4.90
  -1   6   3   82.79    4.60
   1   6  -3   86.99    4.70
  -1   6   3   82.19    4.80
   0  -6   3  143.49    8.00
   0  -6   3  143.09    8.00
   0  -6  -3  147.39    8.30
   0  -6   3  144.09    8.00
   0   6   3  153.48    8.20
   0   6  -3  156.68    8.20
   0   6   3  156.48    8.40
   0   6   3  160.58    8.50
   0   6  -3  159.88    8.00
  -1  -6  -3  537.25   26.40
   1  -6   3  530.55   26.20
   1  -6   3  536.55   26.20
   1   6   3  458.95   26.90
  -1   6  -3  510.35   26.20
   1   6   3  572.84   27.10
  -1   6  -3  549.65   26.20
   1   6   3  571.94   26.80
   2  -6   3    4.30    0.60
   2  -6   3    4.60    0.60
  -2  -6  -3    3.90    1.00
   2   6   3    3.60    1.10
   2   6   3    3.80    0.70
  -2   6  -3    5.10    0.60
   2   6   3    5.00    1.40
   2   6   3    3.70    1.30
  -3  -6  -3   11.90    1.70
  -3  -6  -3   12.80    2.20
   3   6   3   15.20    2.40
   3   6   3   13.00    1.40
   3   6   3    9.60    1.70
   3   6   3   13.80    2.20
  -4  -6  -3   26.00    3.40
  -4  -6  -3   25.70    2.80
   4   6   3   25.50    2.40
   4   6   3   27.40    2.90
   4   6   3   26.20    3.40
   4   6   3   26.60    3.30
  -5  -6  -3    0.00    1.20
  -5  -6  -3    1.60    1.20
   5   6   3   -0.10    1.00
   5   6   3   -1.00    1.20
   5   6   3    0.10    0.90
   4  -7  -3  155.88    8.20
   4  -7  -3  150.08    8.20
   4   7  -3  158.68    9.40
   4   7  -3  147.39    9.40
  -4   7   3  136.79    8.50
   4   7  -3  155.78    8.90
   3  -7  -3  152.18    8.50
   3  -7  -3  155.58    8.60
  -3   7   3  161.98    8.60
   3   7  -3  161.28    9.00
   3   7  -3  157.58    9.40
   3   7  -3  158.88    9.50
   2  -7  -3  122.59    7.20
   2  -7  -3  132.09    7.50
   2  -7  -3  126.89    7.30
  -2   7   3  134.29    7.40
  -2   7   3  141.59    7.30
   2   7  -3  123.89    7.40
   2   7  -3  122.39    7.70
   1  -7  -3    0.90    0.80
  -1  -7   3    1.60    0.80
   1  -7  -3    1.30    0.90
  -1   7   3    2.40    0.90
   1   7  -3    3.00    1.00
  -1   7   3    2.30    0.90
   1   7  -3    0.90    0.80
   0  -7   3  283.57   13.00
   0  -7   3  240.88   12.90
   0  -7   3  248.88   13.00
   0   7   3  239.48   13.40
   0   7  -3  237.78   12.90
   0   7  -3  256.57   13.10
   0   7   3  247.48   13.20
   1  -7   3    0.30    0.40
   1  -7   3    1.00    0.50
   1  -7   3    0.70    0.50
   1  -7   3    0.70    0.60
   1   7   3    1.10    1.00
  -1   7  -3    0.80    0.60
  -1   7  -3    0.50    0.60
   1   7   3    1.10    1.10
   1   7   3    0.70    0.90
   2  -7   3   26.70    1.80
   2  -7   3   28.00    1.80
   2  -7   3   24.40    1.70
  -2   7  -3   26.30    1.70
   2   7   3   28.40    3.00
   2   7   3   22.00    2.50
   2   7   3   26.70    2.80
  -3  -7  -3   12.40    1.90
   3   7   3   11.60    1.90
   3   7   3   10.20    2.10
   3   7   3   10.50    2.10
  -4  -7  -3  176.38   10.10
   4   7   3  168.58   10.20
   4   7   3  186.08   11.00
   4   7   3  190.88   11.00
   3  -8  -3    1.10    0.70
   3   8  -3    1.40    1.30
  -3   8   3    1.40    0.90
  -3   8   3    0.60    0.80
   3   8  -3    0.20    1.10
   2  -8  -3    5.50    1.10
   2  -8  -3    4.70    1.20
  -2   8   3    6.00    1.40
   2   8  -3    3.90    1.40
  -2   8   3    5.00    1.20
   2   8  -3    5.80    1.40
  -1  -8   3  249.28   13.60
   1  -8  -3  248.18   13.00
   1  -8  -3  222.08   13.30
  -1   8   3  245.18   13.10
  -1   8   3  253.17   13.00
   1   8  -3  242.48   13.20
   1   8  -3  251.47   13.00
   0  -8   3   12.20    1.60
   0   8  -3   13.90    1.80
   0   8   3   15.70    2.30
   0   8   3   11.40    1.80
   0   8  -3   13.30    1.80
   1  -8   3    6.50    1.10
   1  -8   3    6.80    1.00
   1  -8   3    5.80    1.00
   1  -8   3    5.50    1.00
  -1   8  -3    5.50    1.10
   1   8   3   11.30    2.00
  -1   8  -3    4.20    1.00
   1   8   3    7.30    1.50
   2  -8   3   18.00    1.50
   2  -8   3   20.80    1.60
   2   8   3   19.20    2.70
   2   8   3   15.30    2.60
  -2   8  -3   18.30    1.50
   2   8   3   23.60    2.70
   3   8   3    5.50    1.90
   3   8   3   10.20    2.20
   3   8   3    6.90    1.70
   2  -9  -3   77.29    5.20
   2  -9  -3   83.59    5.30
  -2   9   3   78.19    5.30
   2   9  -3   77.49    5.80
  -2   9   3   84.09    5.30
   2   9  -3   94.69    5.70
   1  -9  -3   58.39    4.60
  -1   9   3   63.49    4.40
   1   9  -3   63.09    4.40
   1   9  -3   65.49    4.60
  -1   9   3   61.49    4.60
   0  -9   3   16.70    2.00
   0   9   3   15.10    2.20
   0   9  -3   16.00    2.00
   0   9  -3   17.70    2.20
   0   9   3   19.70    2.60
   1  -9   3   65.79    4.30
   1  -9   3   67.19    4.30
   1  -9   3   69.99    4.00
  -1   9  -3   67.69    4.40
   1   9   3   76.79    5.00
   1   9   3   70.89    5.20
   2  -9   3   -0.10    0.50
   2  -9   3    0.20    0.50
   2   9   3    0.20    1.20
   7   0  -4   -0.90    0.80
  -7   0   4    0.00    1.00
   7   0  -4   -0.80    0.70
  -7   0   4    0.80    1.10
   6   0  -4    1.90    0.70
  -6   0   4    0.70    0.90
   6   0  -4    0.80    0.90
  -6   0   4    1.20    1.00
  -5   0   4    0.80    0.80
   5   0  -4    0.60    0.60
   5   0  -4    0.00    0.80
  -5   0   4    0.90    0.80
   4   0  -4   24.70    1.70
   4   0  -4   26.40    2.20
  -4   0   4   24.50    2.00
   4   0  -4   23.70    2.10
   4   0  -4   26.10    1.90
   4   0  -4   23.20    2.10
  -4   0   4   24.30    2.20
   3   0  -4    0.30    0.50
   3   0  -4   -0.20    0.50
  -3   0   4    0.20    0.50
   3   0  -4    0.10    0.40
   3   0  -4    0.20    0.40
  -3   0   4    0.00    0.40
   3   0  -4    0.30    0.50
   2   0  -4  609.84   30.70
   2   0  -4  587.04   30.90
  -2   0   4  616.74   30.70
   2   0  -4  688.43   30.90
   2   0  -4  674.63   30.90
   2   0  -4  595.74   30.80
  -1   0   4    0.10    0.30
   1   0  -4    0.30    0.30
  -1   0   4    0.00    0.30
   1   0  -4   -0.30    0.30
  -1   0   4   -0.10    0.30
  -1   0   4    1.80    0.50
   1   0  -4    0.10    0.30
   1   0  -4   -0.20    0.30
   0   0   4  429.96   19.70
   0   0   4  400.86   19.40
   0   0  -4  394.76   19.50
   0   0   4  380.06   19.50
   0   0  -4  351.36   19.50
   0   0  -4  400.16   19.40
   0   0   4  412.96   19.40
   0   0   4  412.16   19.50
   1   0   4   -0.40    0.20
  -1   0  -4   -0.20    0.20
   1   0   4   -0.30    0.30
   1   0   4   -0.10    0.20
   1   0   4   -0.20    0.20
  -1   0  -4   -0.10    0.30
   1   0   4   -0.30    0.30
   1   0   4   -0.10    0.30
   2   0   4  430.26   20.90
   2   0   4  413.66   21.10
   2   0   4  444.36   21.20
   2   0   4  437.96   21.20
   2   0   4  424.66   21.00
   2   0   4  434.56   21.20
  -2   0  -4  427.06   21.10
  -2   0  -4  431.66   21.20
   3   0   4   -0.30    0.40
   3   0   4   -0.20    0.40
  -3   0  -4   -0.40    0.40
  -3   0  -4   -0.20    0.40
   3   0   4   -0.40    0.20
  -3   0  -4   -0.60    0.40
   3   0   4    0.30    0.50
   3   0   4    0.00    0.40
   3   0   4   -0.80    0.50
   3   0   4    0.20    0.40
   4   0   4    1.00    0.60
  -4   0  -4    2.00    0.70
   4   0   4    2.10    0.70
   4   0   4    1.60    0.50
   4   0   4    1.40    0.60
   4   0   4    1.50    0.70
  -4   0  -4    1.40    0.70
   5   0   4   -0.40    0.50
  -5   0  -4   -0.40    0.60
   5   0   4   -0.10    0.70
  -5   0  -4    0.30    0.60
   5   0   4    0.00    0.70
  -6   0  -4   25.90    2.40
  -6   0  -4   27.50    2.60
   6   0   4   25.90    2.40
   6   0   4   20.80    2.40
   6   0   4   21.80    2.30
  -7  -1   4    4.10    1.40
   7  -1  -4    6.60    1.20
  -7  -1   4    6.70    1.80
  -7   1   4    5.30    1.40
   7   1  -4    9.10    1.30
  -7   1   4    3.90    1.40
   7   1  -4    4.90    1.40
  -6  -1   4  107.69    6.20
   6  -1  -4   99.79    5.50
  -6  -1   4  100.69    6.60
   6  -1  -4   99.19    5.70
  -6   1   4   95.09    6.00
   6   1  -4  104.39    5.40
  -6   1   4   97.79    6.30
   6   1  -4   91.59    6.10
   5  -1  -4  689.93   34.40
   5  -1  -4  715.73   34.10
   5  -1  -4  696.73   34.70
  -5  -1   4  732.43   35.10
  -5  -1   4  664.83   34.60
  -5   1   4  696.93   34.50
  -5   1   4  730.93   34.90
   5   1  -4  714.13   34.00
   5   1  -4  701.03   34.80
   5   1  -4  625.44   34.30
  -4  -1   4  330.47   15.90
   4  -1  -4  320.27   15.50
   4  -1  -4  308.27   15.80
   4  -1  -4  298.97   15.80
  -4  -1   4  283.97   16.00
   4  -1  -4  351.76   15.90
   4  -1  -4  313.17   15.40
   4   1  -4  305.77   15.70
   4   1  -4  298.57   16.00
  -4   1   4  342.97   16.10
   4   1  -4  284.37   16.00
  -4   1   4  286.57   15.70
   3  -1  -4  561.44   28.80
   3  -1  -4  609.84   28.40
  -3  -1   4  584.84   28.80
   3  -1  -4  630.94   28.90
   3  -1  -4  588.94   28.80
   3  -1  -4  535.35   28.70
   3  -1  -4  573.04   28.60
  -3  -1   4  646.34   29.10
  -3   1   4  567.64   28.70
  -3   1   4  608.04   29.00
   3   1  -4  586.64   29.00
   3   1  -4  527.05   28.70
   3   1  -4  601.54   29.00
   3   1  -4  509.95   28.80
   3   1  -4  631.14   28.90
   2  -1  -4  974.70   42.40
  -2  -1   4  916.21   42.40
   2  -1  -4  782.32   42.40
   2  -1  -4  815.52   42.40
   2  -1  -4  841.72   42.20
  -2  -1   4  861.71   42.50
  -2  -1   4  834.42   42.30
   2  -1  -4  864.41   42.40
  -2   1   4  910.81   42.30
   2   1  -4  902.91   42.50
  -2   1   4  878.61   42.50
   2   1  -4  780.32   42.40
   2   1  -4  936.11   42.40
  -1  -1   4  848.72   38.80
   1  -1  -4  728.33   38.80
   1  -1  -4  837.92   39.10
   1  -1  -4  795.42   38.90
  -1  -1   4  814.82   38.90
   1  -1  -4  903.81   38.80
  -1  -1   4  829.82   38.80
   1  -1  -4  826.92   38.80
  -1  -1   4  678.83   38.80
   1   1  -4  730.93   38.80
  -1   1   4  846.12   38.80
   1   1  -4  742.93   38.90
   0  -1  -4  855.01   40.00
   0  -1   4  826.82   39.90
   0  -1   4  834.52   40.00
   0  -1   4  810.02   39.80
   0  -1   4  845.32   39.80
   0  -1  -4  794.52   40.10
   0   1   4  714.73   40.00
   0   1   4  878.31   40.00
   0   1  -4  777.42   39.90
   0   1   4  874.11   40.00
   0   1  -4  844.42   39.90
   0   1   4  823.62   39.90
   0   1   4  755.02   39.90
   0   1  -4  863.81   39.90
   0   1  -4  851.01   40.00
  -1  -1  -4 1767.22   83.29
   1  -1   4 1732.73   82.99
   1  -1   4 1706.03   82.89
   1  -1   4 1707.53   82.99
  -1  -1  -4 1760.12   83.09
   1  -1   4 1851.01   83.39
   1   1   4 1762.62   82.99
   1   1   4 1629.04   83.19
   1   1   4 1647.14   83.09
  -1   1  -4 1684.03   82.79
  -1   1  -4 1747.03   82.99
   1   1   4 1861.61   83.19
   1   1   4 1765.52   82.99
  -1   1  -4 1685.13   82.99
   1   1   4 1573.74   83.09
   1   1   4 1621.54   83.19
  -2  -1  -4  115.79    6.10
   2  -1   4  111.79    5.80
  -2  -1  -4  122.49    6.00
   2  -1   4  113.29    5.80
   2  -1   4  105.29    5.70
  -2   1  -4  115.59    5.80
   2   1   4  110.59    5.90
   2   1   4  115.39    6.00
  -2   1  -4  108.09    5.70
   2   1   4  113.79    5.90
   2   1   4  108.59    6.00
  -2   1  -4  112.69    5.70
   2   1   4  117.79    5.90
   2   1   4  116.09    6.10
   3  -1   4    1.40    0.50
   3  -1   4    1.20    0.50
  -3  -1  -4    0.80    0.50
   3  -1   4    1.70    0.50
  -3  -1  -4    0.10    0.50
   3  -1   4    0.60    0.40
  -3   1  -4    1.10    0.40
   3   1   4    1.60    0.60
  -3   1  -4    0.80    0.40
   3   1   4    2.10    0.70
   3   1   4    0.90    0.60
   3   1   4    1.10    0.50
   3   1   4    0.80    0.40
   3   1   4    1.50    0.60
  -3   1  -4    1.30    0.50
   3   1   4    0.70    0.50
   4  -1   4    1.30    0.60
   4  -1   4    3.60    0.80
   4  -1   4    1.70    0.60
  -4  -1  -4    1.90    0.70
  -4  -1  -4    3.80    1.00
   4  -1   4    2.90    0.70
   4   1   4    1.50    0.70
   4   1   4    2.60    0.80
  -4   1  -4    2.20    0.60
   4   1   4    2.70    0.80
  -4   1  -4    2.70    0.70
   4   1   4    2.80    0.80
   4   1   4    2.70    0.80
   5  -1   4    1.50    0.70
  -5  -1  -4    1.70    1.00
   5  -1   4    2.40    0.90
  -5  -1  -4    2.30    0.90
   5  -1   4    1.80    0.90
   5  -1   4    0.90    0.60
   5   1   4    0.70    0.70
   5   1   4    1.20    0.80
   5   1   4    2.00    0.80
  -5   1  -4    1.10    0.70
  -5   1  -4    1.40    0.70
   5   1   4    2.90    1.00
   6  -1   4    1.50    1.00
   6  -1   4    2.60    1.10
   6  -1   4    2.00    0.80
  -6  -1  -4    3.70    1.20
  -6  -1  -4    2.70    1.20
   6   1   4    2.70    1.10
   6   1   4    3.70    1.20
  -6   1  -4    2.50    1.00
  -6   1  -4    1.90    1.00
  -7  -2   4    1.10    1.40
   7  -2  -4   -0.90    0.70
  -7  -2   4   -0.40    1.00
  -7   2   4    0.30    1.00
   7   2  -4    0.80    1.20
  -7   2   4    1.00    1.10
  -6  -2   4    0.00    0.90
  -6  -2   4    1.80    1.20
   6  -2  -4    0.30    0.70
  -6   2   4   -0.40    0.80
  -6   2   4   -0.80    0.70
   6   2  -4    0.90    0.70
   6   2  -4    0.50    1.10
  -5  -2   4    1.40    1.10
   5  -2  -4    1.50    0.70
   5  -2  -4    2.20    0.80
  -5  -2   4    1.70    1.00
   5   2  -4    1.60    0.80
  -5   2   4    1.40    0.90
   5   2  -4    1.70    1.10
  -5   2   4    0.90    0.70
   4  -2  -4    3.50    0.90
   4  -2  -4    2.40    0.70
  -4  -2   4    3.90    1.10
  -4  -2   4    2.50    0.90
   4  -2  -4    2.70    0.80
  -4   2   4    1.60    0.70
   4   2  -4    1.70    0.80
   4   2  -4    2.60    1.00
  -4   2   4    2.00    0.70
   4   2  -4    3.10    1.10
   3  -2  -4    9.60    0.90
  -3  -2   4    8.60    1.30
  -3  -2   4    8.30    1.30
   3  -2  -4    7.40    1.10
   3  -2  -4   10.20    1.20
   3  -2  -4   12.50    1.00
   3  -2  -4   10.70    1.30
  -3  -2   4   14.10    1.30
  -3   2   4   11.40    1.20
   3   2  -4   11.70    1.50
   3   2  -4    8.00    1.10
   3   2  -4    7.20    1.10
   3   2  -4    7.20    1.10
   3   2  -4   10.30    1.50
  -3   2   4    9.70    1.30
   2  -2  -4    5.70    0.60
   2  -2  -4    7.60    1.00
   2  -2  -4    5.50    0.70
   2  -2  -4    6.10    0.80
  -2  -2   4    5.60    0.90
  -2  -2   4    5.90    0.90
   2  -2  -4    7.30    1.00
  -2  -2   4    5.40    0.90
  -2  -2   4    5.60    0.80
   2   2  -4    4.10    0.80
   2   2  -4    4.80    0.80
  -2   2   4    7.20    0.90
   2   2  -4    7.40    1.10
   1  -2  -4  606.14   27.10
   1  -2  -4  524.25   26.70
   1  -2  -4  548.35   26.70
  -1  -2   4  498.35   26.70
   1  -2  -4  549.85   26.40
   1  -2  -4  502.15   26.60
  -1  -2   4  513.35   26.70
  -1  -2   4  543.65   26.60
   1  -2  -4  494.55   26.80
  -1  -2   4  512.15   26.70
   1   2  -4  593.04   26.80
   1   2  -4  596.14   26.70
   1   2  -4  572.94   26.80
  -1   2   4  577.64   26.70
  -1   2   4  549.95   26.50
   0  -2   4 3399.16  166.78
   0  -2   4 3610.74  165.88
   0  -2   4 3485.35  166.08
   0  -2  -4 3038.30  165.88
   0  -2   4 3440.06  166.58
   0  -2   4 3268.87  166.08
   0  -2  -4 3882.01  167.18
   0  -2   4 3458.15  165.88
   0   2  -4 3520.25  165.98
   0   2  -4 3525.15  166.68
   0   2  -4 3494.25  165.78
   0   2   4 3660.73  166.98
   0   2   4 3662.23  166.18
   0   2   4 2945.61  165.98
   0   2  -4 3217.88  166.18
   1  -2   4  533.85   25.90
   1  -2   4  540.75   26.10
  -1  -2  -4  549.25   26.50
  -1  -2  -4  559.34   26.30
   1  -2   4  520.65   25.90
   1  -2   4  533.25   26.00
  -1   2  -4  536.05   25.90
   1   2   4  551.14   26.10
   1   2   4  521.05   26.30
   1   2   4  546.05   26.40
   1   2   4  537.15   26.10
   1   2   4  603.64   26.50
   1   2   4  514.15   26.30
  -1   2  -4  539.45   25.90
   1   2   4  453.15   26.30
   2  -2   4   84.39    4.50
   2  -2   4   86.39    4.30
  -2  -2  -4   88.49    5.00
   2  -2   4   86.49    4.30
   2  -2   4   81.69    4.50
  -2  -2  -4   84.69    4.70
   2   2   4   87.99    4.60
   2   2   4   90.59    4.90
   2   2   4   87.09    4.70
   2   2   4   87.69    4.90
   2   2   4   88.19    4.90
  -2   2  -4   85.69    4.30
   2   2   4   84.69    4.60
   2   2   4   81.99    5.00
   3  -2   4    3.80    0.70
  -3  -2  -4    6.30    1.00
   3  -2   4    5.80    0.80
   3  -2   4    5.80    0.70
  -3  -2  -4    5.70    1.10
   3  -2   4    5.40    0.60
  -3   2  -4    6.40    0.60
   3   2   4    3.80    0.90
   3   2   4    4.60    0.90
   3   2   4    6.50    1.10
   3   2   4    5.70    0.90
  -3   2  -4    6.10    0.70
   3   2   4    3.40    0.90
   3   2   4    6.80    1.00
   3   2   4    5.60    0.80
   4  -2   4    2.80    0.80
   4  -2   4    2.80    0.60
  -4  -2  -4    2.00    0.80
   4  -2   4    2.00    0.70
   4  -2   4    2.60    0.60
  -4  -2  -4    2.80    1.10
   4   2   4    2.70    1.10
   4   2   4    2.80    0.90
  -4   2  -4    3.70    0.70
   4   2   4    3.30    0.80
   4   2   4    2.80    0.80
  -4   2  -4    2.70    0.60
   5  -2   4    1.20    0.80
  -5  -2  -4    1.60    1.00
  -5  -2  -4    1.50    0.90
   5  -2   4    2.70    0.70
   5  -2   4    1.80    0.60
   5  -2   4    1.50    0.90
   5   2   4    1.50    0.90
  -5   2  -4    2.10    0.70
  -5   2  -4    2.10    0.70
   5   2   4    1.40    0.90
   5   2   4    2.10    1.00
  -6  -2  -4    7.00    1.60
  -6  -2  -4    8.30    1.80
   6  -2   4    8.50    1.30
   6  -2   4    6.60    1.40
   6  -2   4    6.00    1.30
   6  -2   4    5.80    1.10
   6   2   4    7.60    1.50
   6   2   4    8.30    1.50
  -6   2  -4    8.50    1.40
   6   2   4    7.60    1.50
  -6   2  -4    9.00    1.50
   6  -3  -4   52.99    3.70
  -6  -3   4   49.80    3.80
  -6  -3   4   47.00    4.20
   6  -3  -4   45.70    3.10
  -6   3   4   46.10    3.50
   6   3  -4   47.40    2.90
  -6   3   4   45.60    3.60
   6   3  -4   47.30    4.10
   5  -3  -4    1.80    0.70
   5  -3  -4    3.40    0.90
  -5  -3   4    3.00    1.20
  -5  -3   4    4.30    1.20
  -5   3   4    2.60    0.90
   5   3  -4    4.00    2.00
   5   3  -4    3.10    1.10
   5   3  -4    3.80    1.40
  -5   3   4    4.20    1.10
   4  -3  -4   38.40    2.90
   4  -3  -4   41.90    2.60
  -4  -3   4   40.70    3.00
   4  -3  -4   47.80    3.00
  -4  -3   4   50.29    3.60
   4   3  -4   46.50    3.20
   4   3  -4   44.30    3.40
   4   3  -4   44.20    3.40
  -4   3   4   45.00    2.90
  -3  -3   4  112.69    6.10
  -3  -3   4  117.59    6.40
   3  -3  -4  124.39    6.10
   3  -3  -4  113.29    5.70
   3  -3  -4  106.79    6.00
   3   3  -4  103.09    6.10
   3   3  -4  106.09    6.40
  -3   3   4  100.59    5.90
   3   3  -4  104.39    6.30
  -2  -3   4  326.77   16.80
   2  -3  -4  356.86   17.00
   2  -3  -4  354.96   16.80
  -2  -3   4  332.97   16.60
   2  -3  -4  348.37   16.70
   2  -3  -4  344.77   16.70
   2  -3  -4  334.97   16.40
  -2  -3   4  310.47   16.90
  -2  -3   4  309.17   16.80
  -2   3   4  339.17   16.60
   2   3  -4  369.26   16.80
   2   3  -4  318.87   16.90
   2   3  -4  292.77   16.90
   1  -3  -4  556.74   30.60
   1  -3  -4  558.64   30.90
  -1  -3   4  626.84   30.60
  -1  -3   4  651.83   30.60
   1  -3  -4  619.64   30.50
   1  -3  -4  639.74   30.70
   1  -3  -4  670.23   30.80
  -1  -3   4  593.74   30.70
  -1  -3   4  652.13   30.40
   1  -3  -4  623.04   30.30
   1   3  -4  606.94   30.50
  -1   3   4  615.74   30.40
   1   3  -4  681.73   30.80
   1   3  -4  680.83   30.80
  -1   3   4  595.44   30.60
   0  -3  -4  296.47   13.90
   0  -3   4  269.27   13.30
   0  -3  -4  278.97   13.80
   0  -3  -4  272.57   13.20
   0  -3  -4  282.97   13.80
   0  -3   4  274.87   13.50
   0  -3   4  268.27   13.50
   0  -3  -4  247.58   13.60
   0  -3   4  262.27   13.50
   0  -3   4  272.67   13.20
   0   3  -4  273.97   13.60
   0   3   4  289.67   13.70
   0   3   4  277.97   13.50
   0   3  -4  276.67   13.60
   0   3  -4  265.47   13.40
   0   3   4  249.58   13.80
   0   3  -4  277.17   13.50
  -1  -3  -4   45.60    2.90
   1  -3   4   44.80    2.20
   1  -3   4   45.50    2.30
  -1  -3  -4   40.90    2.60
  -1  -3  -4   38.70    2.70
   1  -3   4   42.60    2.40
   1  -3   4   44.50    2.20
  -1   3  -4   41.00    2.20
   1   3   4   39.20    2.70
  -1   3  -4   42.40    2.20
   1   3   4   40.20    2.80
   1   3   4   43.60    2.40
   1   3   4   42.30    2.70
   1   3   4   42.40    2.50
   1   3   4   48.50    3.00
  -2  -3  -4  221.18   12.20
  -2  -3  -4  245.78   12.00
   2  -3   4  235.78   11.70
   2  -3   4  234.18   11.60
   2   3   4  252.47   12.30
   2   3   4  232.28   11.70
   2   3   4  253.07   12.40
   2   3   4  208.48   12.00
   2   3   4  228.58   11.80
   3  -3   4  148.09    7.50
   3  -3   4  147.29    7.40
   3  -3   4  144.69    7.10
   3  -3   4  145.99    7.10
  -3  -3  -4  143.09    8.10
  -3  -3  -4  147.39    7.80
   3   3   4  139.79    7.70
   3   3   4  126.39    7.90
   3   3   4  143.19    8.00
   3   3   4  141.19    7.60
   3   3   4  146.79    7.50
  -4  -3  -4  209.98   10.80
   4  -3   4  190.38    9.90
  -4  -3  -4  181.08   10.20
   4  -3   4  183.28    9.80
   4  -3   4  193.18    9.50
   4  -3   4  190.28    9.50
   4   3   4  192.98   10.00
   4   3   4  181.88    9.90
   4   3   4  185.88   10.00
  -4   3  -4  191.48    9.50
   4   3   4  194.08   10.40
   4   3   4  180.78    9.80
  -5  -3  -4    4.90    1.50
   5  -3   4    3.80    1.00
  -5  -3  -4    3.80    1.20
   5  -3   4    2.40    0.90
   5  -3   4    2.60    0.70
   5  -3   4    4.10    0.70
   5   3   4    3.70    1.00
   5   3   4    3.90    1.30
   5   3   4    3.50    1.00
  -5   3  -4    2.50    0.70
  -6  -3  -4   81.69    5.40
   6  -3   4   81.59    5.00
   6  -3   4   79.09    4.60
   6  -3   4   76.19    4.70
  -6  -3  -4   78.89    5.80
  -6   3  -4   83.59    4.70
   6   3   4   81.89    5.20
   6   3   4   77.49    5.00
   6   3   4   85.69    5.40
  -6  -4   4    7.90    1.80
  -6  -4   4    7.10    1.90
   6  -4  -4    7.70    1.30
   6  -4  -4    5.60    1.20
   6   4  -4    8.40    2.00
  -6   4   4    6.40    1.30
  -5  -4   4    3.50    1.20
  -5  -4   4    4.20    1.50
   5  -4  -4    3.20    0.80
   5  -4  -4    6.20    1.20
   5   4  -4    4.30    1.30
  -5   4   4    5.30    1.10
   5   4  -4    3.70    1.40
   5   4  -4    7.30    1.80
   4  -4  -4    2.60    0.70
  -4  -4   4    6.00    1.50
   4  -4  -4    2.70    0.80
   4  -4  -4    2.40    0.70
  -4  -4   4    2.60    1.00
   4   4  -4    0.50    1.00
   4   4  -4    1.40    1.10
  -4   4   4    0.70    0.60
   4   4  -4    2.90    1.10
  -3  -4   4   84.19    5.30
   3  -4  -4   88.69    4.90
   3  -4  -4   82.69    4.60
  -3  -4   4   80.69    5.00
   3  -4  -4   89.99    5.00
   3   4  -4   88.59    5.20
  -3   4   4   83.39    4.80
   3   4  -4   91.19    5.50
   3   4  -4   88.79    5.50
   2  -4  -4   71.09    4.10
  -2  -4   4   71.99    4.10
  -2  -4   4   73.99    4.40
   2  -4  -4   71.69    3.80
  -2  -4   4   78.49    4.40
   2  -4  -4   75.79    4.50
  -2  -4   4   68.69    4.30
   2  -4  -4   72.69    3.80
   2  -4  -4   81.49    4.20
   2   4  -4   77.79    4.50
  -2   4   4   63.79    4.00
   2   4  -4   77.29    4.50
   2   4  -4   62.59    4.20
   2   4  -4   62.99    4.20
  -1  -4   4  141.49    7.80
  -1  -4   4  143.89    7.80
  -1  -4   4  150.88    7.50
   1  -4  -4  152.18    7.40
   1  -4  -4  151.48    7.60
   1  -4  -4  143.99    7.80
   1  -4  -4  144.89    7.90
   1  -4  -4  138.29    7.80
  -1  -4   4  145.59    7.80
   1  -4  -4  164.18    8.30
   1   4  -4  139.29    7.70
  -1   4   4  149.79    7.50
   1   4  -4  158.68    8.00
   1   4  -4  161.88    8.00
  -1   4   4  143.89    7.70
   0  -4   4  603.84   31.90
   0  -4   4  612.94   31.90
   0  -4  -4  592.74   32.10
   0  -4  -4  619.74   32.00
   0  -4   4  648.94   31.90
   0  -4   4  665.03   31.60
   0  -4  -4  626.44   32.30
   0  -4  -4  704.53   32.20
   0   4   4  701.63   32.20
   0   4   4  664.93   31.80
   0   4  -4  683.23   31.80
   0   4  -4  644.84   32.00
   0   4   4  662.93   31.70
   0   4  -4  663.53   32.00
   0   4   4  717.63   32.40
   0   4  -4  643.04   32.00
  -1  -4  -4  198.68   10.40
  -1  -4  -4  211.78   10.60
   1  -4   4  208.48   10.00
   1  -4   4  206.88   10.00
   1  -4   4  201.68   10.00
  -1  -4  -4  210.38   10.60
  -1  -4  -4  202.28   10.70
   1  -4   4  204.08    9.80
  -1   4  -4  204.58   10.00
   1   4   4  217.68   10.80
   1   4   4  174.18   10.60
   1   4   4  198.38   10.10
   1   4   4  199.38   10.00
  -1   4  -4  205.58    9.90
  -1   4  -4  204.88    9.90
  -1   4  -4  201.88   10.00
   1   4   4  178.38   10.40
  -2  -4  -4    3.90    0.90
   2  -4   4    5.80    0.70
  -2  -4  -4    6.60    1.30
   2  -4   4    7.30    0.70
   2   4   4    6.10    1.20
   2   4   4    6.00    0.90
   2   4   4    5.60    0.70
   2   4   4    6.00    1.20
   2   4   4    6.80    1.10
   3  -4   4  116.49    6.10
  -3  -4  -4  127.99    6.70
   3  -4   4  116.59    6.20
  -3  -4  -4  119.09    7.00
   3   4   4  116.69    7.00
   3   4   4  115.39    6.20
   3   4   4  106.39    6.60
   3   4   4  122.69    7.00
   3   4   4  118.69    6.40
  -4  -4  -4   23.30    2.30
   4  -4   4   23.40    1.30
   4  -4   4   19.70    1.80
  -4  -4  -4   21.10    2.70
   4  -4   4   20.80    2.00
   4   4   4   21.90    2.10
   4   4   4   25.10    2.60
   4   4   4   20.70    1.80
   4   4   4   19.40    2.20
   4   4   4   22.50    2.30
   5  -4   4    6.90    1.30
  -5  -4  -4    4.10    1.50
   5  -4   4    4.10    0.60
  -5  -4  -4    4.70    1.30
   5  -4   4    5.70    0.70
   5  -4   4    5.50    1.20
   5   4   4    5.00    1.30
   5   4   4    4.90    1.50
   5   4   4    3.80    1.00
  -6  -4  -4    2.60    1.50
   6  -4   4    2.30    0.60
   6  -4   4    2.40    0.60
  -6  -4  -4    2.30    1.40
   6   4   4    2.70    1.40
   6   4   4    2.60    1.20
   6  -5  -4    6.70    1.30
  -6  -5   4    6.70    1.70
   6   5  -4    6.90    1.70
  -6   5   4    4.90    1.20
   6   5  -4    7.50    2.20
   5  -5  -4   25.10    2.20
   5  -5  -4   30.50    2.20
  -5  -5   4   25.90    2.80
   5   5  -4   32.60    3.30
  -5   5   4   27.20    2.30
   5   5  -4   24.80    2.80
   5   5  -4   22.20    3.10
  -4  -5   4   41.60    3.20
   4  -5  -4   45.50    3.00
   4  -5  -4   40.20    2.70
   4  -5  -4   38.90    3.00
   4   5  -4   39.10    3.60
   4   5  -4   51.69    3.60
  -4   5   4   47.00    3.00
   4   5  -4   37.90    3.60
  -3  -5   4   16.50    1.80
   3  -5  -4   17.00    1.50
   3  -5  -4   11.90    1.50
   3  -5  -4   14.30    1.30
  -3   5   4   17.40    1.70
   3   5  -4   12.40    1.70
   3   5  -4   20.10    2.40
   3   5  -4   13.50    1.70
   3   5  -4   18.10    2.30
  -2  -5   4   19.30    1.60
   2  -5  -4   20.70    1.80
   2  -5  -4   20.40    1.80
   2  -5  -4   18.40    1.90
  -2  -5   4   20.80    1.90
   2   5  -4   19.10    1.90
   2   5  -4   21.00    2.10
  -2   5   4   21.90    1.50
   2   5  -4   21.90    2.20
  -2   5   4   23.10    1.80
   1  -5  -4  282.47   13.50
  -1  -5   4  251.67   13.30
   1  -5  -4  251.67   13.00
   1  -5  -4  249.58   13.70
   1  -5  -4  256.57   13.40
  -1  -5   4  255.07   13.30
   1   5  -4  270.77   13.30
  -1   5   4  269.27   12.90
  -1   5   4  253.67   13.30
   1   5  -4  276.57   13.50
  -1   5   4  271.47   13.50
   1   5  -4  244.18   13.40
   0  -5  -4    1.30    0.70
   0  -5   4    1.10    0.50
   0  -5   4    0.60    0.40
   0  -5  -4    0.50    0.60
   0  -5  -4    0.60    0.50
   0  -5  -4    0.70    0.60
   0   5   4    0.90    0.30
   0   5   4    1.30    0.70
   0   5   4    1.40    0.70
   0   5  -4    0.40    0.50
   0   5   4    0.30    0.60
   0   5  -4    0.60    0.40
   0   5   4    0.30    0.40
  -1  -5  -4    0.80    0.80
  -1  -5  -4    0.50    0.60
   1  -5   4    0.10    0.30
   1  -5   4    0.30    0.30
   1   5   4    0.50    0.30
   1   5   4    0.90    0.80
  -1   5  -4    0.60    0.30
   1   5   4    0.40    0.70
   1   5   4    0.50    0.60
  -1   5  -4    0.60    0.40
   1   5   4    0.70    0.40
  -2  -5  -4    0.70    0.90
   2  -5   4    0.10    0.40
  -2  -5  -4    0.10    0.60
   2   5   4    0.10    0.40
   2   5   4   -0.10    0.80
   2   5   4   -0.20    0.50
   2   5   4   -0.10    0.70
   2   5   4   -1.20    0.70
  -3  -5  -4  541.85   26.40
  -3  -5  -4  503.45   26.80
   3  -5   4  532.65   25.90
   3   5   4  513.75   26.80
   3   5   4  484.65   26.70
   3   5   4  553.34   26.50
   3   5   4  528.45   26.00
   3   5   4  542.35   25.90
  -4  -5  -4   32.70    2.90
  -4  -5  -4   35.40    3.40
   4  -5   4   30.30    2.40
   4   5   4   35.20    3.40
   4   5   4   31.90    2.60
   4   5   4   36.20    2.90
  -5  -5  -4  169.38    9.50
  -5  -5  -4  163.88   10.00
   5   5   4  161.18    9.00
   5   5   4  163.28    9.80
  -5  -6   4    7.20    1.70
   5  -6  -4    7.00    1.30
  -5   6   4    5.70    1.20
   5   6  -4    3.90    1.70
   5   6  -4    5.00    1.80
   5   6  -4    7.90    1.80
   4  -6  -4   77.29    4.60
   4  -6  -4   70.79    4.60
   4   6  -4   78.69    5.50
   4   6  -4   66.89    5.40
   4   6  -4   79.89    5.20
  -4   6   4   77.69    4.60
   3  -6  -4   69.79    4.40
   3  -6  -4   67.49    4.30
   3   6  -4   77.19    4.70
  -3   6   4   71.99    4.30
   3   6  -4   73.19    5.00
   3   6  -4   65.59    4.90
   3   6  -4   74.29    4.70
   2  -6  -4   29.20    2.20
   2  -6  -4   25.40    2.20
   2  -6  -4   26.50    2.40
  -2   6   4   25.10    2.10
   2   6  -4   29.40    2.40
   2   6  -4   25.30    2.50
   2   6  -4   28.60    2.70
  -1  -6   4   34.30    2.50
  -1  -6   4   35.20    2.50
   1  -6  -4   31.40    2.80
   1  -6  -4   30.70    2.50
  -1   6   4   29.40    2.60
  -1   6   4   32.80    2.40
   1   6  -4   32.70    2.60
   1   6  -4   31.80    2.40
   0  -6   4    4.60    0.90
   0  -6  -4    5.80    1.20
   0  -6   4    4.30    0.80
   0   6  -4    5.00    0.90
   0   6   4    4.20    1.20
   0   6  -4    5.10    0.90
   0   6   4    6.90    1.20
   0   6   4    3.50    1.10
   1  -6   4   -0.10    0.30
   1  -6   4    0.10    0.40
  -1  -6  -4    0.40    0.60
   1   6   4   -0.40    0.60
   1   6   4   -0.20    0.80
   1   6   4    0.40    0.80
  -1   6  -4    0.20    0.40
  -1   6  -4   -0.20    0.40
   1   6   4    0.10    0.40
   2  -6   4   65.89    3.40
  -2  -6  -4   65.09    4.20
   2  -6   4   66.49    3.50
   2   6   4   66.79    3.80
   2   6   4   61.29    4.60
   2   6   4   71.39    4.40
   2   6   4   63.49    4.60
  -3  -6  -4   -0.70    1.00
  -3  -6  -4    0.00    0.90
   3   6   4   -0.90    0.60
   3   6   4    0.30    1.10
   3   6   4    0.70    0.90
   3   6   4    0.30    1.00
  -4  -6  -4   48.90    3.80
  -4  -6  -4   55.89    4.50
   4   6   4   46.30    3.30
   4   6   4   44.60    3.70
   4   6   4   50.29    4.30
  -5  -6  -4    0.30    1.10
  -5  -6  -4   -1.00    1.20
   5   6   4   -1.40    0.80
   5   6   4    1.00    1.50
   4  -7  -4    3.90    1.00
   4   7  -4    3.10    1.30
   4   7  -4    4.30    1.70
  -4   7   4    4.20    1.10
   4   7  -4    2.30    1.60
   3  -7  -4   29.50    2.30
  -3   7   4   26.40    2.30
   3   7  -4   24.00    3.00
   3   7  -4   29.20    3.40
   3   7  -4   24.60    2.80
   3   7  -4   30.60    2.90
   2  -7  -4    5.80    1.30
   2  -7  -4    5.60    1.10
  -2   7   4    8.60    1.40
   2   7  -4    4.70    1.30
   2   7  -4    6.20    1.40
  -2   7   4    7.90    1.40
   1  -7  -4   20.90    2.20
  -1  -7   4   20.90    2.10
   1  -7  -4   26.00    2.50
   1   7  -4   23.00    2.30
  -1   7   4   21.40    2.10
  -1   7   4   26.40    2.40
   1   7  -4   21.60    2.10
   0  -7   4    1.30    0.60
   0  -7   4    1.60    0.70
   0   7  -4    0.80    0.70
   0   7  -4    0.20    0.70
   0   7   4    1.40    0.90
   0   7   4    1.00    0.90
   1  -7   4   24.10    1.60
   1  -7   4   24.30    1.80
   1  -7   4   24.20    1.80
   1   7   4   21.20    2.70
  -1   7  -4   22.60    1.80
   1   7   4   18.10    2.20
  -1   7  -4   21.80    1.80
   1   7   4   27.70    3.10
   2  -7   4   80.49    4.10
   2  -7   4   75.09    4.10
   2   7   4   77.79    5.50
  -2   7  -4   76.19    4.00
   2   7   4   74.69    5.40
   2   7   4   77.79    5.10
  -3  -7  -4   61.79    4.40
   3   7   4   60.49    5.00
   3   7   4   65.29    5.00
   3   7   4   68.89    4.60
  -4  -7  -4    6.50    1.60
   4   7   4    6.40    1.60
   4   7   4    5.70    1.90
   3  -8  -4    6.60    1.30
  -3   8   4    9.00    1.60
   3   8  -4    6.90    1.70
  -3   8   4    8.00    1.50
   3   8  -4    7.90    1.90
   3   8  -4    9.00    1.80
   2  -8  -4   -0.20    0.70
   2  -8  -4    0.20    0.70
   2   8  -4   -0.10    0.90
  -2   8   4   -0.20    0.80
  -2   8   4    0.50    0.80
   2   8  -4   -0.20    0.90
   1  -8  -4  177.48   10.00
  -1  -8   4  152.38    9.30
  -1   8   4  168.08    9.60
   1   8  -4  170.68    9.40
   1   8  -4  172.68    9.60
  -1   8   4  176.98    9.50
   0  -8   4   70.29    4.50
   0  -8   4   70.09    4.80
   0   8  -4   76.79    4.70
   0   8   4   76.39    4.90
   0   8   4   75.39    5.20
   0   8  -4   73.09    4.60
   1  -8   4   14.40    1.50
   1  -8   4   13.50    1.50
   1  -8   4   13.10    1.10
   1   8   4   12.30    1.90
   1   8   4    9.90    1.90
  -1   8  -4   15.90    1.70
   2  -8   4    0.10    0.40
   2  -8   4   -0.30    0.30
   2   8   4   -0.30    0.90
   2   8   4   -0.90    1.00
   2   8   4   -0.70    1.10
   3   8   4   10.00    2.20
   3   8   4   10.90    2.00
   3   8   4   12.00    2.60
   2  -9  -4   30.60    2.90
   2   9  -4   32.60    3.30
  -2   9   4   29.40    2.90
   2   9  -4   31.00    3.00
  -2   9   4   32.20    3.00
   1   9  -4    4.50    1.40
  -1   9   4    8.90    1.70
   1   9  -4    6.90    1.60
  -1   9   4    9.40    1.90
   0  -9   4   11.40    1.60
   0   9  -4    7.90    1.50
   0   9   4    6.80    1.70
   0   9   4    6.60    1.60
   0   9  -4    5.90    1.30
   1  -9   4    3.80    0.90
  -1   9  -4    4.10    1.00
   1   9   4    4.60    1.50
   1   9   4    5.00    1.70
  -7   0   5   -0.10    1.20
   7   0  -5    0.60    0.80
   7   0  -5    2.50    1.20
  -7   0   5    0.90    1.00
   6   0  -5    0.50    0.90
  -6   0   5   -0.30    0.90
   6   0  -5    0.80    0.70
  -6   0   5   -0.60    0.70
   5   0  -5 1190.48   55.49
  -5   0   5 1067.49   56.29
   5   0  -5 1124.69   56.09
  -5   0   5 1182.38   55.99
  -4   0   5    0.50    0.70
   4   0  -5   -0.70    0.60
   4   0  -5   -0.10    0.60
  -4   0   5   -0.20    0.50
   4   0  -5   -0.50    0.50
   4   0  -5   -0.20    0.40
  -3   0   5  731.93   34.10
  -3   0   5  704.43   33.80
   3   0  -5  610.24   33.90
   3   0  -5  629.74   33.90
   3   0  -5  663.63   34.00
   3   0  -5  739.73   33.80
   3   0  -5  744.33   34.00
   2   0  -5   -0.30    0.50
  -2   0   5   -0.10    0.50
   2   0  -5   -0.40    0.40
   2   0  -5    0.20    0.50
  -2   0   5   -0.20    0.40
   2   0  -5    0.00    0.40
  -1   0   5   50.89    2.80
   1   0  -5   43.70    2.70
  -1   0   5   53.09    3.10
  -1   0   5   54.39    2.90
   1   0  -5   47.00    2.90
  -1   0   5   44.10    2.80
  -1   0   5   44.30    2.70
   1   0  -5   48.00    2.90
   0   0  -5   -0.70    0.40
   0   0  -5   -1.50    0.30
   0   0   5   -1.50    0.30
   0   0  -5   -0.60    0.40
   0   0   5   -1.60    0.30
   0   0   5   -1.50    0.30
   1   0   5   26.70    1.80
   1   0   5   30.50    1.90
  -1   0  -5   31.80    1.80
  -1   0  -5   30.60    1.90
   1   0   5   29.40    1.80
   1   0   5   28.80    1.80
   1   0   5   29.10    1.80
   1   0   5   29.30    1.70
   2   0   5    0.40    0.50
   2   0   5    0.60    0.40
  -2   0  -5    0.00    0.40
   2   0   5    0.10    0.30
   2   0   5    0.00    0.20
  -2   0  -5   -0.20    0.30
   2   0   5   -0.10    0.30
   2   0   5    0.20    0.40
   3   0   5  104.89    5.90
   3   0   5  113.79    6.00
   3   0   5  110.89    5.90
  -3   0  -5  106.79    5.80
   3   0   5  108.39    5.60
  -3   0  -5  112.59    6.10
   3   0   5  111.49    5.90
   4   0   5    0.00    0.50
   4   0   5    0.20    0.50
   4   0   5    0.20    0.60
  -4   0  -5    0.30    0.60
  -4   0  -5    0.00    0.50
   4   0   5   -0.60    0.60
   4   0   5   -0.10    0.30
   5   0   5  258.17   13.20
  -5   0  -5  255.87   13.50
   5   0   5  253.67   13.30
  -5   0  -5  244.28   13.20
   5   0   5  262.07   13.30
   6   0   5   -0.80    0.80
  -6   0  -5   -0.60    0.80
   6   0   5   -0.50    0.70
   6   0   5    0.30    0.80
  -6   0  -5    0.40    0.80
   7  -1  -5   -0.40    0.80
  -7  -1   5    0.30    1.20
  -7  -1   5    0.30    1.00
  -7   1   5    0.40    1.00
   7   1  -5   -0.80    0.70
   7   1  -5   -0.20    1.00
  -7   1   5   -0.20    1.00
  -6  -1   5   19.30    2.40
   6  -1  -5   21.40    1.90
   6  -1  -5   22.00    2.20
  -6  -1   5   21.40    2.80
  -6   1   5   24.30    2.80
   6   1  -5   21.10    2.60
   6   1  -5   24.60    1.90
  -6   1   5   23.60    2.60
   5  -1  -5   55.79    3.60
  -5  -1   5   51.69    3.60
   5  -1  -5   50.69    3.00
  -5  -1   5   49.00    3.80
  -5   1   5   54.19    3.80
   5   1  -5   47.40    3.40
   5   1  -5   47.80    3.70
  -5   1   5   47.30    3.40
  -4  -1   5   40.40    2.70
   4  -1  -5   36.90    2.70
   4  -1  -5   38.70    2.70
   4  -1  -5   34.90    2.30
  -4  -1   5   33.70    2.90
   4  -1  -5   34.50    2.40
  -4   1   5   35.30    2.60
   4   1  -5   40.80    3.00
   4   1  -5   39.50    2.70
  -4   1   5   44.50    3.00
  -3  -1   5    0.00    0.50
   3  -1  -5    0.60    0.60
   3  -1  -5    0.30    0.50
   3  -1  -5    1.30    0.70
   3  -1  -5    1.00    0.60
   3  -1  -5    0.40    0.40
  -3  -1   5    0.50    0.50
   3   1  -5    0.30    0.50
  -3   1   5    0.60    0.60
   3   1  -5    0.40    0.60
   3   1  -5    0.50    0.60
   3   1  -5    0.00    0.70
  -3   1   5    0.20    0.50
   2  -1  -5  126.89    6.70
   2  -1  -5  113.59    6.40
  -2  -1   5  117.09    6.50
   2  -1  -5  139.79    6.60
  -2  -1   5  127.09    6.60
  -2  -1   5  124.69    6.70
   2  -1  -5  127.99    6.70
   2  -1  -5  135.79    6.60
  -2   1   5  120.69    6.70
   2   1  -5  119.39    6.70
   2   1  -5  130.69    6.80
   2   1  -5  129.09    6.70
   2   1  -5  110.89    6.50
  -2   1   5  111.09    6.40
  -1  -1   5  442.76   22.00
  -1  -1   5  474.75   21.90
  -1  -1   5  399.66   22.10
   1  -1  -5  478.75   22.00
   1  -1  -5  457.25   22.00
   1  -1  -5  458.85   22.20
   1  -1  -5  414.96   22.30
   1   1  -5  479.95   22.00
  -1   1   5  498.25   22.30
   1   1  -5  409.86   22.10
   1   1  -5  423.86   22.10
  -1   1   5  437.16   22.00
   0  -1  -5  192.28    9.70
   0  -1   5  207.98    9.70
   0  -1   5  190.38    9.40
   0  -1   5  199.28    9.40
   0  -1   5  179.08    9.50
   0  -1   5  180.68    9.50
   0  -1  -5  162.58    9.50
   0   1   5  184.98    9.50
   0   1  -5  196.98    9.60
   0   1  -5  180.98    9.50
   0   1   5  203.08    9.70
   0   1   5  190.88    9.60
   0   1   5  210.88    9.70
   0   1  -5  184.08    9.50
   0   1  -5  191.98    9.40
   0   1   5  186.18    9.60
   1  -1   5 1476.15   65.09
   1  -1   5 1356.66   65.09
   1  -1   5 1374.06   65.09
  -1  -1  -5 1232.98   65.19
   1  -1   5 1375.46   65.09
  -1  -1  -5 1346.77   65.39
  -1   1  -5 1357.76   65.09
   1   1   5 1340.77   65.09
   1   1   5 1300.47   65.29
  -1   1  -5 1285.27   65.09
   1   1   5 1220.28   65.19
   1   1   5 1379.96   65.09
  -1   1  -5 1301.47   64.99
   1   1   5 1344.07   65.19
   1   1   5 1494.95   65.39
  -2  -1  -5  527.15   27.60
   2  -1   5  560.04   27.30
   2  -1   5  571.54   27.30
   2  -1   5  570.94   27.40
  -2  -1  -5  560.84   27.40
   2  -1   5  565.34   27.30
   2   1   5  535.55   27.50
   2   1   5  548.25   27.30
   2   1   5  596.54   27.70
  -2   1  -5  571.04   27.30
  -2   1  -5  529.35   27.20
   2   1   5  537.75   27.50
   2   1   5  588.14   27.50
   2   1   5  568.14   27.40
   2   1   5  560.14   27.40
   3  -1   5   16.40    1.30
   3  -1   5   15.70    1.20
   3  -1   5   12.80    1.20
  -3  -1  -5   12.30    1.50
  -3  -1  -5   13.80    1.50
   3  -1   5   13.80    1.40
   3   1   5   14.40    1.20
  -3   1  -5   14.30    1.10
   3   1   5   14.00    1.40
  -3   1  -5   14.70    1.30
   3   1   5   14.90    1.50
   3   1   5   13.80    1.40
   3   1   5   15.60    1.50
   3   1   5   17.00    1.50
   3   1   5   11.30    1.40
   4  -1   5   18.50    1.50
   4  -1   5   18.70    1.80
   4  -1   5   15.80    1.50
   4  -1   5   16.70    1.70
  -4  -1  -5   13.60    1.70
  -4  -1  -5   19.20    2.00
   4   1   5   15.30    1.70
  -4   1  -5   16.60    1.50
   4   1   5   17.40    1.60
  -4   1  -5   19.00    1.60
   4   1   5   18.10    1.70
   4   1   5   18.10    1.80
   5  -1   5  184.58    9.70
  -5  -1  -5  194.78   10.20
   5  -1   5  186.98    9.60
  -5  -1  -5  184.18    9.80
   5  -1   5  178.38    9.60
   5  -1   5  171.28    9.60
  -5   1  -5  175.28    9.50
   5   1   5  181.88    9.70
   5   1   5  182.28    9.90
   5   1   5  172.28    9.40
   5   1   5  184.28    9.70
  -5   1  -5  178.78    9.70
  -6  -1  -5   99.29    6.30
  -6  -1  -5  102.09    6.60
   6  -1   5  105.09    6.20
   6  -1   5  107.59    6.10
   6  -1   5  108.79    6.20
   6   1   5   98.09    6.10
   6   1   5   98.99    6.10
  -6   1  -5  102.29    6.20
  -6   1  -5  107.39    6.10
  -6  -2   5   19.90    2.90
   6  -2  -5   15.10    1.60
  -6  -2   5   16.10    2.30
  -6   2   5   14.90    2.00
   6   2  -5   16.30    1.60
  -6   2   5   16.40    2.30
   6   2  -5   15.50    2.40
  -5  -2   5  367.16   19.60
   5  -2  -5  382.26   18.60
  -5  -2   5  357.06   19.10
   5  -2  -5  385.26   19.10
  -5   2   5  384.16   19.30
  -5   2   5  393.36   19.10
   5   2  -5  367.66   19.00
   5   2  -5  348.97   19.40
  -4  -2   5  288.67   14.70
   4  -2  -5  281.07   14.40
   4  -2  -5  270.47   14.20
   4  -2  -5  277.47   13.80
  -4  -2   5  275.87   14.30
  -4   2   5  298.47   14.20
   4   2  -5  250.67   14.50
   4   2  -5  279.97   14.20
  -4   2   5  263.57   14.30
   4   2  -5  280.27   14.60
  -3  -2   5  344.47   18.00
   3  -2  -5  350.06   17.50
   3  -2  -5  347.57   17.80
   3  -2  -5  361.16   17.30
   3  -2  -5  348.37   17.70
  -3  -2   5  353.76   17.70
   3  -2  -5  315.37   17.70
  -3   2   5  353.56   17.80
  -3   2   5  353.86   17.60
   3   2  -5  370.16   18.00
   3   2  -5  361.56   17.80
   3   2  -5  371.16   18.00
   2  -2  -5  115.29    6.50
   2  -2  -5  114.19    6.50
  -2  -2   5  132.29    6.40
   2  -2  -5  120.79    6.50
   2  -2  -5  125.19    6.10
  -2  -2   5  127.49    6.60
  -2  -2   5  134.29    6.60
   2  -2  -5  119.79    6.30
  -2  -2   5  122.39    6.70
   2   2  -5  127.79    6.60
  -2   2   5  116.19    6.40
   2   2  -5  107.59    6.40
   2   2  -5  111.99    6.60
   1  -2  -5  220.58   11.20
  -1  -2   5  217.58   11.20
  -1  -2   5  236.08   11.10
   1  -2  -5  200.18   11.20
  -1  -2   5  233.08   11.30
   1  -2  -5  209.48   11.30
   1  -2  -5  203.88   11.50
  -1  -2   5  237.98   11.30
   1   2  -5  211.48   11.20
   1   2  -5  224.28   11.30
  -1   2   5  245.28   11.10
   1   2  -5  236.58   11.40
   0  -2  -5 1236.88   58.19
   0  -2  -5 1255.77   58.19
   0  -2   5 1271.07   57.99
   0  -2   5 1219.88   57.89
   0  -2   5 1164.98   57.99
   0  -2   5 1200.18   57.79
   0  -2  -5 1128.49   58.29
   0  -2   5 1166.88   58.09
   0  -2   5 1304.17   57.99
   0  -2   5 1174.38   57.89
   0   2  -5 1169.38   58.09
   0   2   5 1173.78   57.99
   0   2  -5 1152.98   57.99
   0   2  -5 1207.58   57.99
   0   2  -5 1168.38   58.09
   0   2   5 1108.19   58.19
   0   2   5 1224.78   58.19
   0   2   5 1239.98   58.29
  -1  -2  -5  791.82   37.20
   1  -2   5  739.33   36.80
   1  -2   5  757.42   36.90
  -1  -2  -5  813.02   37.40
   1  -2   5  777.32   36.90
   1  -2   5  752.82   36.80
   1   2   5  801.72   36.90
   1   2   5  790.82   37.30
   1   2   5  746.13   37.10
   1   2   5  778.82   37.00
  -1   2  -5  749.23   36.80
  -1   2  -5  737.33   36.70
  -1   2  -5  747.53   36.80
   1   2   5  754.12   37.20
   1   2   5  768.02   37.40
   1   2   5  636.14   37.10
  -1   2  -5  788.12   36.70
  -2  -2  -5  570.04   27.50
   2  -2   5  568.64   27.20
  -2  -2  -5  554.94   27.70
   2  -2   5  560.44   27.00
   2  -2   5  570.34   27.20
   2  -2   5  566.74   27.00
   2   2   5  589.54   27.70
   2   2   5  519.75   27.50
   2   2   5  582.64   27.60
  -2   2  -5  555.14   27.00
   2   2   5  499.35   27.50
   2   2   5  564.54   27.30
   2   2   5  570.54   27.20
   2   2   5  520.55   27.30
   3  -2   5   -0.10    0.50
  -3  -2  -5    0.90    0.60
   3  -2   5    0.00    0.50
  -3  -2  -5    0.20    0.60
   3  -2   5    0.10    0.30
   3  -2   5    0.50    0.30
   3   2   5   -0.20    0.50
   3   2   5    0.70    0.50
   3   2   5    0.80    0.70
  -3   2  -5   -0.10    0.30
   3   2   5    0.40    0.60
  -3   2  -5    0.20    0.30
   3   2   5   -0.40    0.50
   3   2   5   -0.70    0.50
   3   2   5   -0.30    0.80
   4  -2   5  183.28    9.30
   4  -2   5  173.88    9.40
  -4  -2  -5  181.58    9.70
   4  -2   5  189.88    9.30
  -4  -2  -5  171.18   10.00
   4  -2   5  185.98    9.40
  -4   2  -5  172.88    9.30
   4   2   5  174.68    9.70
   4   2   5  188.28    9.60
   4   2   5  179.18    9.40
  -4   2  -5  185.18    9.20
  -5  -2  -5  202.18   11.40
   5  -2   5  194.28   10.60
   5  -2   5  207.88   10.90
  -5  -2  -5  201.58   11.10
   5  -2   5  211.68   10.80
   5  -2   5  207.28   10.60
  -5   2  -5  218.48   10.70
   5   2   5  211.08   11.00
   5   2   5  202.98   10.80
  -5   2  -5  204.68   10.70
   5   2   5  195.08   10.90
   6  -2   5   29.90    2.50
   6  -2   5   32.40    2.70
   6  -2   5   31.90    2.50
  -6  -2  -5   27.60    2.80
  -6  -2  -5   30.70    3.20
   6  -2   5   33.90    3.00
  -6   2  -5   32.80    2.60
   6   2   5   37.20    3.20
   6   2   5   33.10    2.80
   6   2   5   37.50    2.80
   6  -3  -5   12.80    1.50
  -6  -3   5   14.10    2.10
  -6  -3   5   14.10    2.50
  -6   3   5   12.40    1.90
  -6   3   5   10.70    1.70
   6   3  -5    7.60    1.20
   6   3  -5   11.50    2.20
  -5  -3   5   47.40    3.90
   5  -3  -5   42.50    3.20
   5  -3  -5   45.00    2.90
  -5  -3   5   44.30    3.40
   5   3  -5   48.60    3.90
   5   3  -5   48.40    3.90
   5   3  -5   44.70    3.40
  -5   3   5   43.90    3.20
  -4  -3   5   14.90    2.10
  -4  -3   5   12.20    1.70
   4  -3  -5   20.10    1.50
   4  -3  -5   20.90    1.80
   4  -3  -5   21.80    1.90
  -4   3   5   16.50    1.60
   4   3  -5   18.00    2.20
   4   3  -5   14.00    2.00
   4   3  -5   19.00    2.00
   3  -3  -5  306.27   15.60
  -3  -3   5  317.47   16.00
  -3  -3   5  356.96   16.50
   3  -3  -5  295.97   16.00
   3  -3  -5  336.47   15.60
   3  -3  -5  311.27   16.00
  -3   3   5  298.17   15.90
   3   3  -5  303.37   16.30
   3   3  -5  329.57   16.10
   3   3  -5  312.07   16.40
   2  -3  -5   14.90    1.40
  -2  -3   5   14.30    1.50
   2  -3  -5   14.50    1.20
   2  -3  -5   15.80    1.10
  -2  -3   5   18.90    1.60
   2  -3  -5   14.10    1.40
  -2  -3   5   15.00    1.30
   2  -3  -5   13.50    1.40
   2  -3  -5   15.40    1.60
  -2   3   5   16.90    1.40
   2   3  -5   10.80    1.40
   2   3  -5   18.10    1.50
   2   3  -5   10.90    1.50
  -1  -3   5  781.62   36.60
   1  -3  -5  703.13   36.60
   1  -3  -5  792.82   36.60
  -1  -3   5  765.42   36.20
   1  -3  -5  719.93   36.80
   1  -3  -5  735.53   36.40
  -1  -3   5  796.52   36.50
   1  -3  -5  734.43   36.10
  -1  -3   5  689.23   36.40
   1  -3  -5  697.03   36.50
  -1   3   5  734.73   36.40
   1   3  -5  718.63   36.50
   1   3  -5  759.82   36.40
   1   3  -5  725.13   36.40
   1   3  -5  803.82   36.60
  -1   3   5  767.22   36.30
   0  -3  -5  104.69    5.80
   0  -3   5  101.99    5.30
   0  -3  -5  101.69    5.60
   0  -3   5  114.29    5.40
   0  -3   5  100.09    5.40
   0  -3  -5  102.89    5.10
   0  -3   5  104.69    5.20
   0  -3   5  105.19    5.40
   0   3  -5   98.19    5.30
   0   3   5   96.39    5.80
   0   3   5  108.69    5.60
   0   3  -5  108.39    5.50
   0   3  -5  108.79    5.50
   0   3  -5  104.79    5.50
   0   3   5  104.49    5.40
  -1  -3  -5  951.10   49.30
   1  -3   5 1017.90   48.60
  -1  -3  -5 1038.10   49.10
  -1  -3  -5 1045.00   49.20
   1  -3   5 1018.80   48.70
   1  -3   5  986.60   48.60
   1  -3   5 1022.20   48.80
   1   3   5 1048.00   49.20
   1   3   5  885.71   49.20
   1   3   5  991.70   48.80
   1   3   5 1002.30   49.10
   1   3   5 1000.30   48.90
   1   3   5 1077.19   49.30
  -1   3  -5 1018.60   48.70
  -1   3  -5  991.50   48.70
  -2  -3  -5 1128.49   50.89
   2  -3   5 1102.69   50.09
   2  -3   5 1084.89   50.19
  -2  -3  -5  973.30   50.49
   2   3   5 1077.59   50.29
   2   3   5 1076.59   50.19
   2   3   5  974.20   50.59
   2   3   5  940.81   50.69
   2   3   5  983.70   50.59
   2   3   5  986.40   50.39
   3  -3   5  289.57   13.90
  -3  -3  -5  276.47   14.60
  -3  -3  -5  293.57   15.00
   3  -3   5  277.17   13.90
   3  -3   5  290.37   14.20
   3  -3   5  283.07   14.30
   3   3   5  292.37   14.50
   3   3   5  270.17   14.80
   3   3   5  291.07   14.40
   3   3   5  274.47   14.20
   3   3   5  288.07   14.90
  -4  -3  -5  168.08    9.40
   4  -3   5  164.88    8.60
   4  -3   5  164.38    8.20
  -4  -3  -5  167.68    9.00
   4  -3   5  164.08    8.70
   4  -3   5  164.78    8.20
  -4   3  -5  167.78    8.20
   4   3   5  147.79    8.70
   4   3   5  167.78    8.60
   4   3   5  161.88    8.70
   4   3   5  164.48    8.80
   4   3   5  156.88    9.10
   5  -3   5   92.09    4.90
  -5  -3  -5   85.49    6.00
  -5  -3  -5   94.99    5.80
   5  -3   5   88.49    5.20
   5  -3   5   89.59    4.90
   5  -3   5   88.49    5.30
   5   3   5   88.39    5.70
   5   3   5   94.69    5.30
   5   3   5   86.89    5.40
  -5   3  -5   90.59    4.90
   6  -3   5   17.40    2.10
  -6  -3  -5   14.20    2.50
   6  -3   5   16.30    1.60
   6  -3   5   15.60    1.50
  -6  -3  -5   15.90    2.20
   6  -3   5   18.80    2.10
   6   3   5   14.80    2.10
   6   3   5   14.00    1.90
  -6   3  -5   15.40    1.50
   6   3   5   16.10    2.10
  -6  -4   5   40.30    3.50
   6  -4  -5   34.80    3.10
  -6  -4   5   39.60    4.00
   6  -4  -5   44.80    2.90
   6   4  -5   42.80    4.00
   6   4  -5   42.30    3.50
  -6   4   5   35.60    3.10
   5  -4  -5    0.30    0.70
   5  -4  -5    0.00    0.70
  -5  -4   5    1.10    0.90
  -5  -4   5    0.60    1.10
  -5   4   5    0.80    0.70
   5   4  -5    0.50    1.20
   5   4  -5   -0.20    1.10
   5   4  -5    0.00    0.90
   4  -4  -5  252.87   13.60
  -4  -4   5  251.97   14.50
   4  -4  -5  289.77   14.70
  -4  -4   5  272.37   14.20
   4  -4  -5  263.67   14.00
   4   4  -5  309.87   14.40
  -4   4   5  275.87   14.00
   4   4  -5  262.87   14.60
  -3  -4   5  292.87   14.10
   3  -4  -5  269.37   13.60
   3  -4  -5  263.77   13.10
   3  -4  -5  265.67   13.60
  -3  -4   5  268.87   13.60
  -3   4   5  263.47   13.50
   3   4  -5  249.18   14.00
   3   4  -5  244.08   13.70
   3   4  -5  261.07   14.00
  -2  -4   5    0.70    0.60
   2  -4  -5    1.10    0.50
   2  -4  -5    0.30    0.50
  -2  -4   5   -0.20    0.40
  -2  -4   5    1.00    0.70
  -2  -4   5   -0.40    0.40
   2  -4  -5    0.30    0.40
   2  -4  -5   -0.10    0.40
   2  -4  -5    0.20    0.60
  -2   4   5    0.80    0.50
   2   4  -5    0.70    0.60
   2   4  -5   -0.40    0.50
  -2   4   5    0.10    0.40
   2   4  -5    0.10    0.60
   2   4  -5    0.20    0.60
  -1  -4   5  151.08    8.30
  -1  -4   5  161.08    7.90
   1  -4  -5  153.08    8.10
   1  -4  -5  161.48    8.40
   1  -4  -5  141.19    8.30
  -1  -4   5  158.38    8.20
   1  -4  -5  175.58    8.40
   1  -4  -5  134.49    8.60
   1  -4  -5  161.08    7.80
  -1  -4   5  149.29    8.20
  -1   4   5  163.88    8.00
   1   4  -5  163.08    8.40
  -1   4   5  148.19    8.20
   1   4  -5  158.28    8.30
   1   4  -5  174.28    8.20
   0  -4  -5 1683.63   96.99
   0  -4  -5 1739.33   96.99
   0  -4   5 2111.49   96.79
   0  -4  -5 2000.30   97.29
   0  -4   5 2124.59   96.59
   0  -4  -5 1952.10   96.89
   0  -4   5 2072.09   96.39
   0  -4   5 1995.90   96.79
   0   4   5 2058.99   97.09
   0   4   5 2074.89   96.69
   0   4   5 2104.39   96.59
   0   4   5 1878.41   97.19
   0   4  -5 2029.80   96.89
   0   4  -5 2056.59   96.69
   0   4  -5 2087.09   96.89
   0   4  -5 2037.20   96.89
  -1  -4  -5   91.69    5.30
   1  -4   5   92.99    4.80
   1  -4   5   91.49    4.80
  -1  -4  -5   96.19    5.50
  -1  -4  -5  100.09    5.60
   1  -4   5   97.89    4.80
   1  -4   5   91.39    4.70
   1   4   5   96.99    5.60
  -1   4  -5   92.19    4.70
   1   4   5   89.09    5.00
   1   4   5   90.69    5.50
  -1   4  -5   90.89    4.80
   1   4   5   95.49    4.90
  -1   4  -5   93.99    4.80
   1   4   5  104.99    5.40
  -2  -4  -5    0.90    0.80
   2  -4   5    1.20    0.50
   2  -4   5    1.10    0.40
  -2  -4  -5    1.10    0.70
   2   4   5    1.20    0.80
   2   4   5    0.80    0.70
   2   4   5    1.40    0.50
   2   4   5    2.00    0.70
   2   4   5    0.70    0.80
   3  -4   5   72.39    4.00
  -3  -4  -5   70.39    4.50
  -3  -4  -5   73.89    4.90
   3  -4   5   66.99    3.90
   3   4   5   65.19    4.40
   3   4   5   75.79    4.90
   3   4   5   78.09    4.90
   3   4   5   72.19    4.00
   3   4   5   69.39    4.20
   4  -4   5  489.15   25.20
  -4  -4  -5  500.25   25.80
  -4  -4  -5  526.55   26.40
   4  -4   5  502.15   25.40
   4   4   5  535.65   25.70
   4   4   5  495.45   25.30
   4   4   5  503.45   25.50
   4   4   5  519.65   26.20
   4   4   5  529.75   25.70
   5  -4   5   49.70    2.70
  -5  -4  -5   51.99    3.90
   5  -4   5   51.39    2.70
  -5  -4  -5   49.90    4.20
   5  -4   5   47.70    3.40
   5   4   5   49.80    3.60
   5   4   5   45.60    4.00
   5   4   5   50.19    3.40
   6  -5  -5   66.29    4.60
   6  -5  -5   70.99    4.40
  -6  -5   5   75.59    5.10
   6   5  -5   67.39    5.60
   6   5  -5   78.69    5.20
  -6   5   5   70.59    4.70
   5  -5  -5   89.69    5.50
   5  -5  -5   88.89    5.20
  -5  -5   5   88.69    5.80
   5   5  -5   99.69    6.10
   5   5  -5   97.39    6.40
   5   5  -5   94.29    6.50
  -5   5   5   89.89    5.50
   4  -5  -5  149.88    8.30
  -4  -5   5  156.48    8.50
   4  -5  -5  153.28    8.00
  -4   5   5  143.39    8.20
   4   5  -5  146.59    9.00
   4   5  -5  153.18    8.70
   4   5  -5  168.88    9.20
   3  -5  -5   81.39    4.50
   3  -5  -5   87.49    5.00
  -3  -5   5   85.79    4.90
   3  -5  -5   81.69    4.90
   3   5  -5   71.49    5.30
   3   5  -5   89.39    5.50
  -3   5   5   92.59    5.00
   3   5  -5   75.69    5.00
   2  -5  -5    6.90    0.80
   2  -5  -5   10.60    1.50
   2  -5  -5   13.30    1.60
   2  -5  -5    7.80    1.20
  -2  -5   5   10.00    1.30
  -2  -5   5    8.10    1.30
  -2   5   5    8.30    1.00
   2   5  -5    7.60    1.20
  -2   5   5    7.60    1.20
   2   5  -5    9.30    1.50
   2   5  -5    6.30    1.20
   2   5  -5    6.60    1.30
  -1  -5   5  640.84   30.60
   1  -5  -5  628.14   30.70
   1  -5  -5  579.44   30.30
   1  -5  -5  655.63   30.70
  -1  -5   5  615.74   30.50
   1  -5  -5  575.84   31.00
  -1   5   5  612.04   30.60
   1   5  -5  602.94   30.70
  -1   5   5  625.24   30.80
   1   5  -5  596.24   30.60
   1   5  -5  660.13   30.50
  -1   5   5  626.74   30.20
   0  -5  -5   27.60    2.40
   0  -5   5   33.20    2.20
   0  -5  -5   31.20    2.60
   0  -5  -5   31.30    2.30
   0  -5   5   37.60    2.20
   0   5   5   36.20    2.80
   0   5   5   33.80    2.10
   0   5   5   35.80    1.90
   0   5   5   37.90    2.80
   0   5  -5   35.80    2.30
   0   5  -5   33.30    2.20
   0   5   5   28.70    2.40
  -1  -5  -5   62.69    4.10
   1  -5   5   59.99    3.90
   1  -5   5   71.69    3.70
  -1  -5  -5   70.59    4.50
   1  -5   5   70.19    3.60
   1   5   5   61.29    4.40
   1   5   5   79.39    4.70
  -1   5  -5   68.79    3.60
   1   5   5   66.79    3.60
   1   5   5   67.69    4.20
  -1   5  -5   66.49    3.70
   1   5   5   71.69    3.80
   2  -5   5   66.69    3.80
  -2  -5  -5   70.19    4.30
  -2  -5  -5   71.09    4.70
   2   5   5   61.59    4.30
   2   5   5   71.69    4.00
   2   5   5   65.29    3.70
   2   5   5   68.49    4.60
   2   5   5   76.29    4.90
  -3  -5  -5  516.25   25.00
   3  -5   5  483.75   23.90
  -3  -5  -5  500.25   24.50
   3   5   5  461.05   24.80
   3   5   5  442.76   24.80
   3   5   5  498.05   24.10
   3   5   5  479.95   24.40
   3   5   5  484.45   23.80
  -4  -5  -5   14.00    2.40
   4  -5   5    9.90    1.40
  -4  -5  -5   12.30    1.90
   4   5   5   16.70    1.80
   4   5   5   14.30    2.30
   4   5   5   10.00    1.70
  -5  -5  -5    3.00    1.60
  -5  -5  -5    2.60    1.20
   5  -5   5    1.00    0.90
   5   5   5    3.60    1.50
   5   5   5    2.30    1.10
   5  -6  -5   20.90    2.10
  -5   6   5   19.10    2.20
   5   6  -5   20.20    2.70
   5   6  -5   22.10    3.00
   5   6  -5   16.60    2.80
   4  -6  -5   22.60    2.10
   4   6  -5   22.00    3.00
   4   6  -5   25.40    3.10
   4   6  -5   25.40    2.80
  -4   6   5   29.40    2.40
   3  -6  -5   50.19    3.40
   3   6  -5   52.49    4.10
   3   6  -5   54.39    3.80
   3   6  -5   49.90    4.10
  -3   6   5   56.09    3.60
   2  -6  -5   52.39    3.50
   2  -6  -5   54.39    3.80
  -2   6   5   47.60    3.40
   2   6  -5   45.60    3.70
   2   6  -5   54.49    3.60
  -1  -6   5  517.95   26.30
  -1  -6   5  557.44   26.40
   1  -6  -5  543.95   26.40
   1  -6  -5  515.15   26.90
  -1   6   5  502.15   26.60
   1   6  -5  530.65   26.50
   1   6  -5  550.74   26.30
  -1   6   5  498.95   26.30
   0  -6   5   53.49    3.30
   0  -6   5   55.19    3.30
   0   6   5   48.30    3.80
   0   6   5   54.99    3.10
   0   6   5   54.59    3.90
   0   6  -5   60.89    3.50
   0   6  -5   55.59    3.30
   0   6   5   42.40    3.50
  -1  -6  -5   33.50    2.50
   1  -6   5   31.20    2.00
   1  -6   5   35.10    2.10
   1   6   5   32.60    2.90
   1   6   5   33.00    2.20
  -1   6  -5   33.40    2.10
  -1   6  -5   32.90    2.10
   1   6   5   30.30    2.90
   1   6   5   32.10    2.70
  -2  -6  -5  104.49    5.90
  -2  -6  -5  101.89    6.70
   2   6   5   92.69    6.00
   2   6   5   99.49    5.50
   2   6   5  103.89    6.40
   2   6   5   93.49    6.30
  -3  -6  -5  176.58   10.30
  -3  -6  -5  168.08    9.70
   3   6   5  159.48   10.10
   3   6   5  170.48    9.20
   3   6   5  185.48   10.30
   3   6   5  188.38    9.90
  -4  -6  -5   47.80    4.50
  -4  -6  -5   53.89    4.00
   4   6   5   53.89    3.60
   4   6   5   52.09    4.50
   4   6   5   55.29    4.10
   5   6   5    1.50    1.50
   4  -7  -5   11.30    1.60
   4   7  -5   10.00    2.30
  -4   7   5   12.60    1.80
   4   7  -5    6.20    1.80
   4   7  -5   13.70    2.20
   3  -7  -5    3.70    0.90
  -3   7   5    5.20    1.20
   3   7  -5    4.50    1.30
   3   7  -5    4.00    1.40
   3   7  -5    4.90    1.40
   2  -7  -5  298.57   16.40
   2  -7  -5  325.47   16.90
   2   7  -5  322.27   16.80
  -2   7   5  323.87   16.40
   2   7  -5  317.37   16.50
  -1  -7   5  127.99    7.30
   1  -7  -5  118.59    7.80
  -1   7   5  116.79    7.50
   1   7  -5  131.19    7.40
  -1   7   5  135.29    7.40
   1   7  -5  139.79    7.30
   0  -7   5   16.30    1.60
   0  -7   5   14.80    1.60
   0   7   5   15.80    2.20
   0   7  -5   14.30    1.70
   0   7   5   10.10    1.80
   0   7   5   15.60    2.00
   0   7  -5   12.20    1.60
   1  -7   5   46.70    2.80
   1  -7   5   45.70    2.80
   1   7   5   45.10    3.40
  -1   7  -5   43.60    2.80
   1   7   5   43.80    3.70
   1   7   5   38.70    3.60
   2  -7   5    0.20    0.30
   2  -7   5   -0.20    0.30
   2   7   5    0.70    1.00
   2   7   5   -0.40    1.10
   2   7   5    0.00    0.90
  -3  -7  -5    3.40    1.20
   3   7   5    3.60    1.50
   3   7   5    5.10    1.40
   3   7   5    5.70    1.90
  -4  -7  -5   83.39    5.80
   4   7   5   89.59    6.50
   4   7   5   91.79    6.00
   3  -8  -5    0.20    0.70
   3   8  -5    1.30    1.20
   3   8  -5    1.00    1.10
  -3   8   5    0.30    0.80
  -3   8   5    1.10    0.90
   3   8  -5    0.00    1.10
   2  -8  -5    1.10    1.00
  -2   8   5    0.40    0.90
  -2   8   5   -0.80    0.70
   2   8  -5   -1.10    0.80
   2   8  -5   -0.20    0.90
  -1  -8   5   61.89    4.10
  -1   8   5   56.29    4.30
   1   8  -5   60.29    4.10
   1   8  -5   63.09    4.30
  -1   8   5   61.09    4.20
   0  -8   5   39.30    2.80
   0  -8   5   37.60    2.80
   0   8   5   44.00    3.40
   0   8  -5   32.40    2.80
   0   8   5   37.70    3.40
   0   8  -5   39.10    2.90
   1  -8   5   19.70    1.70
   1  -8   5   19.20    1.70
  -1   8  -5   21.50    1.80
   1   8   5   18.80    2.40
   1   8   5   22.90    3.10
   1   8   5   28.70    3.30
   2  -8   5   11.30    0.90
   2  -8   5    9.60    0.90
   2   8   5   12.40    2.30
   2   8   5   11.90    2.00
   2   8   5   11.20    2.30
   3   8   5    2.80    1.60
   3   8   5    2.40    1.40
   3   8   5    2.90    1.50
  -1   9   5   82.29    5.60
   1   9  -5   84.69    5.50
  -1   9   5   85.39    5.90
   1   9  -5   92.09    5.80
   0  -9   5    0.30    0.70
   0   9  -5   -0.30    0.80
   0   9   5    0.00    1.10
   0   9   5    0.60    1.00
   0   9  -5    1.10    0.90
   1  -9   5   25.00    2.00
   1  -9   5   19.70    1.90
   1   9   5   29.20    3.20
  -1   9  -5   24.30    2.00
   1   9   5   20.50    2.90
  -7   0   6    0.10    1.20
   7   0  -6    0.90    1.10
  -7   0   6   -0.30    1.00
   7   0  -6   -0.40    0.70
   6   0  -6  190.38   10.10
  -6   0   6  196.18   10.80
  -6   0   6  193.28   11.20
   6   0  -6  201.18   10.80
   5   0  -6   -0.20    0.80
  -5   0   6    0.80    0.90
  -5   0   6   -0.10    0.70
   5   0  -6   -0.10    0.60
   4   0  -6  379.76   18.70
   4   0  -6  342.47   19.00
   4   0  -6  395.56   19.20
  -4   0   6  379.86   18.80
  -4   0   6  365.56   19.20
  -3   0   6   -0.10    0.50
   3   0  -6    0.10    0.50
   3   0  -6    0.00    0.50
   3   0  -6   -0.60    0.40
   3   0  -6    0.30    0.60
  -3   0   6    0.30    0.50
   3   0  -6    0.10    0.70
   2   0  -6    5.90    0.90
   2   0  -6    6.10    1.00
   2   0  -6    3.90    0.70
  -2   0   6    3.60    0.70
  -2   0   6    4.00    0.80
   2   0  -6    4.40    0.90
  -2   0   6    3.80    0.80
  -1   0   6   -0.20    0.40
   1   0  -6   -0.30    0.40
   1   0  -6   -0.60    0.40
   1   0  -6   -0.40    0.50
  -1   0   6   -1.10    0.30
  -1   0   6   -0.70    0.30
  -1   0   6   -0.60    0.30
  -1   0   6   -0.30    0.50
   0   0   6   65.69    3.70
   0   0  -6   68.89    3.70
   0   0  -6   63.29    3.80
   0   0   6   67.29    3.60
   0   0   6   63.59    3.60
   0   0  -6   71.99    3.80
   0   0   6   66.19    3.70
   1   0   6   -1.00    0.40
   1   0   6   -0.70    0.30
   1   0   6   -1.10    0.30
  -1   0  -6   -0.90    0.40
  -1   0  -6   -1.20    0.30
   1   0   6   -1.10    0.30
   1   0   6   -0.90    0.40
   1   0   6   -1.00    0.30
   2   0   6    0.70    0.50
   2   0   6    2.50    0.50
   2   0   6    0.70    0.50
   2   0   6    2.10    0.50
  -2   0  -6    2.50    0.60
  -2   0  -6    1.80    0.60
   2   0   6    1.60    0.30
   2   0   6    1.80    0.60
   2   0   6    1.40    0.50
  -3   0  -6    0.00    0.50
   3   0   6    0.50    0.50
   3   0   6    0.50    0.50
   3   0   6    0.00    0.30
   3   0   6   -0.20    0.50
  -3   0  -6   -0.10    0.40
   3   0   6    0.10    0.40
   4   0   6   12.30    1.40
   4   0   6    8.00    1.20
  -4   0  -6   10.20    1.40
   4   0   6    7.20    1.20
  -4   0  -6    8.50    1.20
   4   0   6    8.00    1.20
   5   0   6   -1.50    0.60
  -5   0  -6    0.00    0.70
   5   0   6    0.20    0.80
   5   0   6    0.40    0.60
  -5   0  -6    0.10    0.70
  -6   0  -6   28.70    2.80
   6   0   6   25.00    2.70
   6   0   6   31.70    2.70
  -6   0  -6   26.70    2.60
   6   0   6   32.40    3.00
  -7  -1   6   81.09    6.00
  -7  -1   6   78.99    5.50
   7  -1  -6   79.39    4.70
  -7   1   6   79.69    5.80
   7   1  -6   76.69    5.50
  -7   1   6   76.29    5.40
   7   1  -6   88.49    4.80
  -6  -1   6   75.89    5.50
  -6  -1   6   84.79    5.20
   6  -1  -6   76.89    4.50
   6  -1  -6   67.39    4.80
  -6   1   6   86.89    5.50
   6   1  -6   76.69    4.40
  -6   1   6   74.39    5.00
   6   1  -6   79.19    5.40
   5  -1  -6    7.30    1.40
  -5  -1   6    7.40    1.30
   5  -1  -6    5.90    1.00
  -5  -1   6    8.80    1.70
   5   1  -6    8.60    1.40
  -5   1   6    4.80    1.20
   5   1  -6    7.80    1.60
  -5   1   6    6.90    1.40
  -4  -1   6  104.09    6.10
   4  -1  -6  115.49    5.90
   4  -1  -6  111.59    6.20
   4  -1  -6  117.09    6.30
   4  -1  -6  110.29    5.70
  -4  -1   6   94.49    6.30
  -4   1   6  102.09    6.30
   4   1  -6   99.69    6.30
   4   1  -6  117.29    6.10
   4   1  -6  100.29    6.30
  -4   1   6  106.69    6.00
  -3  -1   6  954.90   44.90
   3  -1  -6  960.20   44.50
   3  -1  -6  871.61   44.80
   3  -1  -6  920.01   44.70
   3  -1  -6  945.01   44.70
   3  -1  -6  822.32   44.70
  -3  -1   6  860.81   44.50
   3   1  -6  854.31   44.50
  -3   1   6  933.81   44.60
   3   1  -6  931.11   44.90
   3   1  -6 1018.40   45.00
   3   1  -6  843.92   44.70
  -3   1   6  932.41   44.90
  -2  -1   6  698.93   33.30
   2  -1  -6  686.33   33.40
   2  -1  -6  701.03   33.40
   2  -1  -6  707.43   33.60
   2  -1  -6  679.53   33.30
  -2  -1   6  646.54   33.40
  -2  -1   6  592.54   33.50
  -2  -1   6  702.13   33.40
  -2   1   6  668.93   33.50
   2   1  -6  622.74   33.50
   2   1  -6  742.33   33.40
  -2   1   6  707.33   33.30
   2   1  -6  685.93   33.50
  -1  -1   6  137.49    8.00
   1  -1  -6  150.48    8.20
   1  -1  -6  170.48    8.10
  -1  -1   6  154.68    7.90
   1  -1  -6  146.69    8.00
   1  -1  -6  173.88    8.20
  -1  -1   6  157.58    8.10
  -1  -1   6  136.09    8.00
  -1   1   6  157.68    7.90
  -1   1   6  167.88    8.10
   1   1  -6  167.68    8.00
   1   1  -6  153.28    8.10
   1   1  -6  145.99    8.10
  -1   1   6  160.38    8.00
   0  -1  -6  246.08   13.70
   0  -1   6  278.67   13.50
   0  -1   6  275.77   13.40
   0  -1   6  269.07   13.40
   0  -1   6  285.17   13.60
   0  -1  -6  279.97   13.60
   0  -1   6  244.88   13.70
   0   1   6  288.67   13.70
   0   1  -6  269.07   13.50
   0   1  -6  269.67   13.60
   0   1   6  264.77   13.60
   0   1   6  258.47   13.70
   0   1  -6  281.27   13.60
   0   1   6  275.37   13.50
   0   1  -6  289.47   13.60
   1  -1   6  148.99    7.40
  -1  -1  -6  145.99    7.70
   1  -1   6  147.79    7.40
   1  -1   6  147.59    7.40
  -1  -1  -6  138.19    7.50
   1  -1   6  136.79    7.40
  -1   1  -6  141.29    7.30
  -1   1  -6  141.89    7.50
   1   1   6  151.38    7.60
   1   1   6  147.59    7.60
   1   1   6  149.49    7.40
  -1   1  -6  148.09    7.40
   1   1   6  154.78    7.60
   1   1   6  145.99    7.50
   1   1   6  146.19    7.50
   2  -1   6   47.20    2.80
  -2  -1  -6   47.30    3.10
   2  -1   6   52.19    2.80
  -2  -1  -6   53.09    3.00
   2  -1   6   47.30    2.80
   2  -1   6   45.80    2.80
   2   1   6   49.80    2.80
  -2   1  -6   47.50    2.70
   2   1   6   48.30    3.00
  -2   1  -6   48.60    2.80
   2   1   6   49.99    3.00
   2   1   6   48.10    2.80
   2   1   6   47.70    2.90
   2   1   6   51.69    3.00
   2   1   6   45.10    3.00
   3  -1   6  181.38    9.20
  -3  -1  -6  177.08    9.50
   3  -1   6  179.58    9.20
  -3  -1  -6  182.18    9.30
   3  -1   6  182.88    9.20
   3  -1   6  179.08    9.20
   3   1   6  171.38    9.20
   3   1   6  191.38    9.50
  -3   1  -6  175.98    9.20
  -3   1  -6  173.78    9.10
   3   1   6  175.68    9.30
   3   1   6  180.18    9.30
   3   1   6  166.68    9.20
   3   1   6  186.18    9.50
  -4  -1  -6   14.00    1.80
  -4  -1  -6   15.40    1.80
   4  -1   6   16.20    1.80
   4  -1   6   14.90    1.60
   4  -1   6   18.90    1.60
   4  -1   6   15.60    1.50
   4   1   6   19.10    1.80
   4   1   6   17.90    1.80
   4   1   6   17.60    1.60
  -4   1  -6   17.90    1.50
   4   1   6   18.20    2.00
  -4   1  -6   17.70    1.60
   5  -1   6   59.39    3.60
  -5  -1  -6   49.10    3.90
   5  -1   6   53.49    3.70
   5  -1   6   58.49    3.70
   5  -1   6   55.89    3.70
  -5  -1  -6   58.49    3.80
  -5   1  -6   54.09    3.50
   5   1   6   59.29    3.40
  -5   1  -6   51.99    3.60
   5   1   6   52.69    3.60
   5   1   6   54.99    3.80
   5   1   6   52.49    3.90
   6  -1   6    0.00    0.90
   6  -1   6    0.30    0.80
   6  -1   6    0.60    0.70
  -6  -1  -6    1.20    1.00
  -6  -1  -6   -0.30    0.90
   6   1   6   -0.20    0.90
   6   1   6   -0.40    0.80
  -6   1  -6   -0.50    0.80
  -6   1  -6    0.80    0.90
   6  -2  -6   31.30    2.40
  -6  -2   6   32.30    3.40
  -6  -2   6   34.00    3.00
  -6   2   6   30.70    2.80
  -6   2   6   34.60    3.10
   6   2  -6   33.40    2.30
   6   2  -6   31.50    3.30
  -5  -2   6   67.19    4.90
   5  -2  -6   62.89    3.80
  -5  -2   6   65.89    4.40
   5   2  -6   70.89    4.90
  -5   2   6   64.69    4.30
  -5   2   6   68.29    4.60
   5   2  -6   70.49    4.40
  -4  -2   6  184.88    9.50
   4  -2  -6  178.48    9.00
   4  -2  -6  181.38    9.50
  -4  -2   6  182.58    9.90
   4   2  -6  150.28    9.70
   4   2  -6  172.78    9.50
   4   2  -6  160.88    9.80
  -4   2   6  182.88    9.40
  -4   2   6  195.88    9.80
  -3  -2   6    0.30    0.50
   3  -2  -6   -0.10    0.50
  -3  -2   6    0.90    0.60
   3  -2  -6    0.10    0.60
   3  -2  -6   -0.10    0.40
   3  -2  -6    0.20    0.50
   3   2  -6   -0.10    0.50
   3   2  -6    0.80    0.80
  -3   2   6    0.00    0.50
   3   2  -6   -0.10    0.60
   2  -2  -6   64.79    3.70
   2  -2  -6   60.79    3.40
  -2  -2   6   64.39    3.70
  -2  -2   6   57.39    3.50
   2  -2  -6   61.99    3.60
   2  -2  -6   50.49    3.40
  -2  -2   6   57.59    3.40
  -2  -2   6   67.09    3.60
  -2   2   6   53.89    3.40
   2   2  -6   52.69    3.40
   2   2  -6   53.99    3.60
   2   2  -6   62.49    3.70
  -1  -2   6  110.69    5.20
   1  -2  -6   86.39    5.00
  -1  -2   6   93.09    4.90
   1  -2  -6   98.99    5.20
   1  -2  -6   97.49    5.50
  -1  -2   6   81.09    5.10
   1  -2  -6   91.39    5.20
   1  -2  -6   96.49    5.30
  -1  -2   6   98.09    5.10
  -1   2   6   97.29    4.90
   1   2  -6   86.59    5.10
   1   2  -6   91.19    5.10
  -1   2   6   89.69    5.10
   1   2  -6   99.09    5.00
   0  -2  -6  619.84   28.80
   0  -2  -6  547.35   29.00
   0  -2   6  598.44   28.60
   0  -2   6  587.14   28.50
   0  -2   6  592.54   28.70
   0  -2  -6  635.44   28.90
   0  -2   6  593.44   28.80
   0  -2   6  609.04   28.50
   0  -2   6  622.94   28.50
   0  -2   6  590.94   28.70
   0   2  -6  540.85   28.70
   0   2   6  597.94   28.70
   0   2  -6  564.14   28.70
   0   2   6  545.85   28.90
   0   2   6  614.14   28.90
   0   2  -6  564.54   28.60
   0   2  -6  595.14   28.70
   0   2   6  547.15   28.80
   1  -2   6   69.69    3.40
  -1  -2  -6   63.29    3.90
   1  -2   6   59.79    3.40
   1  -2   6   65.99    3.50
   1  -2   6   62.49    3.40
  -1  -2  -6   68.29    3.70
  -1   2  -6   64.59    3.40
   1   2   6   61.29    3.50
   1   2   6   62.19    3.50
   1   2   6   66.49    3.80
  -1   2  -6   64.19    3.40
   1   2   6   57.39    3.60
   1   2   6   68.29    3.80
   1   2   6   66.69    3.80
  -1   2  -6   63.29    3.30
   2  -2   6   87.59    4.50
   2  -2   6   87.79    4.70
   2  -2   6   90.79    4.70
   2  -2   6   88.79    4.50
  -2  -2  -6   77.59    4.80
  -2  -2  -6   80.89    5.10
  -2   2  -6   90.89    4.40
   2   2   6   94.59    5.10
   2   2   6   83.89    5.00
   2   2   6   86.39    4.80
   2   2   6   85.99    5.00
  -2   2  -6   87.99    4.40
   2   2   6   86.29    5.10
   2   2   6   89.59    4.80
  -2   2  -6   89.39    4.50
   2   2   6   89.39    4.70
   3  -2   6  119.19    5.90
   3  -2   6  114.39    6.20
  -3  -2  -6  117.59    6.70
   3  -2   6  116.29    5.90
   3  -2   6  117.29    6.10
  -3  -2  -6  115.09    6.40
   3   2   6  109.99    6.10
  -3   2  -6  117.49    5.90
   3   2   6  112.39    6.50
   3   2   6  116.89    6.20
   3   2   6  105.79    6.40
  -3   2  -6  112.99    6.00
   3   2   6  114.69    6.20
  -4  -2  -6    5.90    1.30
  -4  -2  -6    8.00    1.40
   4  -2   6    6.40    0.90
   4  -2   6    5.70    1.10
   4  -2   6    5.80    1.00
   4  -2   6    4.10    0.80
  -4   2  -6    6.30    0.90
  -4   2  -6    5.20    0.90
   4   2   6    7.30    1.20
   4   2   6    7.50    1.30
   4   2   6    5.90    1.00
  -5  -2  -6   31.10    3.00
   5  -2   6   28.60    2.40
  -5  -2  -6   29.00    2.60
   5  -2   6   29.50    2.40
   5  -2   6   30.30    2.20
   5  -2   6   26.40    2.10
  -5   2  -6   29.40    2.20
   5   2   6   30.70    2.60
   5   2   6   29.30    2.50
   5   2   6   33.60    2.50
  -6  -2  -6   -0.40    0.90
   6  -2   6   -0.30    0.50
   6  -2   6   -0.20    0.90
   6  -2   6    1.10    1.00
   6  -2   6   -0.30    0.50
  -6  -2  -6    0.20    1.00
   6   2   6   -0.60    0.90
  -6   2  -6    0.40    0.70
   6   2   6    0.60    1.00
   6  -3  -6   19.60    1.90
  -6  -3   6   28.40    3.00
  -6  -3   6   28.00    3.50
   6   3  -6   29.10    3.50
  -6   3   6   20.00    2.40
   5  -3  -6  168.28   10.90
  -5  -3   6  188.98   10.50
   5  -3  -6  191.98    9.90
  -5  -3   6  181.68   11.00
   5   3  -6  215.18   11.20
   5   3  -6  214.78   11.10
  -5   3   6  189.78   10.30
   5   3  -6  193.58   10.50
  -4  -3   6    5.00    1.30
   4  -3  -6    8.10    1.30
   4  -3  -6    5.60    0.90
  -4  -3   6    5.00    1.10
   4   3  -6    7.20    1.30
  -4   3   6    6.10    1.10
   4   3  -6    5.90    1.50
   4   3  -6    5.20    1.30
  -3  -3   6    3.70    1.00
   3  -3  -6    7.60    0.90
   3  -3  -6    6.90    1.20
   3  -3  -6    7.20    0.90
   3  -3  -6    5.60    1.00
  -3  -3   6    5.50    1.00
  -3   3   6    7.70    1.10
   3   3  -6    7.10    1.20
   3   3  -6    5.60    1.20
   3   3  -6    7.70    1.40
   2  -3  -6  179.38    9.10
  -2  -3   6  151.88    9.10
  -2  -3   6  174.08    8.90
   2  -3  -6  173.18    9.00
  -2  -3   6  178.78    9.10
   2  -3  -6  181.78    8.90
   2  -3  -6  178.68    9.20
   2  -3  -6  144.09    9.30
   2  -3  -6  176.38    8.60
  -2  -3   6  178.78    9.20
   2   3  -6  157.38    9.20
   2   3  -6  183.68    9.10
   2   3  -6  190.28    9.30
  -2   3   6  166.68    9.00
   1  -3  -6 1601.54   74.09
  -1  -3   6 1528.45   73.59
   1  -3  -6 1534.95   73.59
   1  -3  -6 1569.54   74.09
   1  -3  -6 1558.24   74.49
  -1  -3   6 1539.25   73.89
   1  -3  -6 1517.95   74.19
  -1  -3   6 1516.45   73.69
  -1  -3   6 1399.16   73.99
  -1  -3   6 1604.64   73.99
   1  -3  -6 1566.74   73.89
   1   3  -6 1448.56   73.89
   1   3  -6 1464.85   73.99
  -1   3   6 1517.25   73.79
   1   3  -6 1616.24   74.09
  -1   3   6 1394.06   73.89
   0  -3   6    0.20    0.20
   0  -3  -6    0.00    0.20
   0  -3  -6    0.30    0.40
   0  -3   6   -0.10    0.30
   0  -3   6   -0.10    0.20
   0  -3  -6    0.60    0.60
   0  -3   6   -0.10    0.30
   0  -3   6   -0.10    0.30
   0  -3   6   -0.20    0.30
   0  -3  -6    0.10    0.50
   0   3   6   -0.60    0.50
   0   3  -6   -0.20    0.30
   0   3  -6    2.10    0.50
   0   3  -6   -0.20    0.30
   0   3  -6   -0.20    0.30
   0   3   6    0.10    0.50
   0   3   6    0.00    0.30
   1  -3   6  417.76   19.70
  -1  -3  -6  398.36   20.40
  -1  -3  -6  369.76   20.10
   1  -3   6  408.16   19.70
   1  -3   6  396.56   19.70
   1  -3   6  414.16   19.80
  -1   3  -6  405.96   19.60
  -1   3  -6  421.56   19.70
  -1   3  -6  398.26   19.60
   1   3   6  413.06   19.80
   1   3   6  394.86   20.20
   1   3   6  431.76   20.20
   1   3   6  422.26   19.90
  -1   3  -6  409.56   19.70
   1   3   6  346.37   20.20
   2  -3   6  139.29    7.20
  -2  -3  -6  133.39    7.50
   2  -3   6  142.69    6.90
  -2  -3  -6  132.99    7.80
   2  -3   6  137.49    7.10
   2   3   6  133.89    7.20
   2   3   6  144.89    7.70
   2   3   6  152.08    7.90
   2   3   6  142.69    7.30
   2   3   6  131.49    7.40
   3  -3   6   83.99    4.60
   3  -3   6   81.39    4.10
   3  -3   6   79.59    4.40
  -3  -3  -6   72.59    4.80
  -3  -3  -6   86.39    5.20
   3  -3   6   85.09    4.10
   3   3   6   82.29    5.10
   3   3   6   74.19    4.70
   3   3   6   80.09    5.10
   3   3   6   78.59    4.50
   3   3   6   80.59    4.70
  -4  -3  -6   -0.10    0.70
  -4  -3  -6    0.10    0.90
   4  -3   6    1.20    0.70
   4  -3   6    0.40    0.70
   4  -3   6   -0.10    0.30
   4  -3   6    0.20    0.30
   4   3   6   -0.10    0.70
  -4   3  -6    0.10    0.30
   4   3   6    0.10    0.90
   4   3   6   -0.10    0.70
   5  -3   6   15.30    1.80
   5  -3   6   16.80    1.40
  -5  -3  -6   15.00    2.10
   5  -3   6   17.30    1.40
   5  -3   6   15.20    1.80
  -5  -3  -6   14.80    2.30
   5   3   6   18.60    2.30
  -5   3  -6   17.20    1.30
   5   3   6   17.80    2.10
   5   3   6   15.40    1.80
   6  -3   6   26.30    2.60
   6  -3   6   26.60    2.00
   6  -3   6   28.20    2.10
   6  -3   6   29.00    2.70
  -6  -3  -6   22.90    2.80
  -6  -3  -6   27.70    3.40
   6   3   6   30.40    2.80
   6   3   6   24.50    2.70
   6   3   6   24.60    2.60
   6  -4  -6    1.00    0.80
  -6  -4   6    1.00    1.00
  -6  -4   6    0.70    1.30
   6   4  -6    0.60    1.50
  -6   4   6   -0.80    0.80
   6   4  -6    0.30    1.10
  -5  -4   6   15.20    2.40
   5  -4  -6   15.20    1.60
   5  -4  -6   13.20    1.80
  -5  -4   6   17.60    2.20
   5   4  -6   19.80    2.70
   5   4  -6   14.10    2.40
  -5   4   6   14.90    1.90
   5   4  -6   15.10    2.10
  -4  -4   6   52.39    3.80
  -4  -4   6   45.80    3.20
   4  -4  -6   42.40    3.10
   4  -4  -6   38.70    2.70
   4   4  -6   40.10    3.50
   4   4  -6   43.30    3.60
   4   4  -6   38.80    3.20
  -4   4   6   46.50    3.10
  -3  -4   6   16.40    1.60
  -3  -4   6   16.50    2.10
   3  -4  -6   12.00    1.90
   3  -4  -6   17.70    1.70
   3  -4  -6   19.00    1.50
   3   4  -6   16.40    2.10
   3   4  -6   17.00    2.10
   3   4  -6   20.30    2.10
  -3   4   6   19.00    1.70
  -2  -4   6   16.90    1.50
   2  -4  -6   17.50    1.60
  -2  -4   6   17.90    1.80
   2  -4  -6   14.50    1.70
   2  -4  -6   20.50    1.30
  -2  -4   6   16.60    1.80
  -2  -4   6   19.50    1.70
   2  -4  -6   18.30    1.40
   2   4  -6   17.00    1.80
   2   4  -6   12.60    1.70
  -2   4   6   19.00    1.40
   2   4  -6   20.30    1.90
  -2   4   6   11.80    1.50
   1  -4  -6  790.42   39.10
  -1  -4   6  837.12   39.20
  -1  -4   6  758.92   38.80
   1  -4  -6  780.12   38.80
   1  -4  -6  859.61   39.40
  -1  -4   6  752.62   39.20
   1  -4  -6  813.72   39.50
   1  -4  -6  872.91   39.90
  -1  -4   6  775.82   38.70
   1  -4  -6  813.92   39.40
   1   4  -6  741.43   39.30
  -1   4   6  752.22   39.50
   1   4  -6  891.41   39.20
   1   4  -6  841.92   39.20
   1   4  -6  825.62   39.40
  -1   4   6  787.42   39.00
  -1   4   6  718.63   39.20
   0  -4   6    9.20    0.90
   0  -4   6   10.70    1.00
   0  -4  -6    9.10    1.20
   0  -4  -6   11.50    1.60
   0  -4   6    9.80    0.80
   0  -4  -6    9.50    0.60
   0  -4   6    8.20    0.70
   0   4  -6    8.80    1.10
   0   4  -6    8.80    0.90
   0   4   6   11.40    1.50
   0   4   6    8.20    0.90
   0   4   6    8.50    1.20
   0   4   6   10.00    0.90
   1  -4   6   65.79    3.30
  -1  -4  -6   62.49    4.20
  -1  -4  -6   67.09    3.90
   1  -4   6   65.89    3.50
   1  -4   6   64.99    3.40
   1  -4   6   67.59    3.40
   1   4   6   64.09    3.50
  -1   4  -6   61.79    3.40
   1   4   6   58.49    3.90
   1   4   6   56.69    4.10
   1   4   6   63.39    3.60
  -1   4  -6   62.39    3.30
   1   4   6   64.69    4.10
  -1   4  -6   62.19    3.40
  -2  -4  -6    8.20    1.30
   2  -4   6    6.40    0.80
   2  -4   6    7.00    0.90
  -2  -4  -6    6.20    1.30
   2   4   6    7.60    1.40
   2   4   6    4.70    0.80
   2   4   6    7.20    1.00
   2   4   6    7.80    1.50
   2   4   6    7.20    1.20
  -3  -4  -6  351.86   18.70
   3  -4   6  368.26   18.20
  -3  -4  -6  360.46   19.10
   3  -4   6  366.86   18.10
   3   4   6  368.76   19.10
   3   4   6  347.67   18.90
   3   4   6  375.36   18.20
   3   4   6  365.46   18.40
   3   4   6  378.36   18.60
   4  -4   6  224.48   11.60
  -4  -4  -6  242.28   12.20
  -4  -4  -6  234.38   12.60
   4   4   6  214.08   11.70
   4   4   6  214.68   11.50
   4   4   6  222.28   12.30
   4   4   6  216.38   12.10
  -5  -4  -6   17.20    2.70
  -5  -4  -6   14.80    2.20
   5  -4   6   15.20    1.80
   5   4   6   17.20    2.10
   5   4   6   12.90    2.10
   5   4   6   13.20    1.70
  -5  -5   6    0.60    0.90
   5  -5  -6   -0.50    0.60
   5  -5  -6   -0.10    0.70
   5   5  -6    0.00    1.30
   5   5  -6   -0.40    1.00
  -5   5   6   -0.30    0.70
   5   5  -6    0.40    1.20
   4  -5  -6  215.08   11.00
   4  -5  -6  216.08   11.50
  -4  -5   6  221.68   11.50
   4   5  -6  225.98   12.20
   4   5  -6  218.78   11.80
  -4   5   6  217.88   11.40
   4   5  -6  191.28   12.00
  -3  -5   6   54.99    3.60
   3  -5  -6   50.29    3.60
   3  -5  -6   53.59    3.20
  -3   5   6   58.59    3.70
   3   5  -6   56.29    4.10
   3   5  -6   58.39    4.20
   3   5  -6   67.69    4.10
   2  -5  -6   21.40    1.60
   2  -5  -6   26.70    2.50
   2  -5  -6   25.60    2.10
  -2  -5   6   25.80    2.20
  -2   5   6   18.70    1.90
   2   5  -6   18.90    2.30
   2   5  -6   28.60    2.10
  -2   5   6   25.80    1.70
   2   5  -6   24.70    2.10
   2   5  -6   21.60    2.20
   1  -5  -6  131.29    7.50
   1  -5  -6  138.89    8.10
   1  -5  -6  135.09    7.30
  -1  -5   6  137.89    7.40
  -1  -5   6  139.79    7.50
   1   5  -6  134.69    7.50
   1   5  -6  133.09    7.30
  -1   5   6  149.49    7.60
  -1   5   6  142.69    7.10
  -1   5   6  135.69    7.70
   0  -5   6  114.49    6.00
   0  -5   6  111.69    6.00
   0  -5  -6  112.99    6.20
   0  -5  -6  118.59    6.70
   0   5   6  107.99    6.60
   0   5   6  109.39    6.40
   0   5  -6  113.59    6.00
   0   5   6  114.89    5.90
   0   5  -6  110.59    6.10
   0   5   6  110.09    5.70
  -1  -5  -6   57.19    4.20
   1  -5   6   65.39    3.40
   1  -5   6   61.39    3.40
  -1  -5  -6   66.59    3.90
   1  -5   6   61.99    3.30
  -1   5  -6   60.69    3.30
   1   5   6   63.49    3.40
  -1   5  -6   60.29    3.30
   1   5   6   60.89    4.30
   1   5   6   59.59    3.50
   1   5   6   61.69    4.20
   1   5   6   58.49    3.90
  -2  -5  -6    5.40    1.40
  -2  -5  -6    5.70    1.20
   2  -5   6    4.40    0.80
   2   5   6    7.70    1.10
   2   5   6    5.10    1.30
   2   5   6    3.80    1.00
   2   5   6    6.60    0.80
   2   5   6    4.50    1.30
   3  -5   6    7.80    1.10
  -3  -5  -6    8.10    1.80
  -3  -5  -6    6.90    1.40
   3   5   6    6.70    1.40
   3   5   6    7.20    1.20
   3   5   6    5.10    1.40
   3   5   6   12.10    2.00
   3   5   6    7.70    1.10
  -4  -5  -6   20.20    2.80
   4  -5   6   23.70    2.10
  -4  -5  -6   19.40    2.40
   4   5   6   17.50    2.00
   4   5   6   23.80    2.90
   4   5   6   19.60    2.30
   5  -5   6   66.19    4.10
  -5  -5  -6   59.19    5.00
  -5  -5  -6   58.29    4.60
   5   5   6   59.29    4.20
   5   5   6   63.09    4.80
   5  -6  -6    3.20    1.10
  -5   6   6    3.60    1.10
   5   6  -6    2.70    1.50
   5   6  -6    3.10    1.40
   5   6  -6    2.50    1.60
   4  -6  -6   15.30    1.90
   4   6  -6    9.60    1.80
   4   6  -6   10.30    2.00
   4   6  -6   13.30    2.30
  -4   6   6   12.10    1.70
   3  -6  -6    7.50    1.30
  -3   6   6   11.80    1.60
   3   6  -6    7.60    1.70
   3   6  -6   10.80    1.70
   3   6  -6   10.10    1.80
   2  -6  -6  149.88    8.90
  -2  -6   6  161.88    9.50
   2  -6  -6  159.98    9.30
   2   6  -6  173.98    9.00
   2   6  -6  182.18    9.30
  -2   6   6  158.18    8.90
   2   6  -6  158.08    8.90
   1  -6  -6   26.70    2.90
  -1  -6   6   23.50    2.10
  -1  -6   6   29.00    2.20
  -1   6   6   26.40    2.30
   1   6  -6   23.70    2.30
  -1   6   6   30.60    2.70
   1   6  -6   25.50    2.10
  -1   6   6   24.40    1.80
   0  -6   6  107.59    6.40
   0  -6  -6  117.39    6.60
   0  -6   6  125.19    6.50
   0   6   6  122.69    6.30
   0   6  -6  119.89    6.50
   0   6  -6  121.69    6.60
   0   6   6  123.29    7.20
   0   6   6  107.99    6.80
   0   6   6  140.49    7.40
   1  -6   6   80.89    4.60
   1  -6   6   85.59    4.60
  -1  -6  -6   89.49    5.10
   1   6   6   92.29    5.40
  -1   6  -6   85.49    4.60
   1   6   6   89.49    4.80
   1   6   6   74.19    5.50
   1   6   6   93.49    5.70
  -2  -6  -6   79.69    5.00
  -2  -6  -6   81.09    5.50
   2   6   6   69.99    5.30
   2   6   6   85.79    5.70
   2   6   6   84.59    4.70
   2   6   6   85.19    5.20
  -3  -6  -6   10.80    2.10
  -3  -6  -6    9.90    1.70
   3   6   6   11.50    1.90
   3   6   6   13.80    2.30
   3   6   6   12.20    1.50
   3   6   6    9.40    2.00
  -4  -6  -6  294.07   14.80
  -4  -6  -6  264.87   15.30
   4   6   6  261.17   15.10
   4   6   6  276.27   14.20
   4   6   6  270.47   14.70
   4  -7  -6    2.50    0.90
   4   7  -6    3.30    1.60
   4   7  -6    2.50    1.40
   4   7  -6    1.10    1.20
  -4   7   6    3.90    1.20
   3  -7  -6   57.89    4.00
   3   7  -6   54.59    4.50
   3   7  -6   62.49    4.40
  -3   7   6   68.39    4.20
   2  -7  -6   25.50    2.80
   2   7  -6   28.90    2.70
   2   7  -6   33.50    2.90
  -2   7   6   27.50    2.50
   2   7  -6   32.80    2.80
  -1  -7   6    6.30    1.20
  -1   7   6    4.60    1.30
   1   7  -6    4.90    1.10
  -1   7   6    6.40    1.30
   1   7  -6    5.10    1.20
   0  -7   6    0.60    0.60
   0  -7   6    0.20    0.50
   0   7  -6    0.70    0.60
   0   7   6   -0.60    0.80
   0   7  -6    0.40    0.60
   0   7   6   -0.10    0.90
   0   7   6   -0.70    0.70
   1  -7   6    0.40    0.50
   1  -7   6    1.00    0.50
   1   7   6    0.40    0.90
   1   7   6    1.30    1.10
   1   7   6   -0.30    1.00
  -1   7  -6    1.10    0.50
  -2  -7  -6    1.60    1.00
   2   7   6    0.70    1.20
   2   7   6    0.10    0.90
   2   7   6    2.80    1.50
  -3  -7  -6   14.30    2.10
   3   7   6   15.30    2.70
   3   7   6   20.70    2.60
   3   7   6   20.30    3.00
  -4  -7  -6   65.89    4.80
   4   7   6   63.49    5.30
   4   7   6   61.49    4.70
   3   8  -6   42.30    3.70
  -3   8   6   48.10    3.60
   3   8  -6   43.20    4.00
  -2   8   6    9.20    1.80
  -2   8   6    6.40    1.40
   2   8  -6    4.30    1.40
   2   8  -6    6.70    1.60
   2   8  -6   10.70    1.90
  -1  -8   6    8.50    1.50
   1   8  -6    6.10    1.40
  -1   8   6    7.10    1.60
   1   8  -6    6.80    1.40
  -1   8   6    7.00    1.60
   0  -8   6    5.90    1.10
   0  -8   6    5.50    1.10
   0   8   6    7.30    1.80
   0   8   6    8.40    1.70
   0   8  -6    6.70    1.30
   0   8  -6    4.30    1.10
   1  -8   6   83.29    4.70
   1  -8   6   78.69    4.70
  -1   8  -6   86.59    4.80
   1   8   6   84.39    5.50
   1   8   6   84.29    6.00
   1   8   6   86.69    6.10
   2   8   6    4.60    1.40
   2   8   6    3.10    1.70
   2   8   6    6.40    1.90
  -1   9   6   18.90    2.60
   1   9  -6   24.20    2.70
  -1   9   6   29.70    3.30
   1   9  -6   23.90    2.60
   0  -9   6   34.10    2.80
   0   9  -6   33.70    2.90
   0   9   6   37.60    3.70
   0   9   6   39.30    3.40
  -7   0   7   40.40    3.60
   7   0  -7   36.90    2.80
   7   0  -7   41.00    3.50
  -6   0   7    1.20    1.00
   6   0  -7   -0.10    0.70
  -6   0   7    0.60    1.00
   6   0  -7   -1.50    0.80
  -5   0   7    0.90    0.80
   5   0  -7    1.60    1.10
   5   0  -7    1.20    0.70
  -5   0   7    0.50    0.90
   4   0  -7    0.30    0.60
   4   0  -7   -0.50    0.70
  -4   0   7    0.70    0.70
  -4   0   7    0.50    0.60
   4   0  -7   -0.90    0.60
   3   0  -7   69.79    4.10
   3   0  -7   62.79    3.70
   3   0  -7   59.69    3.80
  -3   0   7   61.89    4.00
  -3   0   7   56.29    3.60
   3   0  -7   55.79    3.90
   2   0  -7    0.00    0.40
   2   0  -7    0.20    0.50
  -2   0   7   -0.10    0.50
   2   0  -7   -0.30    0.50
  -2   0   7   -0.10    0.40
  -2   0   7    0.20    0.50
   2   0  -7   -0.50    0.60
  -2   0   7   -0.40    0.40
  -1   0   7  354.06   17.80
  -1   0   7  344.67   17.90
   1   0  -7  398.66   18.20
   1   0  -7  325.37   18.00
  -1   0   7  379.76   18.00
   1   0  -7  373.36   17.90
  -1   0   7  352.76   18.30
   0   0   7   -0.20    0.30
   0   0   7   -0.20    0.40
   0   0  -7    0.30    0.40
   0   0  -7   -0.10    0.40
   0   0  -7    0.00    0.40
   0   0   7    0.20    0.30
   0   0   7    0.20    0.40
   0   0   7   -0.10    0.40
  -1   0  -7   21.00    1.50
   1   0   7   22.60    1.40
   1   0   7   23.80    1.60
   1   0   7   20.30    1.60
   1   0   7   20.90    1.50
   1   0   7   21.30    1.60
   1   0   7   20.80    1.50
  -1   0  -7   22.20    1.70
   2   0   7    0.20    0.50
   2   0   7    0.00    0.40
   2   0   7   -0.50    0.40
   2   0   7   -0.60    0.40
   2   0   7   -0.30    0.20
  -2   0  -7   -0.30    0.40
   2   0   7   -0.60    0.20
  -2   0  -7   -0.70    0.40
   2   0   7    0.00    0.50
   2   0   7   -0.50    0.40
   3   0   7  194.08   10.50
   3   0   7  213.48   10.60
   3   0   7  199.58   10.50
   3   0   7  205.08   10.50
  -3   0  -7  202.88   10.70
   3   0   7  210.58   10.20
  -3   0  -7  203.38   10.50
   4   0   7   -0.20    0.50
   4   0   7    0.90    0.70
  -4   0  -7    0.30    0.70
  -4   0  -7   -0.90    0.50
   4   0   7   -0.60    0.70
   4   0   7   -0.30    0.50
  -5   0  -7  312.97   15.80
   5   0   7  301.77   15.60
   5   0   7  297.77   15.60
   5   0   7  296.57   15.60
  -5   0  -7  299.97   15.60
   6   0   7   -1.90    0.90
  -6   0  -7    1.30    1.00
  -6   0  -7   -0.10    0.90
   6   0   7    0.00    1.00
   6   0   7   -0.10    0.70
   6  -1  -7  220.48   11.40
  -6  -1   7  234.08   12.70
  -6  -1   7  227.68   12.10
   6  -1  -7  210.58   12.00
   6   1  -7  214.58   11.40
  -6   1   7  217.68   12.50
   6   1  -7  230.88   12.50
  -6   1   7  225.08   12.10
   5  -1  -7   18.80    1.70
  -5  -1   7   18.40    2.40
   5  -1  -7   20.70    2.30
  -5  -1   7   22.30    2.40
   5   1  -7   23.40    2.70
  -5   1   7   21.20    2.60
   5   1  -7   20.20    2.00
  -5   1   7   19.90    2.20
   4  -1  -7    0.00    1.00
   4  -1  -7    0.00    0.60
  -4  -1   7   -0.10    0.60
  -4  -1   7   -0.40    0.70
   4  -1  -7    0.00    0.70
  -4   1   7    0.00    0.60
  -4   1   7   -0.50    0.60
   4   1  -7    0.10    0.60
   4   1  -7   -0.10    0.70
   4   1  -7    0.40    0.90
   3  -1  -7   80.59    4.70
  -3  -1   7   93.39    5.20
   3  -1  -7   78.49    4.90
  -3  -1   7   81.49    4.70
   3  -1  -7   81.79    4.80
   3  -1  -7   91.09    5.10
   3   1  -7   94.79    5.20
   3   1  -7   73.09    5.00
  -3   1   7   85.69    5.00
   3   1  -7   83.39    4.80
  -3   1   7   72.89    4.70
   2  -1  -7  195.68    9.00
   2  -1  -7  153.08    9.20
  -2  -1   7  166.08    8.90
   2  -1  -7  165.68    9.00
   2  -1  -7  188.98    9.20
  -2  -1   7  160.78    9.10
   2  -1  -7  141.99    9.00
   2   1  -7  194.98    9.00
  -2   1   7  171.28    8.90
   2   1  -7  178.68    9.20
   2   1  -7  174.68    9.10
   1  -1  -7  290.97   14.50
  -1  -1   7  304.47   14.10
   1  -1  -7  274.37   14.20
  -1  -1   7  267.97   14.10
  -1  -1   7  288.17   13.90
  -1  -1   7  270.57   13.80
   1  -1  -7  280.97   14.00
   1  -1  -7  288.27   14.20
   1  -1  -7  297.47   14.10
  -1  -1   7  255.97   14.00
  -1  -1   7  285.47   14.40
   1   1  -7  285.57   14.00
   1   1  -7  290.47   14.20
  -1   1   7  275.47   13.90
  -1   1   7  271.07   14.10
   1   1  -7  255.17   14.10
  -1   1   7  268.97   14.00
   0  -1   7  805.72   38.00
   0  -1  -7  690.03   38.10
   0  -1   7  793.02   38.20
   0  -1   7  821.72   38.10
   0  -1  -7  743.03   38.40
   0  -1   7  787.12   38.00
   0  -1   7  730.93   38.10
   0  -1   7  819.72   38.40
   0   1   7  736.23   38.20
   0   1   7  817.52   38.30
   0   1  -7  744.23   38.20
   0   1  -7  837.42   38.30
   0   1   7  811.22   38.10
   0   1   7  832.62   38.20
   0   1   7  738.93   38.30
   0   1  -7  810.22   38.10
   1  -1   7    0.40    0.40
   1  -1   7    0.90    0.30
  -1  -1  -7    0.20    0.50
   1  -1   7    0.90    0.40
   1  -1   7    1.30    0.50
   1  -1   7    0.80    0.40
   1  -1   7    0.80    0.30
  -1  -1  -7    0.50    0.50
  -1   1  -7    0.90    0.40
  -1   1  -7    0.40    0.40
   1   1   7    0.50    0.50
   1   1   7    0.90    0.50
   1   1   7    0.60    0.60
   1   1   7    0.20    0.50
  -1   1  -7    0.60    0.40
   1   1   7    0.20    0.40
   1   1   7    0.60    0.50
  -2  -1  -7   16.20    1.60
   2  -1   7   14.60    1.30
   2  -1   7   15.70    1.30
   2  -1   7   16.30    1.40
   2  -1   7   17.20    1.30
  -2  -1  -7   15.20    1.40
   2   1   7   16.90    1.50
   2   1   7   14.90    1.50
  -2   1  -7   15.70    1.30
   2   1   7   15.90    1.30
   2   1   7   16.80    1.50
   2   1   7   13.30    1.40
  -2   1  -7   15.50    1.20
   2   1   7   15.40    1.50
   2   1   7   14.60    1.20
   3  -1   7  341.17   17.00
  -3  -1  -7  331.77   17.00
   3  -1   7  341.97   16.90
  -3  -1  -7  335.97   17.30
   3  -1   7  335.27   16.90
   3  -1   7  339.27   16.90
   3   1   7  333.77   17.00
   3   1   7  342.17   17.20
   3   1   7  347.87   17.20
   3   1   7  326.37   17.00
  -3   1  -7  337.77   16.90
   3   1   7  344.77   17.00
  -3   1  -7  336.87   16.80
   4  -1   7  372.06   18.80
   4  -1   7  367.66   18.70
  -4  -1  -7  368.26   19.10
  -4  -1  -7  378.76   18.90
   4  -1   7  364.66   18.70
   4  -1   7  377.96   18.80
   4   1   7  365.06   19.00
   4   1   7  382.26   18.90
   4   1   7  373.36   18.60
  -4   1  -7  384.46   18.80
   4   1   7  368.66   18.80
  -4   1  -7  366.86   18.60
   5  -1   7   39.10    3.00
   5  -1   7   40.00    2.90
  -5  -1  -7   40.40    3.10
   5  -1   7   39.10    2.90
   5  -1   7   40.20    3.00
  -5  -1  -7   43.80    3.40
   5   1   7   38.30    3.00
  -5   1  -7   38.90    2.90
   5   1   7   42.50    3.00
  -5   1  -7   40.70    2.90
   6  -1   7   21.30    2.30
   6  -1   7   20.80    2.30
  -6  -1  -7   20.30    2.60
   6  -1   7   24.70    2.20
  -6  -1  -7   22.20    2.50
  -6   1  -7   23.70    2.40
   6   1   7   21.60    2.50
  -6   1  -7   21.60    2.30
   6   1   7   17.80    2.30
   6  -2  -7  196.08    9.90
  -6  -2   7  195.48   10.70
  -6  -2   7  208.68   11.30
  -6   2   7  173.08   10.70
  -6   2   7  190.18   10.50
   6   2  -7  179.68   10.90
  -5  -2   7   22.70    2.40
   5  -2  -7   21.40    1.80
  -5  -2   7   14.90    2.30
   5   2  -7   20.20    3.10
   5   2  -7   23.00    2.80
  -5   2   7   24.10    2.40
  -5   2   7   19.70    2.20
   5   2  -7   20.20    2.30
  -4  -2   7   48.60    3.20
   4  -2  -7   39.90    3.60
  -4  -2   7   49.20    3.60
   4  -2  -7   46.90    2.80
   4   2  -7   44.00    3.20
   4   2  -7   41.20    3.40
  -4   2   7   50.59    3.20
   4   2  -7   42.00    3.50
  -3  -2   7  124.09    6.70
  -3  -2   7  101.39    6.20
   3  -2  -7  121.69    6.50
   3  -2  -7  115.59    6.10
   3  -2  -7  105.69    6.30
   3   2  -7   94.39    6.40
   3   2  -7  124.89    6.40
   3   2  -7  120.19    6.70
  -3   2   7  115.89    6.30
  -2  -2   7  278.17   13.90
   2  -2  -7  295.27   14.00
   2  -2  -7  262.77   13.70
  -2  -2   7  310.67   14.00
   2  -2  -7  254.27   13.90
   2  -2  -7  290.97   14.10
  -2  -2   7  292.67   13.80
  -2  -2   7  271.67   14.00
  -2   2   7  279.57   13.80
   2   2  -7  229.48   13.90
   2   2  -7  244.58   13.90
   2   2  -7  263.47   13.80
   1  -2  -7   28.50    2.00
   1  -2  -7   23.00    2.00
   1  -2  -7   19.10    2.00
   1  -2  -7   26.20    1.90
  -1  -2   7   25.10    1.60
  -1  -2   7   23.00    1.90
  -1  -2   7   26.10    1.90
  -1  -2   7   22.60    1.50
  -1  -2   7   24.50    1.80
   1   2  -7   27.20    1.90
   1   2  -7   25.30    1.80
   1   2  -7   27.20    2.00
  -1   2   7   28.90    1.90
  -1   2   7   22.30    1.60
   0  -2   7  953.70   45.50
   0  -2  -7  983.10   46.40
   0  -2   7  936.61   45.60
   0  -2  -7 1018.00   45.90
   0  -2  -7  881.11   46.00
   0  -2   7  951.20   45.70
   0  -2   7  947.81   45.30
   0  -2   7  803.12   45.80
   0  -2   7  945.71   45.50
   0  -2   7  898.81   45.50
   0  -2   7  934.81   45.70
   0   2  -7  931.71   45.80
   0   2   7  998.10   46.10
   0   2   7 1013.60   45.90
   0   2   7  929.51   45.70
   0   2  -7  966.30   45.80
   0   2  -7  985.70   45.80
   0   2  -7  861.61   45.60
   0   2   7  917.21   45.90
   1  -2   7  743.83   37.60
  -1  -2  -7  776.62   37.90
   1  -2   7  777.72   37.60
   1  -2   7  798.52   37.70
   1  -2   7  752.12   37.60
  -1  -2  -7  773.42   38.10
  -1   2  -7  776.32   37.60
  -1   2  -7  748.33   37.60
   1   2   7  788.52   37.90
   1   2   7  737.53   37.90
  -1   2  -7  758.32   37.50
   1   2   7  794.82   37.70
  -1   2  -7  789.92   37.70
   1   2   7  780.52   38.00
   1   2   7  777.62   37.70
   1   2   7  800.52   38.00
  -2  -2  -7    2.40    0.80
   2  -2   7    4.00    0.60
   2  -2   7    2.90    0.50
   2  -2   7    1.80    0.50
  -2  -2  -7    2.90    0.90
   2  -2   7    2.80    0.60
  -2   2  -7    3.40    0.50
   2   2   7    2.80    0.60
   2   2   7    2.40    0.70
   2   2   7    3.20    0.80
   2   2   7    2.50    0.70
  -2   2  -7    3.40    0.60
   2   2   7    2.60    0.80
   2   2   7    3.50    0.90
   2   2   7    3.20    0.90
   3  -2   7  601.04   29.20
  -3  -2  -7  604.44   30.00
   3  -2   7  610.64   29.40
   3  -2   7  590.84   29.20
   3  -2   7  598.34   29.40
  -3  -2  -7  585.14   29.60
   3   2   7  610.04   29.70
   3   2   7  596.34   29.50
   3   2   7  598.74   29.70
   3   2   7  593.44   29.40
   3   2   7  584.74   29.40
  -3   2  -7  584.34   29.10
  -3   2  -7  600.94   29.20
   4  -2   7   91.79    4.90
  -4  -2  -7   90.39    5.40
   4  -2   7   83.49    4.90
   4  -2   7   83.99    5.10
  -4  -2  -7   97.29    5.70
   4  -2   7   87.19    5.10
  -4   2  -7   89.89    4.90
  -4   2  -7   91.19    4.90
   4   2   7   81.79    5.30
   4   2   7   89.29    5.10
   4   2   7   92.19    5.30
   5  -2   7   65.09    4.20
   5  -2   7   66.79    4.20
   5  -2   7   63.69    3.90
  -5  -2  -7   65.39    4.80
  -5  -2  -7   62.69    4.40
   5  -2   7   63.99    3.90
   5   2   7   64.79    4.20
   5   2   7   68.09    4.20
  -5   2  -7   69.49    4.00
   5   2   7   67.79    4.40
   6  -2   7   19.90    1.90
   6  -2   7   16.70    2.30
   6  -2   7   22.70    2.50
   6  -2   7   20.80    1.90
  -6  -2  -7   18.20    2.70
  -6  -2  -7   22.10    2.70
   6   2   7   22.90    2.60
   6   2   7   16.60    2.10
  -6   2  -7   22.50    2.00
  -6  -3   7   68.69    5.40
  -6  -3   7   71.39    4.90
   6  -3  -7   65.99    4.20
   6   3  -7   76.89    5.50
   6   3  -7   67.99    4.80
  -6   3   7   69.89    4.70
   5  -3  -7  267.47   13.20
  -5  -3   7  259.67   13.80
  -5  -3   7  266.77   14.40
  -5   3   7  244.58   13.60
   5   3  -7  262.27   13.80
   5   3  -7  245.58   14.30
   5   3  -7  274.97   14.40
   4  -3  -7    1.00    0.70
  -4  -3   7    0.40    0.90
   4  -3  -7    1.20    0.60
  -4  -3   7    0.70    0.70
  -4   3   7    0.80    0.70
   4   3  -7    0.50    0.90
   4   3  -7    1.20    0.90
   4   3  -7    0.60    0.80
  -3  -3   7    2.70    0.80
   3  -3  -7    3.20    0.70
  -3  -3   7    3.70    1.10
   3  -3  -7    3.40    0.90
   3  -3  -7    2.20    0.70
   3   3  -7    2.90    0.90
   3   3  -7    3.40    1.10
   3   3  -7    2.40    1.10
  -3   3   7    2.30    0.80
   2  -3  -7  153.98    7.80
   2  -3  -7  154.98    8.40
   2  -3  -7  162.58    8.80
  -2  -3   7  138.79    8.20
   2  -3  -7  172.88    8.50
  -2  -3   7  155.18    8.10
  -2  -3   7  153.88    8.30
  -2  -3   7  166.38    8.50
   2  -3  -7  161.98    8.10
   2  -3  -7  137.49    8.20
  -2   3   7  163.38    8.00
   2   3  -7  143.99    8.40
  -2   3   7  150.78    8.20
   2   3  -7  175.48    8.50
   2   3  -7  135.89    8.20
   1  -3  -7 1149.19   57.69
  -1  -3   7 1256.07   57.19
   1  -3  -7 1190.58   57.29
   1  -3  -7 1165.08   57.39
   1  -3  -7 1014.70   57.19
   1  -3  -7 1217.28   56.69
   1  -3  -7 1116.99   57.09
  -1  -3   7 1173.58   57.19
  -1  -3   7 1234.48   56.79
  -1  -3   7 1025.00   56.99
  -1  -3   7 1224.48   56.79
  -1   3   7 1256.67   57.19
   1   3  -7 1264.47   57.29
   1   3  -7 1112.29   57.19
   1   3  -7 1142.49   57.09
  -1   3   7 1228.98   56.99
   0  -3   7    9.00    0.90
   0  -3   7    9.70    0.90
   0  -3   7    8.30    0.90
   0  -3  -7    9.40    0.70
   0  -3  -7   12.10    1.60
   0  -3   7   10.30    1.00
   0  -3  -7   10.10    1.20
   0  -3   7   11.40    1.10
   0  -3   7    8.90    0.80
   0  -3  -7    9.00    1.20
   0   3   7    8.10    1.10
   0   3   7   11.50    1.40
   0   3  -7    9.50    1.10
   0   3  -7   10.60    1.00
   0   3  -7   10.90    1.10
   0   3   7   10.00    1.10
   0   3  -7    8.60    0.90
  -1  -3  -7   73.59    4.70
   1  -3   7   79.49    4.30
   1  -3   7   84.99    4.40
   1  -3   7   90.29    4.40
   1  -3   7   84.79    4.40
  -1  -3  -7   74.29    5.00
   1   3   7   87.19    5.00
   1   3   7   90.19    4.80
   1   3   7   87.29    5.10
  -1   3  -7   81.89    4.30
   1   3   7   83.39    4.60
   1   3   7   78.99    5.00
  -1   3  -7   83.49    4.40
   1   3   7   79.19    4.40
  -1   3  -7   84.89    4.40
  -2  -3  -7  236.08   12.90
  -2  -3  -7  246.58   12.60
   2  -3   7  231.68   12.20
   2  -3   7  241.88   11.90
   2  -3   7  250.87   11.90
   2  -3   7  254.07   12.20
   2   3   7  227.28   12.80
  -2   3  -7  242.58   11.90
   2   3   7  244.98   12.50
  -2   3  -7  246.08   11.90
   2   3   7  237.98   12.20
   2   3   7  235.88   12.70
  -2   3  -7  248.58   11.90
   2   3   7  249.38   12.40
   3  -3   7  315.57   15.60
  -3  -3  -7  333.87   16.50
   3  -3   7  339.57   15.70
  -3  -3  -7  321.77   16.80
   3  -3   7  326.37   16.10
   3  -3   7  308.47   16.00
   3   3   7  324.17   16.10
   3   3   7  317.07   16.20
   3   3   7  301.17   16.50
   3   3   7  304.77   16.20
   4  -3   7   40.00    2.30
   4  -3   7   35.80    2.60
   4  -3   7   39.10    2.80
  -4  -3  -7   36.00    3.00
   4  -3   7   41.50    2.30
  -4  -3  -7   43.30    3.50
   4   3   7   38.30    2.80
   4   3   7   36.30    2.90
   4   3   7   38.80    3.20
  -4   3  -7   40.10    2.20
  -5  -3  -7   20.20    2.80
  -5  -3  -7   20.00    2.40
   5  -3   7   18.10    1.50
   5  -3   7   17.70    2.00
   5  -3   7   20.30    2.10
   5  -3   7   20.10    1.50
   5   3   7   19.50    2.20
   5   3   7   17.70    2.00
   5   3   7   15.40    2.10
  -6  -4   7   92.99    6.10
   6  -4  -7   90.49    5.40
   6   4  -7   97.99    6.20
  -6   4   7   95.39    6.00
   6   4  -7   94.59    6.80
   5  -4  -7   35.30    2.40
  -5  -4   7   31.70    2.90
  -5   4   7   33.10    2.70
   5   4  -7   31.80    3.00
   5   4  -7   32.30    3.70
   5   4  -7   39.70    3.60
  -4  -4   7   47.30    4.80
  -4  -4   7   60.49    3.80
   4  -4  -7   55.89    3.80
   4  -4  -7   55.59    3.30
   4   4  -7   60.09    4.30
  -4   4   7   54.99    3.70
   4   4  -7   58.69    4.00
   4   4  -7   54.79    4.30
   3  -4  -7   10.10    1.50
   3  -4  -7   12.70    1.20
  -3  -4   7   12.10    1.50
  -3   4   7    9.80    1.50
   3   4  -7    9.00    1.60
   3   4  -7   11.60    1.80
   3   4  -7   10.10    1.50
   2  -4  -7  934.51   46.00
   2  -4  -7  918.31   45.40
  -2  -4   7  907.01   46.00
  -2  -4   7  907.81   45.60
   2  -4  -7  918.31   46.50
   2  -4  -7  939.51   45.70
  -2   4   7  979.00   46.00
  -2   4   7  948.21   45.60
   2   4  -7  901.11   46.10
   2   4  -7  997.90   46.30
   2   4  -7  945.91   45.90
  -1  -4   7   86.09    5.00
   1  -4  -7   99.29    5.80
  -1  -4   7   95.49    5.10
   1  -4  -7   77.09    5.10
   1  -4  -7   88.99    5.00
   1  -4  -7   87.99    4.60
   1  -4  -7   93.89    5.40
  -1  -4   7   88.99    4.60
  -1   4   7   98.19    5.40
  -1   4   7   76.39    5.00
   1   4  -7   95.59    5.20
  -1   4   7   89.19    4.80
   1   4  -7   91.49    5.00
   1   4  -7   85.29    5.20
   0  -4   7    0.20    0.40
   0  -4   7    0.70    0.40
   0  -4   7    0.90    0.40
   0  -4   7    0.60    0.30
   0  -4  -7    1.00    0.80
   0  -4  -7    0.80    0.20
   0  -4  -7    0.60    0.60
   0  -4   7    0.60    0.40
   0   4  -7    0.60    0.40
   0   4  -7    1.20    0.50
   0   4   7    0.60    0.40
   0   4   7    0.80    0.60
   0   4   7    0.80    0.70
   0   4   7    0.80    0.50
   0   4  -7    0.40    0.40
  -1  -4  -7  364.76   19.40
   1  -4   7  379.46   18.60
   1  -4   7  391.56   18.50
   1  -4   7  387.36   18.50
   1  -4   7  374.86   18.50
  -1  -4  -7  399.86   19.10
   1   4   7  379.56   18.70
   1   4   7  379.26   18.60
   1   4   7  405.56   19.50
   1   4   7  350.16   19.20
  -1   4  -7  372.86   18.40
  -1   4  -7  368.26   18.50
   1   4   7  344.57   19.00
  -2  -4  -7  678.83   33.00
   2  -4   7  647.34   32.40
  -2  -4  -7  625.24   32.60
   2  -4   7  674.23   32.20
   2   4   7  693.23   32.20
   2   4   7  581.34   32.50
   2   4   7  685.13   32.90
   2   4   7  664.13   33.00
   2   4   7  663.13   32.30
  -3  -4  -7   65.39    4.50
   3  -4   7   59.09    3.60
  -3  -4  -7   60.29    4.00
   3   4   7   61.09    3.80
   3   4   7   57.79    3.60
   3   4   7   64.19    4.40
   3   4   7   52.89    3.90
  -4  -4  -7   -0.10    0.90
  -4  -4  -7    0.30    0.80
   4  -4   7   -0.10    0.70
   4   4   7    0.50    0.80
   4   4   7    0.30    1.00
   4   4   7    0.70    0.70
  -5  -4  -7    0.30    1.10
   5  -4   7    1.80    0.90
  -5  -4  -7    0.70    1.00
   5   4   7   -0.60    1.00
   5   4   7   -0.30    0.70
   5   4   7    0.80    1.00
   5  -5  -7   35.80    2.40
  -5  -5   7   32.60    2.90
   5   5  -7   27.80    3.60
   5   5  -7   32.10    3.10
  -5   5   7   32.30    2.80
   5   5  -7   33.90    3.60
  -4  -5   7  135.19    7.70
   4  -5  -7  133.19    8.20
   4  -5  -7  131.79    7.10
   4   5  -7  141.49    8.30
   4   5  -7  139.49    8.00
  -4   5   7  135.49    7.70
   4   5  -7  133.09    8.20
   3  -5  -7   38.50    2.40
   3  -5  -7   35.70    2.90
  -3   5   7   40.50    2.60
  -3   5   7   36.40    2.90
   3   5  -7   38.40    3.10
   3   5  -7   44.60    3.40
   3   5  -7   43.90    3.50
   2  -5  -7  399.36   21.90
   2  -5  -7  412.76   20.80
   2  -5  -7  436.36   21.50
  -2  -5   7  432.86   21.50
   2   5  -7  394.46   21.60
  -2   5   7  449.26   21.40
   2   5  -7  445.26   21.70
  -2   5   7  426.46   21.00
   2   5  -7  419.06   21.40
   1  -5  -7  202.98   10.20
  -1  -5   7  205.48   10.70
  -1  -5   7  197.28   10.70
   1  -5  -7  207.58   10.60
   1   5  -7  205.08   10.70
  -1   5   7  208.18   10.40
   1   5  -7  196.28   10.80
   1   5  -7  199.38   10.60
  -1   5   7  211.38   10.90
  -1   5   7  220.28   11.20
   0  -5   7  102.79    5.40
   0  -5   7   95.89    5.40
   0  -5  -7   97.39    6.00
   0  -5  -7  104.99    5.70
   0   5  -7   99.69    5.50
   0   5   7   96.79    6.00
   0   5   7   95.09    5.70
   0   5  -7   98.79    5.30
   0   5   7   95.79    5.20
   0   5   7  102.39    5.40
   1  -5   7  314.37   15.40
   1  -5   7  308.97   15.40
  -1  -5  -7  326.47   16.50
  -1  -5  -7  306.87   16.00
   1  -5   7  315.97   15.40
   1   5   7  308.17   15.60
   1   5   7  293.07   16.00
   1   5   7  352.96   16.60
   1   5   7  309.77   16.40
  -1   5  -7  312.27   15.40
   1   5   7  298.07   15.40
  -1   5  -7  300.07   15.40
   2  -5   7   -0.40    0.50
  -2  -5  -7    0.20    0.90
  -2  -5  -7    0.00    0.70
   2   5   7    0.20    0.90
   2   5   7    0.60    0.80
   2   5   7    0.00    0.60
   2   5   7    0.30    0.50
   2   5   7   -0.10    0.90
   3  -5   7   30.20    2.20
  -3  -5  -7   29.40    2.70
  -3  -5  -7   27.90    3.00
   3   5   7   33.30    2.20
   3   5   7   25.20    2.30
   3   5   7   31.30    3.20
   3   5   7   29.50    3.00
   3   5   7   31.20    2.70
   4  -5   7   21.50    2.10
  -4  -5  -7   20.40    2.90
  -4  -5  -7   18.50    2.30
   4   5   7   20.60    2.20
   4   5   7   25.50    3.00
   5  -5   7  139.39    8.00
  -5  -5  -7  145.99    8.70
  -5  -5  -7  149.88    9.30
   5   5   7  143.39    8.20
   5   5   7  142.29    8.80
   5  -6  -7    8.70    1.30
   5   6  -7   15.30    2.70
   5   6  -7    9.00    2.20
   5   6  -7   15.70    2.40
  -5   6   7   12.50    1.90
   4  -6  -7   12.90    1.50
   4   6  -7   17.40    2.60
  -4   6   7   15.60    2.00
   4   6  -7   12.70    2.30
   4   6  -7   13.20    2.10
   3  -6  -7   25.10    1.90
   3   6  -7   23.50    2.70
  -3   6   7   23.60    2.40
   3   6  -7   16.20    2.30
   3   6  -7   22.80    2.80
  -2   6   7  127.99    7.00
   2   6  -7  114.79    6.80
   2   6  -7  119.99    7.20
  -2   6   7  118.79    6.40
  -1  -6   7  453.95   23.30
  -1  -6   7  459.85   23.20
   1   6  -7  457.45   23.40
   1   6  -7  491.85   23.30
  -1   6   7  429.16   23.70
  -1   6   7  485.25   23.50
  -1   6   7  463.75   22.90
   1   6  -7  467.65   23.20
   0  -6   7   63.59    3.70
   0  -6   7   63.89    3.70
   0  -6  -7   68.89    4.00
   0   6   7   63.89    4.40
   0   6   7   51.09    4.20
   0   6  -7   60.09    3.80
   0   6   7   56.29    4.10
   0   6  -7   63.89    3.70
   0   6   7   61.09    3.60
   1  -6   7    7.30    0.80
   1  -6   7    7.00    0.90
  -1  -6  -7    7.70    1.40
   1   6   7    5.50    1.60
  -1   6  -7    6.70    0.80
   1   6   7    5.70    1.30
   1   6   7    6.40    1.00
   1   6   7    7.00    1.60
  -2  -6  -7   27.10    2.50
  -2  -6  -7   24.50    3.00
   2   6   7   21.50    2.50
   2   6   7   25.40    3.00
   2   6   7   26.00    2.10
   2   6   7   24.40    3.00
  -3  -6  -7  135.69    7.60
  -3  -6  -7  136.49    8.20
   3   6   7  130.59    8.10
   3   6   7  135.79    7.60
   3   6   7  124.99    7.10
   3   6   7  101.89    7.80
  -4  -6  -7    5.30    1.80
  -4  -6  -7    7.00    1.70
   4   6   7    9.30    2.10
   4   6   7    5.80    1.50
   4   6   7    6.20    1.40
  -4   7   7    2.10    1.00
   4   7  -7    1.50    1.20
   4   7  -7    0.40    1.10
   4   7  -7    1.80    1.50
   3   7  -7   36.10    3.40
  -3   7   7   33.60    3.00
   3   7  -7   37.50    3.30
  -2   7   7   18.20    2.20
   2   7  -7   25.40    2.60
   2   7  -7   20.40    2.50
   2   7  -7   23.10    2.50
  -1  -7   7    0.50    0.70
   1   7  -7   -0.40    0.70
   1   7  -7    0.40    0.70
  -1   7   7    1.80    1.00
  -1   7   7    1.10    0.90
   1   7  -7    0.40    0.80
   0  -7   7    0.60    0.50
   0  -7   7    0.20    0.60
   0   7  -7    0.60    0.70
   0   7  -7    0.60    0.70
   0   7   7    0.60    0.90
   0   7   7    0.90    1.00
   0   7   7    0.20    0.90
   1  -7   7   45.40    2.70
   1  -7   7   45.70    2.70
   1   7   7   42.80    3.50
   1   7   7   42.40    3.80
   1   7   7   43.20    3.80
  -1   7  -7   43.10    2.70
  -2  -7  -7   63.59    4.10
   2   7   7   52.59    4.60
   2   7   7   48.30    4.10
   2   7   7   53.29    4.50
  -3  -7  -7   31.10    3.00
   3   7   7   30.80    3.80
   3   7   7   29.90    3.20
   3   7   7   30.50    3.70
   3   8  -7   11.10    2.10
   3   8  -7    8.80    2.00
  -3   8   7    9.20    1.80
   2   8  -7   17.80    2.50
  -2   8   7   16.80    2.30
   2   8  -7   17.50    2.30
   2   8  -7   20.50    2.50
  -2   8   7   15.60    2.40
  -1  -8   7   41.50    3.20
   1   8  -7   42.10    3.20
   1   8  -7   40.40    3.30
  -1   8   7   44.40    3.50
  -1   8   7   41.10    3.60
   1   8  -7   41.90    3.20
   0  -8   7   38.30    2.80
   0  -8   7   34.50    2.70
   0   8   7   38.90    3.40
   0   8  -7   36.70    2.80
   0   8  -7   45.40    3.00
   0   8   7   37.20    3.50
   1  -8   7   80.39    4.60
   1  -8   7   79.19    4.60
   1   8   7   79.89    6.00
  -1   8  -7   89.29    4.60
   1   8   7   80.39    5.50
   1   8   7   80.09    6.00
   2   8   7   92.89    6.30
   2   8   7   76.39    6.00
   2   8   7   82.69    5.80
  -6   0   8   40.90    3.80
   6   0  -8   41.40    2.80
   6   0  -8   44.10    3.70
  -6   0   8   42.70    3.40
  -5   0   8    0.50    1.00
   5   0  -8    0.30    0.70
  -5   0   8   -0.10    0.70
   5   0  -8    0.50    1.00
   4   0  -8  237.98   13.10
  -4   0   8  272.37   13.40
   4   0  -8  222.48   13.10
  -4   0   8  240.18   12.80
   4   0  -8  259.47   12.80
   3   0  -8    1.00    0.70
   3   0  -8   -0.20    0.70
  -3   0   8    0.10    0.50
  -3   0   8   -0.90    0.50
   3   0  -8   -0.20    0.50
   2   0  -8   27.50    2.00
  -2   0   8   22.80    2.20
   2   0  -8   27.30    2.20
  -2   0   8   28.60    2.00
  -2   0   8   25.20    2.00
  -2   0   8   25.40    2.10
   2   0  -8   24.70    2.20
   1   0  -8   -0.30    0.40
  -1   0   8   -0.50    0.30
  -1   0   8    0.10    0.40
  -1   0   8    0.00    0.40
  -1   0   8    0.20    0.40
  -1   0   8    0.30    0.40
   1   0  -8    0.40    0.60
   1   0  -8   -0.30    0.50
   0   0   8  663.23   30.20
   0   0  -8  589.24   30.00
   0   0   8  603.44   29.90
   0   0  -8  620.54   30.20
   0   0   8  603.54   29.90
   0   0   8  548.15   30.00
   0   0   8  635.74   30.10
   0   0  -8  631.24   30.20
   1   0   8    0.10    0.40
   1   0   8    0.40    0.40
   1   0   8   -0.30    0.40
   1   0   8   -0.30    0.30
   1   0   8    0.20    0.40
   1   0   8    0.20    0.30
  -1   0  -8   -0.10    0.30
  -1   0  -8    0.00    0.40
  -2   0  -8   56.69    3.70
   2   0   8   67.09    3.70
   2   0   8   61.79    3.60
   2   0   8   61.79    3.70
   2   0   8   59.99    3.60
   2   0   8   62.59    3.50
  -2   0  -8   64.09    3.60
   3   0   8    0.10    0.30
   3   0   8   -0.20    0.50
  -3   0  -8   -0.20    0.50
   3   0   8    0.70    0.50
   3   0   8    0.40    0.60
   3   0   8   -1.00    0.50
  -3   0  -8   -0.10    0.60
   4   0   8    9.00    1.30
  -4   0  -8    9.70    1.50
   4   0   8    8.70    1.30
   4   0   8   10.30    1.40
  -4   0  -8   10.90    1.40
   4   0   8    8.30    1.30
   5   0   8   -0.70    0.80
  -5   0  -8   -0.80    0.70
  -5   0  -8    0.00    0.80
   5   0   8    0.30    0.70
   5   0   8    0.00    0.80
   6   0   8   87.29    5.40
  -6   0  -8   82.09    5.40
   6   0   8   82.69    5.40
  -6   0  -8   87.09    5.60
   6   0   8   91.29    5.50
   6  -1  -8   32.30    2.50
  -6  -1   8   38.20    3.60
   6  -1  -8   33.00    3.00
  -6  -1   8   35.20    3.10
  -6   1   8   33.00    3.30
  -6   1   8   36.20    3.00
   6   1  -8   36.10    3.50
   6   1  -8   35.10    2.50
   5  -1  -8   74.09    4.00
  -5  -1   8   67.09    4.90
   5  -1  -8   62.69    4.50
  -5  -1   8   62.49    4.40
   5   1  -8   75.19    5.00
  -5   1   8   69.59    4.80
  -5   1   8   68.89    4.50
   5   1  -8   68.29    4.40
   4  -1  -8   71.19    4.80
   4  -1  -8   70.09    4.50
  -4  -1   8   82.49    5.20
   4  -1  -8   74.69    5.40
  -4  -1   8   71.49    4.60
   4   1  -8   74.09    5.00
  -4   1   8   81.69    4.70
  -4   1   8   83.99    5.00
   4   1  -8   79.99    5.00
   4   1  -8   76.79    4.70
   3  -1  -8    4.00    0.90
   3  -1  -8    6.30    1.20
  -3  -1   8    4.10    1.10
  -3  -1   8    4.20    0.90
   3  -1  -8    5.60    1.20
  -3   1   8    3.70    0.80
   3   1  -8    4.90    1.00
   3   1  -8    4.60    1.20
  -3   1   8    4.10    1.10
   3   1  -8    3.50    1.00
   2  -1  -8  164.68    8.20
  -2  -1   8  162.58    8.20
   2  -1  -8  150.28    8.00
   2  -1  -8  143.89    8.10
  -2  -1   8  142.49    7.80
  -2  -1   8  156.18    8.00
   2  -1  -8  157.68    7.90
  -2  -1   8  132.49    8.20
  -2   1   8  128.59    7.80
  -2   1   8  145.79    8.00
   2   1  -8  141.09    8.00
   2   1  -8  145.39    7.90
   2   1  -8  160.98    8.10
  -1  -1   8   54.69    3.60
  -1  -1   8   54.59    3.10
   1  -1  -8   55.79    3.50
  -1  -1   8   50.19    3.30
  -1  -1   8   53.09    3.20
   1  -1  -8   55.49    3.30
  -1  -1   8   57.09    3.10
  -1   1   8   53.89    3.10
   1   1  -8   60.69    3.30
   1   1  -8   58.89    3.50
  -1   1   8   55.99    3.70
   1   1  -8   59.09    3.50
  -1   1   8   49.90    3.20
  -1   1   8   48.20    3.30
   0  -1   8   31.10    1.90
   0  -1   8   29.40    1.90
   0  -1   8   31.10    2.00
   0  -1  -8   35.40    2.40
   0  -1   8   27.10    2.20
   0  -1   8   35.50    2.10
   0  -1  -8   33.50    2.20
   0  -1   8   28.60    2.10
   0   1  -8   33.60    2.20
   0   1   8   31.40    2.00
   0   1  -8   30.00    2.10
   0   1   8   32.70    2.10
   0   1   8   26.50    2.10
   0   1   8   32.40    2.30
   0   1  -8   32.30    2.00
   1  -1   8  206.58   10.40
   1  -1   8  198.58   10.30
   1  -1   8  215.98   10.10
   1  -1   8  197.68   10.30
  -1  -1  -8  208.48   10.70
   1  -1   8  210.78   10.40
  -1  -1  -8  196.88   10.50
   1   1   8  205.98   10.60
  -1   1  -8  197.88   10.40
   1   1   8  185.58   10.50
   1   1   8  206.58   10.40
   1   1   8  206.98   10.40
   1   1   8  205.08   10.40
  -1   1  -8  199.88   10.40
  -1   1  -8  209.68   10.30
   1   1   8  217.18   10.60
   2  -1   8    0.90    0.40
  -2  -1  -8    0.40    0.50
   2  -1   8    0.70    0.50
  -2  -1  -8    0.60    0.60
   2  -1   8    0.00    0.50
   2  -1   8    0.50    0.40
   2   1   8    1.00    0.60
   2   1   8    0.40    0.40
  -2   1  -8    0.80    0.50
  -2   1  -8    0.60    0.40
   2   1   8    0.50    0.50
   2   1   8    0.90    0.70
   2   1   8    0.30    0.60
   2   1   8    0.10    0.50
   2   1   8    1.80    0.60
   3  -1   8   13.00    1.30
  -3  -1  -8   14.10    1.80
  -3  -1  -8   11.70    1.40
   3  -1   8   12.80    1.50
   3  -1   8   11.40    1.40
   3  -1   8   14.20    1.30
  -3   1  -8   14.60    1.30
   3   1   8   17.00    1.80
   3   1   8   13.60    1.60
   3   1   8   13.90    1.40
   3   1   8   11.80    1.40
  -3   1  -8   14.30    1.40
   3   1   8   13.90    1.50
  -4  -1  -8   62.09    4.30
   4  -1   8   64.99    4.00
   4  -1   8   65.89    3.90
   4  -1   8   60.69    3.90
  -4  -1  -8   64.59    4.10
   4  -1   8   64.79    4.00
  -4   1  -8   69.79    3.90
   4   1   8   64.79    4.20
   4   1   8   59.79    4.00
   4   1   8   62.69    3.80
  -4   1  -8   63.69    4.00
   4   1   8   65.49    4.10
  -5  -1  -8    4.60    1.20
   5  -1   8    3.40    1.10
   5  -1   8    2.90    0.90
  -5  -1  -8    3.20    1.20
   5  -1   8    3.10    1.10
   5  -1   8    4.00    0.90
  -5   1  -8    4.10    1.00
  -5   1  -8    3.40    1.00
   5   1   8    5.40    1.30
   5   1   8    4.20    1.20
  -6  -1  -8   11.50    1.90
   6  -1   8   10.00    1.50
   6  -1   8   11.90    1.90
  -6  -1  -8    8.10    1.80
   6   1   8    8.90    1.60
  -6   1  -8   11.90    1.70
  -6   1  -8   10.20    1.90
   6  -2  -8   13.50    1.50
  -6  -2   8   13.70    2.50
  -6  -2   8   11.70    1.90
  -6   2   8    9.40    1.80
   6   2  -8    7.80    1.90
  -6   2   8   11.90    1.90
  -5  -2   8   89.29    5.50
  -5  -2   8   84.69    5.90
   5  -2  -8   82.39    4.90
  -5   2   8   80.29    5.60
  -5   2   8   93.19    5.50
   5   2  -8   96.59    6.10
   5   2  -8   93.69    5.60
   5   2  -8   88.19    6.00
   4  -2  -8   95.19    5.50
  -4  -2   8   98.69    6.20
  -4  -2   8   99.19    5.80
   4  -2  -8   95.69    5.30
   4   2  -8  109.09    6.30
   4   2  -8   84.29    6.10
  -4   2   8  106.69    5.80
   4   2  -8  102.59    5.80
   3  -2  -8    7.20    1.10
   3  -2  -8    5.60    1.10
  -3  -2   8    5.60    1.20
  -3  -2   8    6.00    1.10
   3   2  -8    6.10    1.30
  -3   2   8    4.80    1.00
   3   2  -8    5.60    1.10
   3   2  -8    3.70    1.00
   2  -2  -8   13.40    1.70
  -2  -2   8    7.30    1.20
  -2  -2   8   11.70    1.30
   2  -2  -8   15.30    1.60
   2  -2  -8    8.30    1.10
  -2  -2   8    8.70    1.20
   2   2  -8   13.20    1.60
  -2   2   8   10.30    1.30
   2   2  -8    9.90    1.50
  -2   2   8   13.90    1.30
   2   2  -8   10.40    1.30
  -1  -2   8   48.30    2.90
  -1  -2   8   42.60    3.00
  -1  -2   8   42.70    2.60
  -1  -2   8   46.00    2.90
   1  -2  -8   49.00    3.00
   1  -2  -8   46.50    3.10
  -1  -2   8   45.00    2.80
   1  -2  -8   42.10    2.80
  -1  -2   8   41.90    2.50
   1   2  -8   45.70    2.80
  -1   2   8   45.60    2.90
   1   2  -8   46.40    3.00
   1   2  -8   47.00    3.00
  -1   2   8   42.70    2.70
  -1   2   8   44.70    3.00
   0  -2   8  134.99    6.80
   0  -2   8  125.49    7.00
   0  -2  -8  130.89    6.90
   0  -2   8  129.99    6.70
   0  -2   8  132.39    6.60
   0  -2   8  127.29    6.60
   0  -2   8  126.29    6.80
   0  -2   8  127.39    6.40
   0  -2  -8  143.59    7.20
   0   2  -8  128.19    6.90
   0   2   8  125.69    6.90
   0   2  -8  119.69    6.80
   0   2   8  125.59    7.00
   0   2  -8  129.99    6.90
   0   2   8  134.29    6.80
   0   2   8  142.19    7.10
   0   2  -8  124.19    6.70
   1  -2   8    1.30    0.40
  -1  -2  -8    0.20    0.60
   1  -2   8    0.20    0.40
  -1  -2  -8    0.30    0.50
   1  -2   8    0.00    0.30
   1  -2   8    0.10    0.40
   1   2   8    0.10    0.50
   1   2   8    0.00    0.50
   1   2   8    0.10    0.50
  -1   2  -8    0.40    0.40
  -1   2  -8    0.10    0.40
  -1   2  -8    0.10    0.30
   1   2   8    0.10    0.50
   1   2   8    0.00    0.40
   1   2   8    0.50    0.60
  -2  -2  -8  153.68    8.50
  -2  -2  -8  152.98    8.80
   2  -2   8  155.28    8.20
   2  -2   8  165.68    8.20
   2  -2   8  163.68    8.10
   2  -2   8  159.38    8.30
   2   2   8  162.58    8.40
   2   2   8  162.78    8.40
   2   2   8  156.18    8.60
  -2   2  -8  156.08    8.20
   2   2   8  162.58    8.30
   2   2   8  165.48    8.80
  -2   2  -8  164.58    8.10
   2   2   8  147.59    8.50
   3  -2   8   62.89    3.40
   3  -2   8   59.19    3.60
  -3  -2  -8   58.19    4.10
   3  -2   8   59.99    3.60
   3  -2   8   60.89    3.40
  -3  -2  -8   58.89    3.80
   3   2   8   60.29    3.90
   3   2   8   57.99    3.60
   3   2   8   56.49    4.00
   3   2   8   57.49    3.70
  -3   2  -8   58.79    3.40
  -3   2  -8   61.49    3.30
   4  -2   8    2.60    0.70
  -4  -2  -8    2.50    1.00
  -4  -2  -8    2.30    1.00
   4  -2   8    2.20    0.90
   4  -2   8    1.70    0.90
   4  -2   8    2.60    0.60
   4   2   8    2.10    0.90
  -4   2  -8    2.30    0.70
   4   2   8    1.60    0.80
   4   2   8    3.30    1.10
   5  -2   8   20.90    2.20
   5  -2   8   17.40    2.00
  -5  -2  -8   21.50    2.40
   5  -2   8   20.80    1.80
  -5  -2  -8   24.30    2.90
   5  -2   8   19.50    1.80
   5   2   8   19.90    2.00
  -5   2  -8   19.40    1.80
   5   2   8   15.20    2.00
   5   2   8   17.80    2.20
   6  -3  -8   -0.30    0.80
  -6  -3   8    2.00    1.50
  -6  -3   8   -0.10    0.90
   6   3  -8    1.80    1.60
  -6   3   8    1.00    1.00
   6   3  -8    0.40    1.20
   5  -3  -8  272.27   14.00
  -5  -3   8  288.07   15.30
  -5  -3   8  286.97   14.70
   5   3  -8  280.37   15.20
   5   3  -8  258.57   15.10
   5   3  -8  279.07   14.60
  -5   3   8  272.07   14.60
   4  -3  -8   22.30    1.70
  -4  -3   8   20.40    2.00
  -4  -3   8   14.40    2.10
  -4   3   8   22.00    2.00
   4   3  -8   14.50    1.90
   4   3  -8   17.30    2.40
   4   3  -8   21.50    2.70
  -3  -3   8  401.96   20.30
   3  -3  -8  372.56   20.10
  -3  -3   8  412.66   20.80
   3  -3  -8  410.36   19.90
   3   3  -8  440.96   20.90
  -3   3   8  424.56   20.40
   3   3  -8  390.16   20.70
   3   3  -8  385.46   20.40
  -2  -3   8    3.30    0.70
   2  -3  -8    2.20    0.90
  -2  -3   8    1.70    0.70
   2  -3  -8    3.50    1.00
   2  -3  -8    1.70    0.50
  -2  -3   8    3.70    1.00
  -2  -3   8    3.80    0.90
   2  -3  -8    2.80    0.70
   2  -3  -8    3.40    0.80
   2   3  -8    1.40    0.70
  -2   3   8    1.40    0.70
  -2   3   8    1.90    0.60
   2   3  -8    2.20    0.80
   2   3  -8    1.80    0.90
  -1  -3   8   70.99    4.20
  -1  -3   8   73.99    3.90
  -1  -3   8   70.89    4.20
   1  -3  -8   68.29    4.20
  -1  -3   8   80.19    4.40
   1  -3  -8   76.09    4.60
  -1  -3   8   79.09    3.90
   1  -3  -8   61.29    4.60
   1  -3  -8   64.99    4.40
   1   3  -8   78.19    4.20
   1   3  -8   70.39    4.30
  -1   3   8   75.89    4.30
  -1   3   8   72.59    4.10
   1   3  -8   72.89    4.30
   0  -3   8   54.79    3.00
   0  -3   8   53.59    3.00
   0  -3   8   47.70    3.10
   0  -3  -8   46.40    3.20
   0  -3   8   51.49    2.90
   0  -3  -8   46.90    3.40
   0  -3   8   52.89    2.80
   0   3   8   48.80    3.40
   0   3   8   44.10    3.10
   0   3   8   51.19    2.90
   0   3   8   53.39    3.00
   0   3  -8   53.99    3.10
   0   3  -8   46.70    3.10
   0   3  -8   51.49    2.90
   1  -3   8  231.48   11.80
  -1  -3  -8  227.98   12.50
   1  -3   8  242.18   11.80
   1  -3   8  234.28   11.80
   1  -3   8  236.68   11.90
  -1  -3  -8  232.38   12.20
   1   3   8  250.27   12.30
  -1   3  -8  222.98   11.70
   1   3   8  241.98   11.90
   1   3   8  245.58   12.50
  -1   3  -8  231.58   11.80
   1   3   8  247.28   12.00
  -2  -3  -8    0.10    0.60
   2  -3   8    0.20    0.50
   2  -3   8    0.30    0.50
   2  -3   8    0.50    0.30
   2  -3   8    1.00    0.30
  -2  -3  -8    0.40    0.80
  -2   3  -8    0.50    0.30
   2   3   8    0.80    0.50
   2   3   8    1.20    0.80
   2   3   8    1.30    0.70
   2   3   8    0.50    0.80
  -2   3  -8    1.20    0.40
   2   3   8    0.10    0.60
  -3  -3  -8  110.09    6.70
   3  -3   8  111.29    5.90
  -3  -3  -8  114.39    6.40
   3  -3   8  110.79    5.60
   3  -3   8  113.69    5.60
   3  -3   8  105.79    6.00
  -3   3  -8  105.09    5.50
   3   3   8  110.79    6.00
   3   3   8  113.19    6.10
   3   3   8  108.99    6.20
   3   3   8   98.79    6.40
  -4  -3  -8   50.59    4.10
   4  -3   8   49.60    3.50
   4  -3   8   55.09    3.00
   4  -3   8   49.40    3.40
  -4  -3  -8   56.29    3.90
   4  -3   8   54.59    3.00
   4   3   8   53.79    3.70
   4   3   8   51.49    3.50
   4   3   8   60.59    4.00
  -4   3  -8   51.39    2.90
   5  -3   8   78.29    4.80
   5  -3   8   76.19    4.30
   5  -3   8   75.69    4.80
   5  -3   8   78.09    4.30
  -5  -3  -8   81.09    5.30
  -5  -3  -8   80.69    5.70
   5   3   8   77.59    5.10
   5   3   8   80.69    4.90
   5   3   8   75.79    5.00
  -6  -4   8   56.79    4.50
   6  -4  -8   64.69    3.90
  -6   4   8   60.09    4.40
   6   4  -8   58.09    4.50
   6   4  -8   71.89    5.50
   5  -4  -8    6.20    1.00
  -5  -4   8    5.00    1.30
   5   4  -8    4.50    1.70
   5   4  -8    7.70    1.60
   5   4  -8    3.90    1.50
  -5   4   8    6.70    1.40
   4  -4  -8   25.50    2.10
  -4  -4   8   23.80    2.30
   4   4  -8   28.90    3.00
  -4   4   8   28.30    2.40
   4   4  -8   27.70    2.90
   4   4  -8   31.50    2.70
  -3  -4   8    0.80    0.70
   3  -4  -8    0.70    0.50
  -3   4   8    1.20    0.80
   3   4  -8    2.60    1.10
  -3   4   8    0.90    0.60
   3   4  -8    1.90    0.90
   3   4  -8    2.80    1.20
   2  -4  -8   88.19    4.90
  -2  -4   8   96.49    5.20
   2  -4  -8   84.99    4.50
   2   4  -8   75.19    4.90
  -2   4   8   91.59    5.10
  -2   4   8   83.29    4.70
   2   4  -8   86.89    5.20
   2   4  -8   74.99    5.10
  -1  -4   8  275.57   13.60
   1  -4  -8  291.27   14.50
  -1  -4   8  296.07   14.20
   1  -4  -8  271.07   13.50
  -1  -4   8  288.67   14.10
   1  -4  -8  281.97   14.10
   1   4  -8  285.67   14.00
   1   4  -8  268.37   14.20
  -1   4   8  256.47   14.40
  -1   4   8  272.17   14.20
  -1   4   8  276.27   13.90
   1   4  -8  246.88   14.40
   0  -4   8  288.57   14.80
   0  -4  -8  302.27   15.00
   0  -4   8  303.27   14.70
   0  -4   8  297.47   14.50
   0  -4   8  285.07   14.70
   0  -4  -8  307.27   15.30
   0  -4   8  296.57   14.40
   0   4   8  298.87   14.70
   0   4   8  268.27   15.00
   0   4  -8  276.07   14.60
   0   4   8  293.97   14.60
   0   4   8  312.57   15.30
   0   4  -8  281.97   14.70
  -1  -4  -8  155.78    8.40
   1  -4   8  141.59    7.30
   1  -4   8  146.19    7.40
  -1  -4  -8  150.28    7.90
   1  -4   8  137.29    7.40
   1   4   8  158.48    8.40
  -1   4  -8  138.69    7.40
  -1   4  -8  143.89    7.30
   1   4   8  134.59    7.40
   1   4   8  163.48    8.30
   1   4   8  137.29    7.90
   1   4   8  139.79    7.60
   2  -4   8    4.80    0.80
   2  -4   8    6.40    0.60
   2  -4   8    6.30    0.60
  -2  -4  -8    7.30    1.60
  -2  -4  -8    7.80    1.40
   2   4   8    6.50    1.00
   2   4   8    5.40    1.30
   2   4   8    5.40    1.30
   2   4   8    5.90    1.10
   2   4   8    4.30    1.10
  -3  -4  -8   69.49    4.80
   3  -4   8   63.69    4.00
  -3  -4  -8   66.89    4.40
   3   4   8   70.99    4.30
   3   4   8   60.99    4.60
   3   4   8   62.99    3.90
   3   4   8   70.29    4.20
   4  -4   8   47.70    3.10
  -4  -4  -8   41.60    3.80
  -4  -4  -8   47.80    3.50
   4   4   8   41.70    3.00
   4   4   8   44.80    3.70
   4   4   8   39.60    3.20
  -5  -4  -8    3.30    1.30
  -5  -4  -8    4.00    1.60
   5  -4   8    2.10    1.10
   5   4   8    2.30    1.10
   5   4   8    2.70    1.30
   5   4   8    3.50    1.10
   5  -5  -8    0.70    0.80
   5   5  -8   -0.60    1.00
   5   5  -8   -0.40    1.10
   5   5  -8    0.80    1.40
  -5   5   8   -0.20    0.80
   4  -5  -8  125.29    6.60
   4   5  -8  108.79    7.60
  -4   5   8  126.19    7.20
   4   5  -8  128.49    7.90
   4   5  -8  133.29    7.50
   3  -5  -8    2.40    0.70
  -3   5   8    1.50    0.90
  -3   5   8    3.10    0.80
   3   5  -8    1.60    1.10
   3   5  -8    3.10    1.20
   3   5  -8    3.10    1.10
  -2  -5   8  135.39    7.70
   2  -5  -8  133.69    7.00
   2   5  -8  141.49    7.90
  -2   5   8  135.49    7.60
   2   5  -8  139.69    7.60
  -2   5   8  131.79    7.20
  -1  -5   8  106.89    5.80
  -1  -5   8   99.69    5.80
   1  -5  -8   98.89    5.80
  -1   5   8   96.19    6.20
   1   5  -8  111.49    6.00
   1   5  -8   99.79    5.80
  -1   5   8  111.69    6.00
  -1   5   8   97.59    5.50
   0  -5   8   96.59    5.30
   0  -5  -8   98.49    5.60
   0  -5  -8  100.79    6.10
   0  -5   8  103.59    5.40
   0  -5   8   94.59    5.40
   0   5  -8   98.19    5.30
   0   5  -8   96.99    5.40
   0   5   8   92.09    5.70
   0   5   8  100.89    5.20
   0   5   8   92.89    6.00
   0   5   8   94.49    5.30
  -1  -5  -8   23.30    2.10
   1  -5   8   23.40    1.50
   1  -5   8   22.00    1.50
  -1  -5  -8   23.30    2.70
   1  -5   8   20.30    1.50
  -1   5  -8   21.30    1.50
   1   5   8   17.90    2.10
   1   5   8   23.10    2.50
   1   5   8   22.40    2.70
   1   5   8   20.10    1.60
   1   5   8   21.70    1.80
  -2  -5  -8   25.20    2.40
   2  -5   8   24.10    1.90
  -2  -5  -8   22.00    2.70
   2   5   8   26.90    2.80
   2   5   8   24.50    1.90
   2   5   8   27.10    3.00
   2   5   8   27.70    2.50
   2   5   8   29.00    2.10
  -3  -5  -8   74.39    5.20
  -3  -5  -8   61.49    4.60
   3  -5   8   72.19    4.20
   3   5   8   67.49    4.60
   3   5   8   74.59    4.40
   3   5   8   69.69    4.20
   3   5   8   72.69    5.10
  -4  -5  -8   22.90    2.80
  -4  -5  -8   22.70    3.10
   4  -5   8   23.70    2.30
   4   5   8   30.00    3.30
   4   5   8   19.30    2.20
   5  -6  -8    0.80    0.80
   5   6  -8    0.20    1.40
   5   6  -8   -0.30    1.20
   5   6  -8    0.80    1.30
  -5   6   8    0.40    1.00
   4  -6  -8   31.40    2.30
   4   6  -8   41.30    3.70
   4   6  -8   26.20    3.00
   4   6  -8   31.90    3.40
  -4   6   8   34.70    2.90
   3  -6  -8   24.50    1.80
  -3   6   8   25.10    2.40
   3   6  -8   27.40    2.80
  -3   6   8   25.10    2.00
   3   6  -8   19.70    2.40
   2  -6  -8   74.39    5.20
  -2   6   8   90.09    5.60
  -2   6   8   93.99    5.10
   2   6  -8  100.09    5.70
   2   6  -8   90.39    5.70
  -1  -6   8    0.70    0.70
  -1  -6   8    1.20    0.70
  -1   6   8    2.20    0.70
  -1   6   8    2.50    1.20
  -1   6   8    1.40    0.90
   1   6  -8    1.00    0.70
   1   6  -8    2.20    0.90
   0  -6   8  282.37   13.70
   0  -6   8  266.27   13.70
   0  -6  -8  276.17   14.00
   0  -6   8  266.87   13.70
   0   6  -8  264.97   13.80
   0   6   8  264.27   14.50
   0   6  -8  253.77   13.60
   0   6   8  274.37   13.60
   0   6   8  274.37   14.20
   0   6   8  277.97   14.60
   0   6  -8  255.57   13.70
   1  -6   8    2.80    0.60
  -1  -6  -8    2.80    1.00
   1  -6   8    1.90    0.50
   1   6   8    1.90    0.80
   1   6   8    2.50    1.30
   1   6   8    2.60    1.10
  -1   6  -8    2.70    0.60
   1   6   8    3.00    1.20
  -2  -6  -8   36.10    3.40
  -2  -6  -8   34.10    2.90
   2   6   8   31.20    2.40
   2   6   8   31.50    3.20
   2   6   8   30.30    2.80
   2   6   8   32.60    3.20
  -3  -6  -8   66.89    5.10
  -3  -6  -8   64.79    4.50
   3   6   8   66.19    4.60
   3   6   8   65.19    4.10
   3   6   8   55.19    4.80
  -4  -6  -8   12.80    2.50
  -4  -6  -8   12.90    2.10
   4   6   8   12.30    2.40
   4   6   8   12.30    1.80
   4   7  -8   39.10    3.40
  -4   7   8   24.90    2.80
   4   7  -8   26.90    3.40
   3   7  -8   11.40    2.10
   3   7  -8   14.30    2.20
  -3   7   8   13.00    2.00
   2   7  -8    1.50    1.00
  -2   7   8    1.20    1.00
   2   7  -8    1.00    1.00
  -1  -7   8   99.09    5.90
  -1   7   8  106.39    6.20
  -1   7   8   95.29    6.40
   1   7  -8  100.29    6.00
   1   7  -8   99.59    5.90
   1   7  -8   92.59    5.80
   0  -7   8   27.80    2.10
   0  -7   8   28.60    2.10
   0  -7   8   29.20    2.20
   0   7  -8   25.10    2.20
   0   7   8   31.10    2.70
   0   7   8   29.80    3.00
   0   7  -8   24.30    2.20
   0   7   8   24.50    3.00
   0   7  -8   27.40    2.20
   1  -7   8    7.50    0.90
   1  -7   8   10.20    1.10
   1   7   8    7.30    1.90
   1   7   8    8.90    2.00
   1   7   8    5.90    1.50
  -1   7  -8    7.80    1.00
  -2  -7  -8   34.90    3.10
   2   7   8   33.20    3.20
   2   7   8   35.10    3.70
   2   7   8   37.70    3.70
  -3  -7  -8  139.99    8.80
   3   7   8  157.48    9.10
   3   7   8  160.58    9.60
  -2   8   8    1.90    1.20
  -2   8   8    2.90    1.20
   2   8  -8    2.00    1.10
   2   8  -8    2.90    1.20
  -1  -8   8    6.30    1.40
   1   8  -8    6.50    1.40
   1   8  -8    5.40    1.40
  -1   8   8    4.60    1.40
  -1   8   8    5.20    1.70
   1   8  -8    5.30    1.30
   0  -8   8    7.60    1.10
   0  -8   8    7.10    1.20
   0  -8   8    7.50    1.20
   0   8   8    6.80    1.80
   0   8   8    6.70    1.70
   0   8  -8    8.30    1.40
   1  -8   8   17.30    1.50
   1  -8   8   17.80    1.50
   1   8   8   16.40    2.70
   1   8   8   19.40    3.10
   1   8   8   20.80    2.70
   2   8   8   38.80    4.00
   2   8   8   37.30    3.50
   2   8   8   33.80    4.10
   6   0  -9    0.10    1.10
  -6   0   9    0.90    0.90
   6   0  -9    0.60    0.80
  -6   0   9    0.40    1.20
  -5   0   9   72.19    5.10
   5   0  -9   71.09    5.00
   5   0  -9   72.19    4.60
  -5   0   9   70.99    4.70
   4   0  -9    0.20    0.70
  -4   0   9    0.70    0.70
   4   0  -9   -0.80    0.70
  -4   0   9   -0.10    0.80
   4   0  -9    0.70    0.90
  -3   0   9   68.39    4.20
   3   0  -9   64.89    4.40
  -3   0   9   69.99    4.50
   3   0  -9   71.99    4.50
   3   0  -9   67.49    4.20
  -2   0   9   -0.20    0.50
   2   0  -9   -0.20    0.50
   2   0  -9    0.30    0.60
  -2   0   9    0.00    0.50
   2   0  -9   -0.50    0.50
  -1   0   9  235.68   11.70
  -1   0   9  225.48   11.00
  -1   0   9  227.18   11.10
   1   0  -9  235.78   11.40
   1   0  -9  185.98   11.30
  -1   0   9  191.08   11.20
   1   0  -9  224.18   11.20
   0   0   9   -0.50    0.40
   0   0   9   -0.10    0.40
   0   0  -9    0.80    0.50
   0   0   9   -0.20    0.40
   0   0   9   -0.10    0.30
   0   0  -9   -0.20    0.50
   0   0   9    0.30    0.40
   0   0  -9   -0.10    0.40
  -1   0  -9  441.26   22.10
  -1   0  -9  423.56   22.30
   1   0   9  454.85   22.10
   1   0   9  455.75   22.30
   1   0   9  473.25   22.30
   1   0   9  448.86   22.10
   1   0   9  438.66   22.10
   1   0   9  441.56   21.90
   2   0   9   -0.30    0.40
   2   0   9    0.00    0.40
   2   0   9   -0.50    0.50
  -2   0  -9    0.20    0.50
  -2   0  -9   -0.30    0.40
   2   0   9   -0.40    0.40
   2   0   9    0.20    0.60
  -3   0  -9  156.08    8.50
   3   0   9  143.89    8.20
   3   0   9  154.38    8.30
   3   0   9  172.08    8.40
   3   0   9  151.68    8.30
  -3   0  -9  151.58    8.20
   4   0   9    0.20    0.60
  -4   0  -9   -0.70    0.60
   4   0   9   -0.20    0.80
  -4   0  -9    0.30    0.70
   4   0   9    1.00    0.90
  -5   0  -9   82.69    5.30
   5   0   9   88.79    5.30
  -5   0  -9   87.49    5.20
   5   0   9   78.69    5.10
   5   0   9   73.59    5.00
   6  -1  -9    0.20    0.70
  -6  -1   9    0.60    1.20
  -6  -1   9    0.70    1.00
   6  -1  -9   -0.60    0.80
  -6   1   9    0.30    1.00
   6   1  -9   -1.00    1.10
  -6   1   9    1.00    0.90
  -5  -1   9    0.00    0.80
  -5  -1   9    0.50    1.00
   5  -1  -9    1.00    0.70
   5  -1  -9    0.00    1.00
   5   1  -9    1.30    1.30
  -5   1   9    0.50    0.80
  -5   1   9    0.60    1.00
   5   1  -9    0.00    0.80
   4  -1  -9   64.89    4.90
  -4  -1   9   79.19    4.80
   4  -1  -9   72.79    5.50
  -4  -1   9   85.39    5.30
   4  -1  -9   75.19    4.70
  -4   1   9   81.99    5.20
   4   1  -9   81.29    5.20
  -4   1   9   77.59    4.80
   4   1  -9   83.49    4.80
   4   1  -9   72.89    5.10
   3  -1  -9    2.10    1.00
   3  -1  -9    1.40    0.90
  -3  -1   9    1.50    0.70
   3  -1  -9    1.70    0.80
  -3  -1   9    0.70    0.80
   3   1  -9    2.30    1.00
   3   1  -9    2.20    0.90
  -3   1   9    1.70    0.70
   3   1  -9    1.10    0.80
   2  -1  -9    0.50    0.60
  -2  -1   9   -0.10    0.50
  -2  -1   9    0.20    0.60
   2  -1  -9    0.00    0.60
  -2  -1   9    0.60    0.60
  -2  -1   9    0.30    0.50
   2  -1  -9    0.80    0.70
   2   1  -9    0.40    0.70
  -2   1   9    0.80    0.50
   2   1  -9    0.30    0.70
  -2   1   9   -0.20    0.50
   2   1  -9    0.00    0.50
  -1  -1   9    4.40    0.80
   1  -1  -9    2.70    0.80
  -1  -1   9    4.30    0.70
   1  -1  -9    3.50    0.80
  -1  -1   9    6.70    1.20
  -1  -1   9    3.10    0.80
  -1  -1   9    3.30    0.60
  -1   1   9    3.50    0.70
  -1   1   9    3.80    0.80
  -1   1   9    4.60    0.80
   1   1  -9    3.90    0.80
   1   1  -9    4.00    0.90
   1   1  -9    3.90    0.80
  -1   1   9    1.90    0.60
   0  -1   9  112.09    5.80
   0  -1   9   96.89    5.90
   0  -1   9  113.09    5.80
   0  -1  -9  106.49    6.00
   0  -1  -9  109.29    6.20
   0  -1   9   99.79    5.90
   0  -1   9  106.99    5.70
   0  -1   9  110.49    5.90
   0   1   9  102.99    5.90
   0   1  -9  111.69    6.10
   0   1   9  120.09    6.20
   0   1   9  114.99    5.90
   0   1   9  123.89    6.20
   0   1  -9  115.79    6.10
   0   1   9  108.79    6.10
   0   1  -9  118.89    5.90
   1  -1   9   53.09    3.00
   1  -1   9   44.60    2.90
  -1  -1  -9   46.30    3.00
   1  -1   9   49.90    2.70
  -1  -1  -9   43.60    3.10
   1  -1   9   47.00    2.90
   1  -1   9   49.00    2.90
   1   1   9   46.70    2.90
   1   1   9   47.80    2.90
  -1   1  -9   48.40    2.90
  -1   1  -9   46.00    3.00
   1   1   9   50.99    3.10
   1   1   9   50.79    3.10
   1   1   9   47.30    2.90
   1   1   9   48.70    3.20
  -1   1  -9   52.39    3.10
   2  -1   9 1066.69   51.39
   2  -1   9 1090.89   51.39
  -2  -1  -9  991.80   51.49
  -2  -1  -9 1029.90   51.79
   2  -1   9 1075.69   51.39
   2  -1   9 1120.89   51.39
   2   1   9 1068.59   51.49
   2   1   9  916.21   51.79
  -2   1  -9 1052.99   51.29
  -2   1  -9 1071.39   51.49
   2   1   9 1113.19   51.69
   2   1   9 1042.90   51.39
   2   1   9 1023.90   51.59
   2   1   9 1087.29   51.39
   3  -1   9   79.29    4.40
  -3  -1  -9   74.79    4.80
   3  -1   9   72.09    4.40
   3  -1   9   73.39    4.40
   3  -1   9   77.49    4.40
  -3  -1  -9   74.89    4.50
   3   1   9   81.29    4.50
   3   1   9   68.69    4.60
   3   1   9   73.99    4.40
   3   1   9   79.29    4.40
  -3   1  -9   71.69    4.40
  -3   1  -9   74.99    4.30
   4  -1   9    5.40    1.20
   4  -1   9    5.00    1.10
  -4  -1  -9    4.10    1.10
  -4  -1  -9    4.00    1.30
   4  -1   9    5.20    1.00
   4  -1   9    4.30    0.90
  -4   1  -9    4.80    1.10
   4   1   9    4.50    1.20
  -4   1  -9    6.20    1.00
   4   1   9    6.30    1.20
   4   1   9    7.10    1.40
   4   1   9    5.70    0.90
  -5  -1  -9   61.59    4.40
   5  -1   9   62.39    4.00
   5  -1   9   53.09    3.90
   5  -1   9   58.09    3.80
  -5  -1  -9   54.29    4.00
   5  -1   9   60.99    3.90
   5   1   9   59.09    3.90
   5   1   9   56.59    4.00
  -5   1  -9   57.49    3.90
  -5   1  -9   58.29    3.80
  -6  -2   9    2.20    1.50
   6  -2  -9    1.30    0.80
  -6  -2   9    0.90    1.10
   6   2  -9    0.10    1.30
  -6   2   9    1.80    1.20
  -6   2   9    1.80    1.10
  -5  -2   9   57.59    4.10
  -5  -2   9   65.59    4.80
   5  -2  -9   57.79    3.60
   5   2  -9   62.89    4.20
  -5   2   9   54.49    4.10
   5   2  -9   58.79    4.60
   5   2  -9   64.79    4.70
  -4  -2   9    3.90    1.20
   4  -2  -9    4.00    1.00
  -4  -2   9    5.40    1.20
   4  -2  -9    5.50    0.90
  -4   2   9    6.30    1.20
   4   2  -9    5.40    1.30
   4   2  -9    4.00    1.30
   4   2  -9    3.90    1.30
   3  -2  -9  228.08   11.70
  -3  -2   9  211.28   11.70
   3  -2  -9  217.98   12.10
  -3  -2   9  240.58   12.30
   3   2  -9  236.98   11.90
   3   2  -9  248.48   12.30
   3   2  -9  190.48   12.10
  -3   2   9  242.78   11.90
   2  -2  -9  113.19    6.60
  -2  -2   9  114.89    6.60
   2  -2  -9  118.99    6.40
  -2  -2   9  108.49    6.20
  -2  -2   9  119.39    6.50
   2   2  -9  112.49    6.60
   2   2  -9  115.19    6.30
   2   2  -9  115.39    6.70
  -2   2   9  117.69    6.20
  -2   2   9  116.59    6.40
   1  -2  -9   90.19    5.90
  -1  -2   9   96.49    5.40
   1  -2  -9  103.99    5.70
  -1  -2   9   92.99    5.60
  -1  -2   9  108.59    5.70
  -1  -2   9  106.69    5.40
  -1  -2   9  107.89    6.00
  -1  -2   9  100.39    5.70
   1   2  -9  100.89    5.80
   1   2  -9   99.09    5.80
  -1   2   9  101.79    5.50
  -1   2   9  109.49    5.70
   1   2  -9  113.39    5.70
   0  -2   9  265.97   13.70
   0  -2   9  274.17   13.60
   0  -2   9  261.07   14.00
   0  -2  -9  284.47   13.90
   0  -2   9  299.97   13.60
   0  -2   9  269.57   13.80
   0  -2  -9  266.37   14.10
   0  -2   9  278.97   13.60
   0   2  -9  267.77   13.70
   0   2   9  237.68   14.00
   0   2   9  272.07   13.90
   0   2   9  288.77   14.20
   0   2  -9  268.47   13.90
   0   2  -9  277.77   13.90
   0   2   9  279.67   13.70
  -1  -2  -9   71.99    4.40
   1  -2   9   66.19    3.80
   1  -2   9   65.29    3.80
  -1  -2  -9   68.89    4.10
   1  -2   9   66.99    3.80
   1  -2   9   67.59    3.80
   1   2   9   70.39    4.20
   1   2   9   67.49    4.20
   1   2   9   68.59    3.90
  -1   2  -9   70.79    3.80
  -1   2  -9   66.59    3.90
   1   2   9   68.69    3.90
   1   2   9   67.79    4.00
   2  -2   9  287.57   13.90
  -2  -2  -9  275.17   14.60
  -2  -2  -9  267.27   14.20
   2  -2   9  278.97   13.90
   2  -2   9  276.07   13.90
   2  -2   9  266.87   14.00
  -2   2  -9  281.57   13.80
   2   2   9  284.67   14.10
   2   2   9  280.97   14.00
   2   2   9  270.47   14.30
   2   2   9  280.17   14.30
   2   2   9  272.67   14.00
  -2   2  -9  276.37   13.90
   3  -2   9   82.79    4.90
   3  -2   9   92.79    5.10
   3  -2   9   89.99    4.80
  -3  -2  -9   84.49    5.20
  -3  -2  -9   82.09    5.50
   3  -2   9   90.29    4.80
   3   2   9   94.69    5.20
   3   2   9   88.59    5.30
  -3   2  -9   84.19    4.80
   3   2   9   87.49    5.00
  -3   2  -9   89.79    4.80
   4  -2   9   72.89    4.20
   4  -2   9   74.39    4.20
  -4  -2  -9   74.59    4.80
   4  -2   9   75.69    4.50
  -4  -2  -9   74.49    5.10
   4  -2   9   67.49    4.40
  -4   2  -9   73.79    4.30
   4   2   9   75.39    4.60
   4   2   9   71.79    4.60
   4   2   9   77.09    4.60
   5  -2   9    5.00    1.30
   5  -2   9    4.30    1.20
   5  -2   9    7.10    1.10
   5  -2   9    6.30    1.00
  -5  -2  -9    6.80    1.50
  -5  -2  -9    6.20    1.70
   5   2   9    6.70    1.40
   5   2   9    8.10    1.50
  -5   2  -9    5.40    1.00
   6  -3  -9   40.70    2.90
  -6  -3   9   39.70    4.00
  -6  -3   9   41.10    3.50
   6   3  -9   40.70    3.60
   6   3  -9   43.60    4.20
  -6   3   9   37.30    3.30
  -5  -3   9   65.29    5.10
   5  -3  -9   70.69    4.10
  -5  -3   9   69.09    4.70
   5   3  -9   62.29    5.10
   5   3  -9   67.39    4.70
  -5   3   9   79.29    4.80
   5   3  -9   77.69    5.40
   4  -3  -9   66.09    4.00
  -4  -3   9   81.59    5.20
  -4  -3   9   64.39    4.40
  -4   3   9   76.69    4.60
   4   3  -9   68.89    4.60
   4   3  -9   79.59    5.10
   4   3  -9   65.09    5.00
  -3  -3   9  178.78    9.40
   3  -3  -9  179.18    9.30
   3  -3  -9  174.08    9.00
  -3  -3   9  159.18    9.70
  -3   3   9  178.58    9.60
   3   3  -9  182.48    9.60
   3   3  -9  185.68   10.00
   3   3  -9  174.08    9.80
   2  -3  -9    6.70    1.10
   2  -3  -9    9.60    1.60
  -2  -3   9    6.10    1.10
  -2  -3   9    7.50    1.00
   2   3  -9    7.90    1.40
  -2   3   9    8.90    1.20
   2   3  -9    7.30    1.40
  -2   3   9   11.40    1.50
   2   3  -9    8.00    1.30
  -1  -3   9  234.78   13.10
  -1  -3   9  260.17   13.50
   1  -3  -9  233.18   13.10
  -1  -3   9  260.47   12.80
   1  -3  -9  257.97   13.50
  -1  -3   9  254.67   13.20
   1   3  -9  262.47   13.30
  -1   3   9  277.37   13.30
   1   3  -9  269.37   13.10
   1   3  -9  258.47   13.30
  -1   3   9  263.77   13.00
   0  -3   9   16.30    1.20
   0  -3   9   18.90    1.60
   0  -3   9   16.20    1.40
   0  -3   9   17.90    1.40
   0  -3   9   15.70    1.30
   0  -3  -9   16.80    1.80
   0   3  -9   16.50    1.40
   0   3  -9   15.10    1.50
   0   3   9   14.70    1.50
   0   3   9   15.90    1.80
   0   3   9   15.20    1.40
   0   3   9   14.90    1.80
  -1  -3  -9   86.79    5.00
  -1  -3  -9   77.99    5.20
   1  -3   9   88.19    4.60
   1  -3   9   89.59    4.60
   1  -3   9   83.99    4.60
   1  -3   9   87.49    4.50
   1   3   9   79.79    4.90
   1   3   9   86.59    5.20
   1   3   9   83.29    4.80
  -1   3  -9   79.89    4.50
  -1   3  -9   84.19    4.60
   1   3   9   83.69    4.60
   2  -3   9   96.09    5.10
  -2  -3  -9   86.09    5.70
  -2  -3  -9   97.69    5.50
   2  -3   9   94.09    4.90
   2  -3   9   95.09    4.90
   2  -3   9   88.09    5.00
   2   3   9   94.79    5.30
  -2   3  -9   89.89    4.90
  -2   3  -9   91.69    4.80
   2   3   9   87.49    5.10
   2   3   9   84.49    5.70
   2   3   9   96.29    5.40
   2   3   9   94.59    5.60
   3  -3   9   17.80    1.80
   3  -3   9   20.30    1.40
  -3  -3  -9   16.20    2.00
   3  -3   9   22.50    1.40
  -3  -3  -9   21.10    2.60
   3  -3   9   18.80    1.90
   3   3   9   16.40    1.80
  -3   3  -9   19.50    1.30
   3   3   9   19.20    1.90
   3   3   9   19.40    2.30
   4  -3   9   62.59    3.40
   4  -3   9   62.09    3.90
  -4  -3  -9   57.59    4.50
  -4  -3  -9   60.69    4.30
   4  -3   9   62.09    3.40
   4  -3   9   57.39    3.80
  -4   3  -9   58.89    3.50
   4   3   9   65.19    4.30
   4   3   9   66.09    4.00
   4   3   9   53.89    4.00
  -5  -3  -9   33.00    3.30
  -5  -3  -9   21.20    2.70
   5  -3   9   24.20    2.40
   5  -3   9   24.00    1.80
   5  -3   9   26.20    1.80
   5  -3   9   30.50    2.70
   5   3   9   23.10    2.50
   5   3   9   24.10    2.40
   5   3   9   24.50    2.60
   6  -4  -9    0.80    0.90
  -6  -4   9    2.20    1.20
  -6   4   9    0.80    1.00
   6   4  -9   -1.70    1.40
   5  -4  -9    0.30    0.70
  -5  -4   9    0.90    0.90
   5   4  -9    0.10    1.40
   5   4  -9   -0.40    1.00
   5   4  -9    1.90    1.40
  -5   4   9    1.00    0.90
  -4  -4   9    0.60    0.80
   4  -4  -9    0.00    0.60
   4   4  -9   -0.10    0.90
  -4   4   9   -0.10    0.80
   4   4  -9   -1.70    0.70
   4   4  -9    0.50    1.10
   3  -4  -9  153.58    7.80
  -3  -4   9  149.99    8.30
   3   4  -9  145.79    8.50
  -3   4   9  154.08    8.10
   3   4  -9  159.88    8.90
   3   4  -9  164.08    8.90
  -3   4   9  140.79    8.40
   2  -4  -9    6.20    1.10
  -2  -4   9    5.70    1.20
   2  -4  -9    6.90    0.80
  -2  -4   9    5.90    0.80
  -2   4   9    8.00    1.30
  -2   4   9    4.30    0.90
   2   4  -9    6.70    1.40
   2   4  -9    6.50    1.40
   2   4  -9    4.60    1.10
  -1  -4   9  225.08   12.20
  -1  -4   9  212.08   12.10
  -1  -4   9  233.68   11.70
   1  -4  -9  248.28   12.30
   1  -4  -9  233.58   12.60
   1  -4  -9  235.68   11.60
  -1   4   9  236.78   12.00
  -1   4   9  240.28   12.40
   1   4  -9  235.88   12.10
   1   4  -9  254.07   12.40
  -1   4   9  235.48   12.60
   0  -4   9  141.79    8.00
   0  -4   9  148.79    7.80
   0  -4   9  152.68    7.70
   0  -4  -9  151.38    8.50
   0  -4   9  142.09    7.80
   0   4  -9  141.69    7.80
   0   4   9  160.08    8.50
   0   4   9  152.08    7.80
   0   4  -9  143.69    7.90
   0   4   9  159.08    8.20
   0   4   9  152.48    7.70
   1  -4   9    2.10    0.50
  -1  -4  -9    2.60    0.90
  -1  -4  -9    2.70    1.20
   1  -4   9    3.30    0.60
   1  -4   9    2.10    0.60
   1   4   9    2.00    0.90
   1   4   9    5.20    1.00
   1   4   9    3.00    1.10
  -1   4  -9    2.80    0.60
  -1   4  -9    3.50    0.60
   1   4   9    3.60    1.20
   1   4   9    2.70    0.70
  -2  -4  -9   47.60    3.70
   2  -4   9   49.10    2.50
   2  -4   9   44.70    2.50
   2  -4   9   45.80    2.90
   2   4   9   37.70    3.40
   2   4   9   44.10    3.60
   2   4   9   39.30    2.90
   2   4   9   52.79    3.40
   2   4   9   41.90    2.80
   3  -4   9  166.18    8.50
  -3  -4  -9  177.28    9.10
  -3  -4  -9  155.58    9.40
   3   4   9  151.48    8.50
   3   4   9  162.88    8.80
   3   4   9  150.38    9.20
   3   4   9  157.68    8.70
   4  -4   9   30.50    2.60
  -4  -4  -9   32.00    3.30
  -4  -4  -9   32.30    2.90
   4   4   9   30.80    3.10
   4   4   9   32.40    2.70
   4   4   9   32.50    2.50
  -5  -4  -9    8.80    1.80
   5  -4   9    7.70    1.50
  -5  -4  -9    8.20    2.10
   5   4   9    8.70    1.70
   5   4   9    9.80    1.90
   5   4   9    6.10    1.40
   5  -5  -9    7.80    1.20
   5   5  -9    9.30    2.20
   5   5  -9    8.70    1.90
   5   5  -9   10.30    2.40
  -5   5   9    8.30    1.60
   4  -5  -9   21.50    1.90
   4   5  -9   20.50    2.50
   4   5  -9   22.60    3.00
  -4   5   9   17.70    1.90
  -4   5   9   22.80    2.50
   4   5  -9   16.90    2.70
   3  -5  -9   30.00    2.00
  -3   5   9   30.20    2.70
   3   5  -9   29.30    2.90
   3   5  -9   32.00    2.70
  -3   5   9   25.10    2.20
   3   5  -9   29.80    3.00
  -2  -5   9  459.05   25.30
   2  -5  -9  507.55   24.60
  -2   5   9  502.15   25.30
   2   5  -9  539.15   25.60
   2   5  -9  499.75   25.20
  -2   5   9  505.95   24.90
  -1  -5   9   13.40    1.60
   1  -5  -9   18.30    1.90
  -1  -5   9   13.10    1.50
  -1   5   9   17.10    1.60
   1   5  -9   14.50    1.70
  -1   5   9   15.40    2.10
  -1   5   9   13.90    1.80
   1   5  -9   18.00    1.80
   0  -5   9    4.30    0.80
   0  -5  -9    4.40    1.10
   0  -5   9    4.50    0.80
   0  -5  -9    3.40    1.20
   0  -5   9    3.50    0.80
   0   5  -9    1.80    0.70
   0   5   9    4.40    1.10
   0   5  -9    4.30    0.90
   0   5   9    4.10    1.30
   0   5   9    3.30    0.80
   0   5   9    3.50    0.70
   1  -5   9   -0.50    0.40
  -1  -5  -9   -0.40    0.70
  -1  -5  -9   -0.10    0.90
   1  -5   9    0.10    0.30
   1  -5   9    0.70    0.40
   1   5   9   -0.80    0.80
   1   5   9    1.00    1.00
   1   5   9    0.70    0.50
   1   5   9    0.10    0.60
   1   5   9    0.90    0.80
  -1   5  -9   -0.10    0.40
  -2  -5  -9    7.00    1.70
  -2  -5  -9    5.20    1.30
   2  -5   9    5.80    0.90
   2   5   9    4.70    1.50
   2   5   9    4.10    1.20
   2   5   9    3.00    0.80
   2   5   9    3.50    1.40
   2   5   9    5.50    1.10
   3  -5   9   20.60    2.00
  -3  -5  -9   24.70    3.10
  -3  -5  -9   20.00    2.50
   3   5   9   20.20    2.10
   3   5   9   21.30    2.50
   3   5   9   23.40    2.00
   3   5   9   19.30    2.70
  -4  -5  -9    0.80    1.20
   4  -5   9   -1.10    0.70
  -4  -5  -9    0.30    1.00
   4   5   9   -0.90    0.80
   4   5   9    0.40    1.10
   4  -6  -9    5.70    1.00
   4   6  -9    2.70    1.60
   4   6  -9    5.20    1.50
  -4   6   9    3.30    1.20
   4   6  -9    4.00    1.60
   3  -6  -9    0.90    0.70
   3   6  -9    2.10    1.20
  -3   6   9    1.60    0.80
  -3   6   9    2.40    1.00
   3   6  -9    1.60    1.10
  -2   6   9    1.10    1.00
   2   6  -9    1.00    0.90
  -2   6   9    2.00    0.70
   2   6  -9    1.50    1.00
  -2   6   9    1.00    1.00
  -1  -6   9    4.50    1.00
  -1   6   9    3.90    0.90
   1   6  -9    3.40    1.10
  -1   6   9    4.10    1.30
  -1   6   9    4.40    1.20
   1   6  -9    3.20    1.00
   0  -6  -9   29.50    2.60
   0  -6   9   27.50    2.20
   0  -6   9   30.50    2.30
   0  -6   9   29.50    2.20
   0   6  -9   33.50    2.30
   0   6   9   27.30    3.20
   0   6   9   33.20    2.80
   0   6   9   28.90    3.00
   0   6   9   28.30    2.20
   0   6  -9   32.80    2.40
  -1  -6  -9  191.58   11.10
   1  -6   9  215.88   10.50
   1  -6   9  208.38   10.50
   1   6   9  206.78   10.80
   1   6   9  217.18   11.90
   1   6   9  188.28   11.60
  -1   6  -9  205.48   10.40
   1   6   9  218.18   11.40
  -2  -6  -9    2.80    1.40
  -2  -6  -9    1.50    1.00
   2   6   9    2.70    1.40
   2   6   9    2.40    1.20
   2   6   9    3.30    1.40
   2   6   9    3.00    1.00
  -3  -6  -9    2.30    1.20
  -3  -6  -9    4.50    1.70
   3   6   9    2.90    1.10
   3   6   9    2.80    1.50
   3   6   9    3.10    1.30
  -4   7   9    4.80    1.40
  -3   7   9   40.90    3.40
   3   7  -9   39.50    3.50
   3   7  -9   37.00    3.60
   2   7  -9   80.99    5.50
   2   7  -9   82.99    5.40
  -2   7   9   87.49    5.50
  -1  -7   9   33.50    2.70
  -1   7   9   33.90    3.00
  -1   7   9   27.70    3.30
   1   7  -9   33.20    2.70
   1   7  -9   31.60    2.80
   0  -7   9    5.90    1.00
   0  -7   9    7.00    1.10
   0  -7   9    6.60    1.10
   0   7  -9    5.90    1.10
   0   7   9    6.80    1.50
   0   7   9    6.20    1.70
   0   7   9    5.70    1.60
   0   7  -9    5.60    1.10
   1  -7   9    5.70    0.80
   1  -7   9    4.80    0.80
   1   7   9    5.90    1.60
   1   7   9    5.50    1.60
   1   7   9    7.00    1.80
  -1   7  -9    5.00    0.80
  -2  -7  -9    4.50    1.40
   2   7   9    2.40    1.60
   2   7   9    5.50    1.50
   2   7   9    6.60    1.90
  -3  -7  -9   21.40    2.80
   3   7   9   19.10    2.70
   3   7   9   24.30    3.40
   2   8  -9   40.90    3.60
  -2   8   9   45.80    3.70
   2   8  -9   41.50    3.60
  -1  -8   9   10.30    1.70
   1   8  -9    8.50    1.70
  -1   8   9   10.80    2.00
   1   8  -9    8.00    1.60
  -1   8   9    8.70    2.00
   0  -8   9    3.60    0.90
   0  -8   9    5.30    1.10
   0  -8   9    3.80    0.70
   0   8  -9    3.50    1.00
   0   8   9    4.60    1.70
   0   8   9    4.40    1.50
   0   8   9    3.50    1.60
   1  -8   9    7.80    1.00
   1  -8   9    7.00    0.90
   1   8   9    7.70    2.10
   1   8   9    9.40    1.90
   1   8   9    7.40    2.10
  -6   0  10   35.20    3.90
   6   0 -10   27.60    2.30
  -6   0  10   20.10    2.60
   6   0 -10   30.00    3.40
   5   0 -10    0.50    0.80
   5   0 -10    0.10    1.00
  -5   0  10    0.30    0.80
  -5   0  10    0.20    1.00
   4   0 -10  140.29    7.70
   4   0 -10  135.09    8.10
   4   0 -10  138.29    8.10
  -4   0  10  130.19    7.70
  -4   0  10  145.59    8.20
  -3   0  10   -0.10    0.70
   3   0 -10    0.20    0.80
  -3   0  10   -0.10    0.60
   3   0 -10    0.10    0.70
   3   0 -10    0.10    0.60
   2   0 -10  262.17   13.20
  -2   0  10  250.07   12.60
   2   0 -10  237.48   13.10
  -2   0  10  244.48   12.80
   2   0 -10  252.77   12.90
  -1   0  10    0.20    0.40
   1   0 -10    0.30    0.60
   1   0 -10   -0.10    0.50
  -1   0  10    0.00    0.50
  -1   0  10    0.40    0.50
   1   0 -10    0.20    0.60
  -1   0  10    0.00    0.40
  -1   0  10    0.60    0.50
   0   0 -10 1242.58   57.69
   0   0  10 1237.98   57.79
   0   0  10 1151.28   57.39
   0   0  10 1190.18   57.69
   0   0  10 1156.18   57.39
   0   0  10 1153.48   57.39
   0   0  10 1127.69   57.59
   0   0 -10 1200.18   57.89
   1   0  10    0.30    0.50
  -1   0 -10   -0.10    0.50
   1   0  10    0.30    0.50
   1   0  10   -0.20    0.40
   1   0  10    0.60    0.50
   1   0  10    0.40    0.50
   1   0  10    0.30    0.50
  -1   0 -10    0.00    0.50
   2   0  10  138.29    7.00
  -2   0 -10  133.39    7.40
   2   0  10  129.89    7.10
   2   0  10  135.39    7.20
   2   0  10  137.89    7.30
  -2   0 -10  129.09    7.10
   2   0  10  125.69    7.10
  -3   0 -10   -0.30    0.60
   3   0  10    0.00    0.60
   3   0  10    0.10    0.70
  -3   0 -10   -0.50    0.60
   3   0  10   -0.50    0.60
   3   0  10    0.10    0.60
  -4   0 -10   -0.20    0.80
   4   0  10   -0.50    0.80
   4   0  10   -0.40    0.60
   4   0  10    1.40    0.90
  -4   0 -10    0.80    0.70
   5   0  10   -0.40    1.00
   5   0  10   -0.30    0.70
  -5   0 -10   -0.10    0.80
   5   0  10   -0.30    0.90
  -5   0 -10    1.40    0.90
  -6  -1  10    2.10    1.20
  -6  -1  10    3.90    1.70
   6  -1 -10    2.20    1.20
   6  -1 -10    1.50    0.80
   6   1 -10    3.60    1.60
  -6   1  10    2.60    1.20
  -6   1  10    1.80    1.30
  -5  -1  10   21.90    2.50
   5  -1 -10   26.50    2.80
  -5  -1  10   31.90    3.50
   5   1 -10   21.70    2.50
  -5   1  10   26.90    2.50
   5   1 -10   29.70    3.10
  -5   1  10   28.20    2.90
  -4  -1  10  132.79    7.30
   4  -1 -10  131.59    7.50
   4  -1 -10  115.49    9.20
  -4  -1  10  123.89    7.60
   4  -1 -10  132.79    7.20
   4   1 -10  125.19    7.20
   4   1 -10  119.29    7.60
   4   1 -10  129.09    7.70
  -4   1  10  125.09    7.20
  -3  -1  10    1.30    0.80
   3  -1 -10    2.00    1.00
   3  -1 -10    2.20    0.90
   3  -1 -10    0.50    0.70
  -3  -1  10    0.70    0.80
   3   1 -10    1.60    0.80
  -3   1  10    1.20    0.70
   3   1 -10    1.10    0.90
   3   1 -10    0.80    0.90
   2  -1 -10    1.20    0.90
  -2  -1  10    1.40    0.70
   2  -1 -10    0.30    0.60
  -2  -1  10    0.60    0.70
  -2  -1  10    1.00    0.60
   2  -1 -10    1.90    0.90
  -2  -1  10    1.40    0.60
   2   1 -10    1.00    0.60
   2   1 -10    1.10    0.80
   2   1 -10    0.40    0.70
  -2   1  10    0.60    0.60
  -2   1  10    1.30    0.60
  -1  -1  10   -0.20    0.50
  -1  -1  10    0.20    0.40
   1  -1 -10    0.10    0.60
  -1  -1  10    0.70    0.60
  -1  -1  10    0.10    0.40
  -1  -1  10    0.10    0.40
   1  -1 -10    0.50    0.50
  -1   1  10    0.80    0.60
   1   1 -10    0.50    0.60
   1   1 -10    0.50    0.60
   1   1 -10    0.00    0.50
  -1   1  10   -0.30    0.50
  -1   1  10   -0.10    0.50
   0  -1 -10   48.90    3.20
   0  -1  10   43.00    2.90
   0  -1 -10   45.50    2.90
   0  -1  10   47.00    2.80
   0  -1  10   44.90    2.90
   0  -1  10   47.70    2.70
   0  -1  10   42.20    2.60
   0  -1  10   45.00    2.60
   0   1 -10   47.20    3.10
   0   1  10   47.80    3.10
   0   1  10   40.40    3.20
   0   1 -10   44.50    3.00
   0   1 -10   40.90    2.80
   0   1  10   37.80    2.90
   0   1  10   44.20    2.70
   0   1  10   39.10    2.70
  -1  -1 -10  233.68   12.20
  -1  -1 -10  232.38   12.40
   1  -1  10  228.08   11.90
   1  -1  10  248.58   11.70
   1  -1  10  234.78   11.90
   1  -1  10  228.68   12.00
   1  -1  10  229.68   12.10
  -1   1 -10  233.48   12.20
   1   1  10  239.88   12.30
   1   1  10  234.88   12.00
   1   1  10  227.58   12.20
  -1   1 -10  233.68   12.00
   1   1  10  243.28   12.00
   1   1  10  249.38   12.30
   1   1  10  240.98   12.00
   2  -1  10  103.69    5.40
   2  -1  10   97.39    5.40
  -2  -1 -10   91.39    5.40
   2  -1  10   96.99    5.30
   2  -1  10  100.59    5.30
  -2  -1 -10  100.89    5.80
  -2   1 -10   89.59    5.40
   2   1  10   90.69    5.30
   2   1  10  101.99    5.50
   2   1  10   87.89    5.50
   2   1  10   94.29    5.40
  -2   1 -10   94.99    5.30
   3  -1  10  514.85   24.80
  -3  -1 -10  480.05   24.90
   3  -1  10  488.05   24.70
   3  -1  10  504.25   24.80
   3  -1  10  481.65   24.70
  -3  -1 -10  500.75   25.20
   3   1  10  517.55   24.70
  -3   1 -10  508.85   24.80
  -3   1 -10  482.25   24.60
   3   1  10  484.85   25.00
   3   1  10  511.65   24.80
   3   1  10  494.65   24.80
  -4  -1 -10   39.60    3.00
  -4  -1 -10   38.40    3.20
   4  -1  10   36.30    2.80
   4  -1  10   35.30    2.70
   4  -1  10   39.00    2.70
   4  -1  10   36.40    2.80
   4   1  10   34.80    2.80
  -4   1 -10   39.40    2.80
   4   1  10   39.10    3.00
   4   1  10   37.10    3.10
  -4   1 -10   39.50    2.80
  -5  -1 -10   27.00    2.70
  -5  -1 -10   22.80    2.80
   5  -1  10   17.80    2.20
   5  -1  10   19.70    2.20
   5  -1  10   21.60    2.10
   5   1  10   23.80    2.60
  -5   1 -10   24.90    2.30
  -5   1 -10   24.20    2.40
   5   1  10   16.30    2.10
  -6  -2  10   10.90    2.30
  -6  -2  10   14.50    2.20
   6  -2 -10   12.70    1.60
   6   2 -10   10.80    2.30
  -6   2  10   14.80    2.20
   5  -2 -10    5.00    1.00
  -5  -2  10    4.70    1.20
  -5  -2  10    5.50    1.70
   5   2 -10    4.80    1.60
  -5   2  10    4.00    1.20
   5   2 -10    4.70    1.50
   5   2 -10    3.60    1.20
   4  -2 -10  303.57   14.40
  -4  -2  10  292.27   14.60
  -4  -2  10  303.87   15.20
   4   2 -10  284.07   15.00
   4   2 -10  234.88   14.80
   4   2 -10  243.78   14.50
  -4   2  10  286.47   14.60
   3  -2 -10  155.98    8.40
  -3  -2  10  152.38    8.40
  -3  -2  10  132.69    7.80
   3  -2 -10  143.29    7.90
  -3   2  10  143.79    8.00
   3   2 -10  131.09    8.20
   3   2 -10  143.19    8.00
   3   2 -10  155.38    8.40
   2  -2 -10  183.28    9.70
  -2  -2  10  167.48    9.50
   2  -2 -10  168.58    9.30
  -2  -2  10  182.38    9.10
  -2  -2  10  189.28    9.50
  -2  -2  10  175.98    9.00
   2   2 -10  176.78    9.60
   2   2 -10  175.28    9.60
  -2   2  10  178.28    9.10
  -2   2  10  167.58    9.30
   2   2 -10  157.28    9.20
  -1  -2  10  162.08    8.30
  -1  -2  10  154.28    8.20
  -1  -2  10  131.39    8.40
  -1  -2  10  157.28    7.90
   1  -2 -10  154.18    8.60
   1  -2 -10  167.88    8.30
  -1  -2  10  155.08    7.90
   1   2 -10  154.38    8.40
   1   2 -10  157.98    8.40
   1   2 -10  147.59    8.10
  -1   2  10  163.38    8.10
  -1   2  10  144.99    8.20
   0  -2 -10  269.27   13.40
   0  -2  10  256.57   12.60
   0  -2 -10  260.87   13.10
   0  -2  10  249.68   12.70
   0  -2  10  252.07   12.70
   0  -2  10  257.17   13.00
   0  -2  10  243.38   12.90
   0  -2  10  241.68   13.10
   0   2  10  282.17   13.10
   0   2  10  248.78   12.70
   0   2  10  258.97   12.80
   0   2  10  238.38   13.20
   0   2 -10  255.17   12.80
   0   2 -10  247.78   13.00
   0   2 -10  238.68   13.00
  -1  -2 -10   33.50    2.40
   1  -2  10   30.30    2.10
  -1  -2 -10   26.90    2.50
   1  -2  10   31.70    2.10
   1  -2  10   29.80    2.00
   1  -2  10   31.40    2.10
  -1   2 -10   29.40    2.20
   1   2  10   30.60    2.30
   1   2  10   32.60    2.20
   1   2  10   32.10    2.50
   1   2  10   32.00    2.20
  -1   2 -10   28.60    2.00
  -2  -2 -10  129.89    7.50
   2  -2  10  131.39    6.80
   2  -2  10  133.59    6.90
   2  -2  10  129.19    6.90
   2  -2  10  125.59    6.90
  -2  -2 -10  117.59    7.10
   2   2  10  125.69    7.00
   2   2  10  135.29    7.00
   2   2  10  135.89    7.10
  -2   2 -10  130.79    6.90
  -2   2 -10  127.49    6.80
   2   2  10  129.59    7.30
   3  -2  10   31.00    2.10
  -3  -2 -10   31.50    2.50
   3  -2  10   29.90    2.30
   3  -2  10   28.30    2.30
  -3  -2 -10   29.40    2.80
   3  -2  10   30.70    2.10
  -3   2 -10   30.30    2.20
  -3   2 -10   30.60    2.10
   3   2  10   27.60    2.30
   3   2  10   27.80    2.40
   3   2  10   29.70    2.50
   4  -2  10   14.50    1.50
  -4  -2 -10   15.00    2.00
   4  -2  10   15.80    1.50
   4  -2  10   13.50    1.70
  -4  -2 -10   14.80    2.20
   4  -2  10   18.00    1.90
   4   2  10   12.90    1.90
   4   2  10   15.80    1.90
   4   2  10   17.50    1.90
  -4   2 -10   17.30    1.60
   5  -2  10    2.70    0.80
  -5  -2 -10    3.50    1.40
   5  -2  10    4.70    1.20
   5  -2  10    3.50    1.20
   5  -2  10    3.70    0.80
  -5  -2 -10    3.00    1.20
   5   2  10    2.60    1.20
   5   2  10    1.60    1.00
  -5   2 -10    4.10    1.00
  -6  -3  10  191.78   10.50
   6  -3 -10  183.38    9.70
   6   3 -10  168.28   10.40
   6   3 -10  193.88   11.20
  -6   3  10  181.28   10.40
  -5  -3  10  118.29    6.80
   5  -3 -10  106.29    6.10
   5   3 -10  114.69    7.40
  -5   3  10  106.89    6.70
   5   3 -10  115.19    7.40
   5   3 -10  109.69    6.80
   4  -3 -10   66.09    3.90
  -4  -3  10   65.79    4.40
   4   3 -10   59.69    4.80
   4   3 -10   68.09    5.10
  -4   3  10   81.79    4.70
   4   3 -10   72.89    4.60
   3  -3 -10  175.78    9.50
   3  -3 -10  170.18    9.10
  -3  -3  10  184.38    9.50
  -3   3  10  178.48    9.40
   3   3 -10  172.68   10.10
   3   3 -10  183.98   10.10
   3   3 -10  179.28    9.70
  -3   3  10  184.68    9.70
  -2  -3  10  338.57   17.30
   2  -3 -10  330.27   18.10
   2  -3 -10  377.16   17.80
  -2  -3  10  337.37   17.80
  -2  -3  10  332.77   17.50
   2   3 -10  341.57   18.00
  -2   3  10  348.27   17.80
  -2   3  10  342.57   17.50
   2   3 -10  378.96   17.80
   2   3 -10  368.06   18.10
   1  -3 -10    1.60    0.80
  -1  -3  10    0.70    0.50
  -1  -3  10    1.10    0.60
  -1  -3  10    0.90    0.50
   1  -3 -10    1.20    0.70
  -1  -3  10    0.70    0.60
   1   3 -10    0.80    0.60
  -1   3  10    0.80    0.80
   1   3 -10    1.10    0.80
  -1   3  10    0.50    0.70
   1   3 -10    1.00    0.70
  -1   3  10    1.00    0.60
   0  -3 -10    0.80    0.80
   0  -3  10    2.90    0.80
   0  -3  10    3.10    0.70
   0  -3 -10    2.10    0.80
   0  -3  10    2.50    0.60
   0  -3  10    2.30    0.60
   0  -3  10    1.90    0.50
   0   3  10    1.90    0.70
   0   3 -10    2.40    0.70
   0   3  10    2.70    1.00
   0   3 -10    2.50    0.70
   0   3  10    3.00    0.90
   0   3  10    2.10    0.60
  -1  -3 -10   38.50    3.10
  -1  -3 -10   43.00    2.90
   1  -3  10   36.30    2.50
   1  -3  10   38.20    2.40
   1  -3  10   41.00    2.50
   1  -3  10   36.50    2.40
   1   3  10   38.30    2.60
  -1   3 -10   37.40    2.50
  -1   3 -10   41.10    2.50
   1   3  10   37.60    2.80
   1   3  10   38.90    3.00
   1   3  10   38.50    2.50
  -2  -3 -10  131.79    7.80
   2  -3  10  143.29    7.30
   2  -3  10  138.29    7.40
   2  -3  10  143.99    7.30
   2  -3  10  140.69    7.50
  -2  -3 -10  145.99    8.30
  -2   3 -10  141.99    7.30
   2   3  10  131.79    8.00
   2   3  10  152.68    7.70
   2   3  10  147.79    7.80
   2   3  10  135.39    7.50
  -2   3 -10  138.99    7.30
   3  -3  10    5.30    0.80
   3  -3  10    5.10    0.80
   3  -3  10    6.70    1.10
  -3  -3 -10    5.20    1.50
  -3  -3 -10    7.10    1.40
   3  -3  10    5.50    1.00
   3   3  10    2.90    1.20
   3   3  10    6.90    1.10
  -3   3 -10    5.90    0.80
   3   3  10    7.80    1.30
   4  -3  10    7.10    1.30
   4  -3  10    6.10    0.80
  -4  -3 -10    6.50    1.70
  -4  -3 -10    6.50    1.50
   4  -3  10    8.20    0.90
   4  -3  10    8.20    1.30
   4   3  10    7.20    1.40
   4   3  10    7.60    1.50
   4   3  10    6.80    1.40
  -5  -3 -10   90.89    6.70
   5  -3  10  101.19    5.30
   5  -3  10   96.49    7.00
  -5  -3 -10  105.49    6.40
   5  -3  10  104.39    5.30
   5  -3  10   97.19    6.00
   5   3  10  101.39    6.20
   5   3  10   88.79    5.90
   5   3  10   97.29    6.10
  -5  -4  10  193.08   10.80
   5  -4 -10  198.38   10.20
  -5   4  10  204.58   11.00
   5   4 -10  199.78   11.10
   5   4 -10  190.18   11.60
   5   4 -10  193.88   11.50
   4  -4 -10  185.08    9.40
   4   4 -10  197.28   10.60
   4   4 -10  178.98   10.60
  -4   4  10  171.28   10.00
   4   4 -10  174.88   10.10
   3  -4 -10   73.59    4.10
   3   4 -10   69.29    5.00
  -3   4  10   76.49    4.40
  -3   4  10   75.39    4.80
   3   4 -10   74.99    4.80
   3   4 -10   77.09    5.20
  -2  -4  10    0.70    0.50
   2  -4 -10    0.30    0.70
   2  -4 -10    0.30    0.50
  -2  -4  10   -0.20    0.60
  -2   4  10    0.00    0.60
  -2   4  10    0.00    0.70
   2   4 -10   -0.80    0.70
   2   4 -10    0.70    0.70
   2   4 -10   -0.40    0.80
   1  -4 -10   85.19    4.80
  -1  -4  10   84.39    4.60
  -1  -4  10   82.59    4.90
   1  -4 -10   74.39    5.00
   1  -4 -10   73.49    4.00
  -1  -4  10   81.29    4.70
  -1  -4  10   78.69    4.30
  -1   4  10   73.79    4.40
  -1   4  10   73.89    5.00
  -1   4  10   71.79    4.70
   1   4 -10   73.79    4.50
   1   4 -10   68.49    4.60
   0  -4  10   55.29    3.30
   0  -4 -10   55.49    3.60
   0  -4  10   57.49    3.40
   0  -4  10   53.79    3.40
   0  -4 -10   51.89    3.90
   0  -4  10   51.19    3.10
   0   4  10   53.99    3.30
   0   4 -10   49.50    3.20
   0   4  10   49.99    3.60
   0   4  10   57.39    3.20
   0   4  10   51.39    3.90
   0   4 -10   54.69    3.40
  -1  -4 -10   90.49    4.90
  -1  -4 -10   80.89    5.20
   1  -4  10   73.89    4.20
   1  -4  10   74.29    4.20
   1  -4  10   75.39    4.20
   1   4  10   75.29    5.00
   1   4  10   73.99    4.70
  -1   4 -10   78.39    4.20
  -1   4 -10   76.09    4.20
   1   4  10   68.69    4.30
   1   4  10   69.49    4.40
   1   4  10   72.69    5.10
  -2  -4 -10    9.40    1.90
   2  -4  10    8.00    1.20
   2  -4  10    8.50    0.80
   2  -4  10   10.10    0.90
  -2  -4 -10    8.30    1.50
   2   4  10    7.80    1.60
   2   4  10    7.50    1.10
   2   4  10    6.90    1.40
   2   4  10   10.40    1.40
  -2   4 -10    9.20    0.80
  -3  -4 -10   10.00    2.00
   3  -4  10    8.90    1.30
  -3  -4 -10    9.20    1.70
   3   4  10   10.60    1.40
   3   4  10   10.20    1.90
   3   4  10    8.40    1.40
  -4  -4 -10   43.00    3.90
   4  -4  10   38.20    3.00
  -4  -4 -10   37.80    3.30
   4   4  10   41.70    3.60
   4   4  10   45.00    3.10
   4   4  10   36.90    3.10
   5  -5 -10   13.50    1.60
   5   5 -10   14.10    2.60
   5   5 -10   12.80    2.30
   5   5 -10   11.80    2.50
  -5   5  10   14.80    2.20
   4  -5 -10    6.70    1.00
   4   5 -10    6.10    1.70
   4   5 -10    6.70    2.00
  -4   5  10    6.80    1.20
  -4   5  10    5.80    1.40
   4   5 -10    8.70    1.70
   3  -5 -10   -0.50    0.50
   3   5 -10    0.20    0.90
  -3   5  10    1.20    0.80
   3   5 -10   -0.20    1.00
   3   5 -10    0.00    0.90
  -3   5  10    0.20    0.90
   2  -5 -10  330.87   16.50
  -2   5  10  331.47   16.90
   2   5 -10  343.57   17.30
  -2   5  10  320.47   17.30
   2   5 -10  346.27   17.50
  -1  -5  10  390.96   21.00
  -1  -5  10  439.36   21.40
   1  -5 -10  383.46   21.00
  -1  -5  10  443.06   21.10
   1   5 -10  413.66   21.20
  -1   5  10  425.16   21.30
  -1   5  10  415.86   20.80
   1   5 -10  431.26   21.00
  -1   5  10  408.16   21.60
   0  -5  10   39.00    2.60
   0  -5  10   38.50    2.70
   0  -5 -10   39.30    3.40
   0  -5  10   39.20    2.70
   0  -5 -10   38.80    2.90
   0   5  10   36.60    2.70
   0   5 -10   37.60    2.70
   0   5  10   39.80    3.00
   0   5  10   37.80    2.50
   0   5  10   37.40    3.30
   0   5 -10   40.20    2.70
   1  -5  10   12.90    1.10
  -1  -5 -10   15.20    2.00
   1  -5  10   13.10    1.20
   1  -5  10   12.80    1.40
  -1  -5 -10   11.90    2.10
  -1   5 -10   12.30    1.20
   1   5  10   10.40    1.90
   1   5  10   13.50    1.60
   1   5  10   14.50    2.20
   1   5  10    8.80    1.60
   1   5  10   12.10    1.30
  -2  -5 -10   12.50    2.20
   2  -5  10   12.40    1.50
  -2  -5 -10   12.70    1.90
   2  -5  10   13.70    0.90
   2  -5  10   15.60    1.00
   2   5  10   12.90    1.70
   2   5  10   17.10    2.20
   2   5  10   15.70    2.40
   2   5  10   13.20    1.50
  -3  -5 -10   13.20    2.10
   3  -5  10   15.80    1.80
  -3  -5 -10   18.00    2.70
   3   5  10   18.00    1.80
   3   5  10   16.90    2.00
   3   5  10   18.00    2.60
  -4  -5 -10   -0.70    0.90
   4  -5  10    1.00    0.90
  -4  -5 -10   -0.70    1.10
   4   5  10   -0.70    0.80
   4   5  10    0.40    1.20
   4  -6 -10    1.00    0.70
  -4   6  10    1.20    1.00
  -4   6  10   -0.80    0.70
   4   6 -10    0.00    1.50
   4   6 -10    0.70    1.20
   4   6 -10   -1.10    0.90
   3  -6 -10    0.50    0.60
  -3   6  10   -0.50    0.70
   3   6 -10    0.10    0.90
  -3   6  10    0.50    0.90
   3   6 -10    0.10    1.00
  -2   6  10    2.10    0.80
   2   6 -10    1.70    1.00
  -2   6  10    3.00    1.20
   2   6 -10    2.50    1.10
  -2   6  10    0.80    1.20
  -1  -6  10  102.79    6.10
  -1  -6  10  100.79    6.30
   1   6 -10  102.49    6.00
   1   6 -10  104.59    6.20
  -1   6  10  116.89    6.90
  -1   6  10   99.69    5.80
  -1   6  10  104.69    6.40
   0  -6  10    6.10    1.00
   0  -6  10    5.70    1.00
   0  -6 -10    4.10    1.20
   0  -6  10    5.20    1.00
   0   6  10    2.80    0.90
   0   6  10    7.00    1.80
   0   6  10    4.40    1.30
   0   6  10    4.60    1.50
   0   6 -10    4.40    1.00
   0   6 -10    4.20    1.00
  -1  -6 -10   38.60    3.10
   1  -6  10   41.40    2.40
   1  -6  10   37.10    2.30
   1   6  10   38.50    2.70
   1   6  10   32.10    3.40
   1   6  10   35.10    3.20
  -1   6 -10   35.50    2.30
   1   6  10   35.60    3.50
  -2  -6 -10   38.20    3.70
  -2  -6 -10   33.40    3.10
   2   6  10   38.20    3.60
   2   6  10   51.09    5.40
   2   6  10   30.50    3.10
   2   6  10   36.30    2.80
  -3  -6 -10   65.69    5.20
  -3  -6 -10   57.69    4.50
   3   6  10   68.49    5.20
   3   6  10   63.79    4.60
   3   6  10   60.09    4.10
   3   7 -10    1.80    1.30
  -3   7  10    1.50    1.20
   3   7 -10    2.80    1.40
   2   7 -10   14.80    2.10
   2   7 -10    7.20    1.60
  -2   7  10   13.40    2.00
  -1  -7  10  392.46   19.60
   1   7 -10  395.06   19.60
   1   7 -10  380.56   19.70
  -1   7  10  366.76   19.90
  -1   7  10  371.46   20.30
   0  -7  10    6.50    1.10
   0  -7  10    4.70    0.90
   0  -7  10    6.30    1.00
   0   7  10    6.80    1.80
   0   7 -10    5.20    1.10
   0   7  10    8.50    1.80
   0   7  10    5.90    1.80
   1  -7  10    0.70    0.50
   1  -7  10   -0.10    0.40
   1   7  10    0.90    1.20
   1   7  10    0.50    1.10
   1   7  10    0.50    1.00
  -2  -7 -10    3.80    1.40
   2   7  10    5.40    1.50
   2   7  10    5.70    1.80
   2   7  10    3.90    1.70
  -1  -8  10   23.40    2.40
  -1  -8  10   26.60    2.50
  -1   8  10   26.90    3.20
  -1   8  10   28.80    3.60
   1   8 -10   28.60    2.90
   1   8 -10   25.50    2.60
   0  -8  10  181.88    9.30
   0  -8  10  178.08    9.80
   0  -8  10  191.98    9.90
   0   8  10  183.78   10.70
   0   8 -10  183.78    9.90
   0   8  10  187.98   11.20
   0   8  10  185.88   11.10
   6   0 -11   -0.50    1.20
  -6   0  11   -0.30    1.10
  -6   0  11    0.50    1.00
   5   0 -11   67.39    4.70
  -5   0  11   76.09    5.40
  -5   0  11   77.19    4.90
   5   0 -11   72.99    5.30
   4   0 -11    0.30    1.00
  -4   0  11   -0.70    0.60
   4   0 -11   -0.50    1.00
   4   0 -11    0.40    0.80
  -4   0  11    0.20    0.90
   3   0 -11   56.19    4.00
   3   0 -11   53.49    4.00
  -3   0  11   50.09    3.50
   3   0 -11   56.29    3.70
  -2   0  11   -0.90    0.50
  -2   0  11    0.00    0.60
   2   0 -11    0.40    0.60
   2   0 -11    0.00    0.60
   2   0 -11    0.00    0.80
   1   0 -11  478.45   25.80
  -1   0  11  508.75   26.00
   1   0 -11  574.64   26.20
  -1   0  11  516.35   25.60
   1   0 -11  524.05   26.10
  -1   0  11  513.05   25.70
   0   0  11    0.00    0.40
   0   0  11    0.00    0.40
   0   0 -11    0.20    0.60
   0   0  11    0.60    0.60
   0   0  11    0.50    0.60
   0   0  11    0.00    0.50
   0   0  11    0.20    0.50
   0   0 -11    0.70    0.60
  -1   0 -11 1095.59   54.69
   1   0  11 1142.59   54.39
   1   0  11  998.20   54.49
   1   0  11 1096.29   54.39
   1   0  11 1175.38   54.69
  -1   0 -11 1155.98   54.49
   1   0  11 1146.49   54.39
   2   0  11   -0.10    0.50
   2   0  11    0.00    0.50
   2   0  11    0.30    0.50
   2   0  11    1.40    0.70
  -2   0 -11    0.10    0.50
  -2   0 -11    0.20    0.70
   2   0  11    0.60    0.70
   3   0  11  807.32   40.40
  -3   0 -11  812.82   40.40
  -3   0 -11  854.11   40.70
   3   0  11  793.62   40.50
   3   0  11  833.22   40.40
   4   0  11    0.00    0.70
  -4   0 -11    0.40    0.80
   4   0  11   -0.70    0.60
   4   0  11    0.00    0.80
  -4   0 -11   -0.70    0.60
   5   0  11   22.10    2.40
  -5   0 -11   22.10    2.60
   5   0  11   21.00    2.30
  -5   0 -11   19.00    2.30
   5   0  11   18.30    2.20
   6  -1 -11    8.00    1.30
   6  -1 -11   10.90    2.00
  -6  -1  11   10.00    2.30
  -6  -1  11    5.50    1.50
  -6   1  11    9.70    2.10
   6   1 -11    6.70    1.90
  -6   1  11    8.40    1.70
   5  -1 -11    6.70    1.70
  -5  -1  11   10.10    2.00
  -5  -1  11    6.30    1.40
  -5   1  11    8.10    1.90
   5   1 -11    4.30    1.60
   5   1 -11    5.10    1.30
  -5   1  11    6.10    1.40
  -4  -1  11    0.90    0.90
   4  -1 -11   -0.40    0.90
  -4  -1  11   -0.20    0.70
   4  -1 -11    0.00    0.70
   4   1 -11    0.40    1.00
   4   1 -11    1.00    1.20
  -4   1  11    0.10    0.70
   4   1 -11    0.00    0.80
   3  -1 -11    6.70    1.30
   3  -1 -11    8.60    1.60
   3  -1 -11   12.80    1.90
  -3  -1  11   10.20    1.50
  -3  -1  11   12.10    1.80
   3   1 -11   10.90    1.80
   3   1 -11    8.60    1.60
  -3   1  11   11.00    1.50
   3   1 -11   11.70    1.60
   2  -1 -11  330.47   19.50
  -2  -1  11  371.16   19.00
  -2  -1  11  397.76   19.20
   2  -1 -11  375.66   19.30
   2  -1 -11  379.26   19.60
   2   1 -11  363.56   19.60
   2   1 -11  397.66   19.30
   2   1 -11  411.06   19.70
  -2   1  11  389.36   19.10
  -2   1  11  392.16   19.30
  -1  -1  11   43.00    3.20
  -1  -1  11   39.40    2.50
   1  -1 -11   40.30    2.80
   1  -1 -11   41.40    3.00
  -1  -1  11   37.00    2.50
  -1  -1  11   31.40    2.70
  -1   1  11   39.80    2.60
  -1   1  11   41.30    2.70
   1   1 -11   33.40    2.80
   1   1 -11   36.00    2.70
   1   1 -11   45.30    3.00
   0  -1  11  113.69    6.00
   0  -1 -11  114.39    6.40
   0  -1  11  106.89    5.90
   0  -1  11  107.69    6.10
   0  -1  11  106.19    5.80
   0  -1 -11  110.39    6.10
   0   1  11  101.29    5.90
   0   1  11   99.89    5.90
   0   1  11  105.19    6.00
   0   1 -11  107.99    6.00
   0   1  11  111.39    6.30
   0   1  11  118.79    6.30
   0   1 -11  116.99    6.30
   0   1 -11  109.99    6.20
   1  -1  11    0.90    0.50
  -1  -1 -11    0.70    0.70
  -1  -1 -11    0.60    0.70
   1  -1  11    0.80    0.50
   1  -1  11    0.60    0.40
   1  -1  11    0.80    0.60
   1  -1  11    0.80    0.60
  -1   1 -11    0.80    0.60
   1   1  11    1.20    0.60
   1   1  11    0.70    0.60
  -1   1 -11    0.40    0.60
   1   1  11    0.60    0.60
   1   1  11    1.20    0.70
   1   1  11    0.80    0.70
   2  -1  11  185.68    9.60
  -2  -1 -11  183.08   10.10
   2  -1  11  183.98    9.60
   2  -1  11  193.38    9.70
  -2  -1 -11  185.68    9.80
   2  -1  11  190.48    9.70
   2   1  11  182.08    9.90
   2   1  11  188.38    9.70
  -2   1 -11  174.98    9.70
   2   1  11  184.78    9.60
   2   1  11  180.88    9.70
  -2   1 -11  176.58    9.60
   3  -1  11   10.10    1.50
   3  -1  11    6.60    1.20
   3  -1  11    8.10    1.20
  -3  -1 -11    8.20    1.60
  -3  -1 -11    9.60    1.50
   3  -1  11   10.00    1.30
   3   1  11    8.90    1.30
  -3   1 -11    9.80    1.30
  -3   1 -11    9.50    1.40
   3   1  11    9.20    1.50
   3   1  11    8.50    1.40
   3   1  11   10.80    1.30
  -4  -1 -11    2.00    1.10
   4  -1  11    2.50    0.90
   4  -1  11    1.90    0.80
  -4  -1 -11    1.50    0.90
   4  -1  11    1.90    0.80
   4  -1  11    0.50    0.90
   4   1  11    0.90    1.00
  -4   1 -11    1.20    0.80
   4   1  11    0.70    0.90
  -4   1 -11    2.30    0.90
  -5  -1 -11   18.80    2.50
   5  -1  11   13.80    1.80
  -5  -1 -11   14.00    2.10
   5  -1  11   17.80    2.10
   5  -1  11   17.20    2.20
  -5   1 -11   13.40    1.80
  -5   1 -11   11.30    2.50
   5   1  11   16.40    2.20
   5   1  11   13.70    2.00
   6  -2 -11   70.09    4.20
  -6  -2  11   67.59    5.50
  -6  -2  11   71.49    4.90
   6   2 -11   62.49    5.40
  -6   2  11   65.39    4.80
   6   2 -11   65.89    5.70
  -5  -2  11   25.60    3.20
  -5  -2  11   30.70    2.70
  -5   2  11   28.30    2.70
   5   2 -11   24.40    3.10
   5   2 -11   32.90    3.40
   5   2 -11   30.50    3.10
  -4  -2  11   27.80    2.80
  -4  -2  11   26.10    2.30
   4  -2 -11   23.00    2.20
   4   2 -11   27.20    2.50
  -4   2  11   25.00    2.40
   4   2 -11   21.50    2.70
   3  -2 -11    1.70    0.90
   3  -2 -11    1.50    1.00
  -3  -2  11    1.40    0.80
   3   2 -11    1.70    1.00
   3   2 -11    2.10    1.20
  -3   2  11    1.10    0.70
  -3   2  11    1.30    0.90
   3   2 -11    2.30    1.00
  -2  -2  11  398.86   20.10
   2  -2 -11  424.86   20.90
  -2  -2  11  399.76   20.20
   2  -2 -11  404.76   20.40
   2   2 -11  423.46   20.80
   2   2 -11  402.46   20.40
  -2   2  11  399.16   20.20
  -2   2  11  373.16   20.40
   2   2 -11  413.46   20.80
   1  -2 -11    7.70    1.40
  -1  -2  11   14.70    1.70
  -1  -2  11   11.50    1.20
  -1  -2  11   15.00    2.00
  -1  -2  11    6.20    1.10
   1  -2 -11    8.70    1.30
   1   2 -11    9.90    1.30
   1   2 -11   11.50    1.70
   1   2 -11   10.70    1.50
  -1   2  11   11.70    1.30
  -1   2  11   15.10    1.70
   0  -2 -11  340.97   18.60
   0  -2 -11  392.26   19.10
   0  -2  11  377.36   18.60
   0  -2  11  366.86   18.30
   0  -2  11  384.76   18.60
   0  -2  11  375.96   18.30
   0  -2  11  383.96   18.20
   0   2  11  355.46   18.90
   0   2 -11  355.96   18.50
   0   2 -11  381.46   18.70
   0   2  11  367.86   18.40
   0   2  11  361.46   18.40
   0   2  11  347.17   18.60
   1  -2  11   19.10    1.60
   1  -2  11   20.40    1.60
  -1  -2 -11   20.10    2.30
   1  -2  11   17.00    1.60
  -1  -2 -11   19.60    2.10
   1  -2  11   19.20    1.70
   1   2  11   19.10    2.00
  -1   2 -11   18.60    1.60
   1   2  11   13.30    1.60
   1   2  11   17.10    1.70
   1   2  11   19.00    1.80
  -1   2 -11   22.90    1.80
   2  -2  11  233.58   12.10
   2  -2  11  238.78   12.00
  -2  -2 -11  257.37   12.80
   2  -2  11  226.98   12.00
  -2  -2 -11  212.78   12.30
   2  -2  11  235.08   12.00
   2   2  11  247.88   12.10
  -2   2 -11  235.78   12.10
   2   2  11  230.88   12.40
   2   2  11  240.08   12.20
  -2   2 -11  229.98   11.90
   3  -2  11   46.50    3.20
   3  -2  11   50.09    3.10
  -3  -2 -11   50.39    3.80
   3  -2  11   49.40    3.00
   3  -2  11   47.20    3.10
  -3  -2 -11   50.59    3.50
  -3   2 -11   47.00    3.10
  -3   2 -11   45.20    3.00
   3   2  11   42.90    3.10
   3   2  11   50.89    3.50
   3   2  11   45.20    3.30
   4  -2  11  156.18    8.60
  -4  -2 -11  165.58    9.40
   4  -2  11  160.88    8.70
   4  -2  11  152.08    8.40
   4  -2  11  157.38    8.40
  -4  -2 -11  170.08    9.00
   4   2  11  160.68    8.70
  -4   2 -11  152.48    8.40
   4   2  11  163.08    8.90
   4   2  11  149.09    8.60
  -5  -2 -11   13.90    2.10
   5  -2  11   14.50    2.00
  -5  -2 -11   17.50    2.60
   5  -2  11   18.90    2.20
   5  -2  11   15.30    1.70
   5  -2  11   17.70    1.70
   5   2  11   13.60    2.00
   5   2  11   14.10    2.00
  -5   2 -11   15.90    1.80
   5  -3 -11    0.70    0.80
  -5  -3  11    2.10    1.10
   5   3 -11    3.00    1.30
  -5   3  11    1.40    1.10
   5   3 -11    2.40    1.40
   5   3 -11    1.70    1.40
   4  -3 -11   31.10    2.20
  -4  -3  11   30.30    2.60
  -4   3  11   29.80    2.70
   4   3 -11   32.40    2.90
   4   3 -11   37.90    3.50
   4   3 -11   26.80    3.20
  -3  -3  11   65.59    4.20
   3  -3 -11   70.99    4.40
  -3   3  11   64.49    4.20
   3   3 -11   75.09    4.90
  -3   3  11   69.99    4.50
   3   3 -11   70.59    5.00
   3   3 -11   73.69    4.50
  -2  -3  11  423.36   20.00
   2  -3 -11  380.36   20.40
   2  -3 -11  379.76   20.80
  -2   3  11  406.26   20.20
   2   3 -11  403.66   20.40
   2   3 -11  441.16   20.80
   2   3 -11  370.36   20.70
  -2   3  11  419.96   20.50
   1  -3 -11    3.20    0.90
  -1  -3  11    3.90    0.70
  -1  -3  11    4.20    1.10
  -1  -3  11    4.90    1.00
   1  -3 -11    6.70    1.50
  -1  -3  11    5.30    1.00
   1   3 -11    4.60    1.10
   1   3 -11    4.10    0.90
  -1   3  11    4.20    1.20
  -1   3  11    2.80    0.90
  -1   3  11    4.00    0.90
   0  -3  11    4.00    0.80
   0  -3  11    7.10    0.90
   0  -3 -11    4.90    1.20
   0  -3  11    6.00    1.00
   0  -3  11    7.50    1.20
   0  -3 -11    8.40    1.40
   0  -3  11    5.50    0.90
   0   3 -11    7.40    1.10
   0   3 -11    6.20    1.00
   0   3  11    5.80    1.00
   0   3  11    6.60    1.40
   0   3  11    5.80    1.10
   0   3  11    5.70    0.90
   1  -3  11   12.60    1.30
  -1  -3 -11   11.10    1.90
   1  -3  11   13.20    1.40
   1  -3  11   14.40    1.50
   1  -3  11   10.50    1.30
  -1  -3 -11   14.60    1.80
   1   3  11   14.50    2.00
   1   3  11   10.90    1.40
   1   3  11   15.20    1.80
  -1   3 -11   12.00    1.40
  -1   3 -11   11.90    1.30
   1   3  11   10.00    1.30
  -2  -3 -11   51.99    3.90
   2  -3  11   49.20    3.00
   2  -3  11   52.29    3.20
   2  -3  11   51.99    3.00
  -2  -3 -11   55.69    3.60
   2  -3  11   50.99    3.10
  -2   3 -11   47.40    2.90
   2   3  11   46.00    3.30
  -2   3 -11   47.10    3.00
   2   3  11   46.50    3.30
   2   3  11   47.60    3.20
   2   3  11   47.70    3.60
   3  -3  11    3.60    0.90
  -3  -3 -11    7.30    1.50
   3  -3  11    6.50    0.90
   3  -3  11    5.10    0.80
   3  -3  11    7.00    1.20
  -3  -3 -11    5.40    1.50
  -3   3 -11    5.90    0.80
   3   3  11    3.50    1.00
   3   3  11    4.20    1.10
   3   3  11    6.20    1.40
   4  -3  11   26.30    1.80
   4  -3  11   28.50    2.30
   4  -3  11   29.10    2.60
   4  -3  11   26.30    1.80
  -4  -3 -11   25.90    3.20
  -4  -3 -11   28.40    3.00
   4   3  11   21.20    2.40
   4   3  11   21.90    2.30
   4   3  11   24.60    2.60
   5  -4 -11   21.30    2.00
   5   4 -11   26.40    3.40
  -5   4  11   23.00    2.80
   5   4 -11   30.10    3.70
   5   4 -11   24.80    2.90
   4  -4 -11    0.30    0.70
   4   4 -11   -0.10    1.20
   4   4 -11   -0.70    0.90
  -4   4  11    0.40    0.90
   4   4 -11    1.10    1.00
  -4   4  11    1.20    0.80
   3  -4 -11   97.79    5.20
  -3   4  11   92.49    5.60
   3   4 -11   78.39    6.10
   3   4 -11  113.59    6.40
  -3   4  11  100.19    6.00
   3   4 -11  102.99    6.00
   2  -4 -11   46.70    3.20
  -2  -4  11   44.80    2.80
   2  -4 -11   45.00    2.60
   2   4 -11   47.40    3.50
  -2   4  11   40.60    2.90
   2   4 -11   42.90    3.20
  -2   4  11   49.99    3.40
   1  -4 -11  223.68   11.90
  -1  -4  11  173.68   11.70
  -1  -4  11  233.68   11.50
   1  -4 -11  215.38   11.50
  -1  -4  11  232.38   11.80
  -1   4  11  222.18   11.20
  -1   4  11  195.38   11.40
   1   4 -11  214.88   11.30
   1   4 -11  223.98   11.60
  -1   4  11  219.88   11.90
   0  -4 -11   19.20    2.50
   0  -4 -11   24.60    2.30
   0  -4  11   24.00    2.00
   0  -4  11   23.00    1.90
   0  -4  11   26.50    2.10
   0  -4  11   26.70    1.90
   0   4  11   19.30    2.50
   0   4  11   29.60    2.40
   0   4  11   23.00    1.80
   0   4 -11   22.30    1.90
   0   4  11   22.80    1.90
   0   4 -11   26.90    2.10
   1  -4  11    0.80    0.50
  -1  -4 -11    0.10    0.70
   1  -4  11    1.40    0.50
  -1  -4 -11    0.70    0.90
   1  -4  11    0.30    0.60
   1   4  11    0.90    0.80
   1   4  11    1.10    1.10
  -1   4 -11    1.30    0.60
   1   4  11    1.30    1.00
   1   4  11    1.00    0.80
  -1   4 -11    1.10    0.60
   1   4  11    0.40    0.60
  -2  -4 -11   55.39    4.00
   2  -4  11   56.49    3.20
  -2  -4 -11   62.29    4.50
   2  -4  11   57.89    3.20
   2  -4  11   55.99    3.50
   2   4  11   55.29    3.50
   2   4  11   56.59    3.70
  -2   4 -11   57.79    3.20
   2   4  11   55.69    3.90
   2   4  11   53.79    4.20
   3  -4  11    6.90    1.20
  -3  -4 -11    6.60    1.40
  -3  -4 -11    7.00    1.80
   3  -4  11    5.50    0.60
   3  -4  11    5.30    0.60
   3   4  11    4.50    1.10
   3   4  11    6.00    1.30
   3   4  11    7.20    1.60
   4  -4  11    4.00    1.10
  -4  -4 -11    6.10    1.90
  -4  -4 -11    4.60    1.40
   4   4  11    3.00    1.20
   4   4  11    3.60    1.20
   4   4  11    5.60    1.50
   5  -5 -11   -1.10    0.70
  -5   5  11    0.20    1.00
   5   5 -11   -0.80    1.20
  -5   5  11    0.70    0.90
   5   5 -11   -0.90    1.40
   5   5 -11    0.50    1.20
   4  -5 -11   23.40    2.00
   4   5 -11   26.00    3.20
  -4   5  11   26.30    2.50
   4   5 -11   26.30    2.90
  -4   5  11   23.10    2.80
   3  -5 -11   34.30    2.30
  -3   5  11   38.30    3.00
  -3   5  11   35.30    2.60
   3   5 -11   30.30    3.00
   3   5 -11   32.50    3.20
   2   5 -11    2.70    1.10
  -2   5  11    2.30    1.30
  -2   5  11    3.00    0.90
   2   5 -11    2.20    1.00
  -2   5  11    2.10    1.00
   1  -5 -11    2.40    1.00
  -1  -5  11    1.70    0.70
  -1  -5  11    1.60    0.80
  -1   5  11    0.10    1.00
  -1   5  11    1.30    0.70
  -1   5  11    3.10    1.10
   1   5 -11    2.10    0.90
   1   5 -11    2.20    0.90
   0  -5  11   45.60    3.00
   0  -5 -11   47.50    3.90
   0  -5  11   50.89    3.20
   0  -5 -11   50.29    3.50
   0  -5  11   46.10    3.10
   0   5  11   45.10    3.50
   0   5  11   46.00    3.90
   0   5 -11   47.40    3.10
   0   5  11   47.90    3.00
   0   5 -11   44.70    3.10
   0   5  11   44.10    3.10
  -1  -5 -11    1.70    1.10
  -1  -5 -11    3.70    1.50
   1  -5  11    3.40    0.70
   1  -5  11    2.90    0.60
  -1   5 -11    2.50    0.70
   1   5  11    2.30    0.80
   1   5  11    3.40    1.30
   1   5  11    1.90    1.00
   1   5  11    2.80    0.90
   1   5  11    2.70    1.30
  -2  -5 -11    3.20    1.40
   2  -5  11    2.30    0.40
  -2  -5 -11    1.30    1.10
   2  -5  11    2.70    0.90
   2  -5  11    2.70    0.50
   2   5  11    1.90    0.90
   2   5  11    1.80    1.30
   2   5  11    3.40    1.20
   2   5  11    1.80    0.80
   3  -5  11    2.70    1.00
  -3  -5 -11    4.60    1.70
  -3  -5 -11    2.50    1.20
   3   5  11    3.30    1.20
   3   5  11    4.30    1.60
   3   5  11    2.70    1.00
   4  -6 -11   54.19    3.30
  -4   6  11   47.90    4.00
   4   6 -11   52.29    4.20
   4   6 -11   51.29    4.50
  -4   6  11   50.79    3.60
  -3   6  11    4.50    1.10
  -3   6  11    4.40    1.40
   3   6 -11    4.30    1.40
   3   6 -11    7.30    1.80
  -2   6  11    1.20    1.20
   2   6 -11    0.90    1.00
  -2   6  11    0.80    1.00
  -2   6  11    0.20    0.70
   2   6 -11    0.50    0.90
  -1  -6  11   17.70    2.00
  -1  -6  11   15.90    1.90
  -1   6  11   14.10    2.00
   1   6 -11   14.00    1.90
  -1   6  11   16.10    2.50
  -1   6  11   16.70    1.80
   1   6 -11   19.20    2.10
   0  -6  11    6.20    1.00
   0  -6  11    7.10    1.10
   0  -6 -11   11.10    1.80
   0  -6  11    6.50    1.10
   0   6  11    9.20    2.00
   0   6  11    7.00    1.20
   0   6  11    7.00    1.50
   0   6 -11    7.70    1.30
   0   6 -11    7.50    1.20
   0   6  11    5.60    1.60
  -1  -6 -11  145.69    8.40
   1  -6  11  146.29    7.60
   1  -6  11  145.89    7.60
   1   6  11  149.39    9.00
   1   6  11  145.09    7.90
   1   6  11  129.69    8.30
  -1   6 -11  141.29    7.50
   1   6  11  157.18    9.00
  -2  -6 -11   44.00    3.50
  -2  -6 -11   36.00    3.80
   2   6  11   32.70    3.70
   2   6  11   46.10    3.10
   2   6  11   46.70    3.60
  -3  -6 -11   11.60    2.50
  -3  -6 -11    8.50    1.80
   3   6  11   10.40    1.70
   3   6  11    9.40    2.30
   3   7 -11   42.70    3.60
   3   7 -11   37.10    3.70
  -3   7  11   39.90    3.60
   2   7 -11    6.30    1.60
  -2   7  11    7.90    1.70
   2   7 -11    7.60    1.70
  -1  -7  11   31.10    2.70
  -1  -7  11   27.40    2.60
  -1   7  11   33.90    3.50
   1   7 -11   30.20    2.70
   1   7 -11   30.40    2.80
  -1   7  11   31.50    3.40
   0  -7  11    0.30    0.60
   0  -7  11    0.80    0.50
   0  -7  11    1.20    0.70
   0   7  11    0.70    1.20
   0   7 -11    0.90    0.70
   0   7  11    0.90    1.00
   0   7  11    1.50    1.30
   1  -7  11    3.50    0.70
   1  -7  11    4.00    0.80
   1   7  11    3.30    1.40
   1   7  11    5.10    1.70
   1   7  11    3.10    1.50
  -2  -7 -11    3.20    1.40
   2   7  11    2.20    1.40
   2   7  11    3.30    1.70
   2   7  11    2.50    1.10
   6   0 -12    2.30    1.50
  -6   0  12    1.60    1.10
  -6   0  12    2.20    1.50
   5   0 -12    0.50    1.30
  -5   0  12    0.00    0.90
  -5   0  12   -1.40    1.00
   5   0 -12    0.00    0.90
   4   0 -12   38.90    3.30
   4   0 -12   31.80    2.70
   4   0 -12   24.20    3.00
  -4   0  12   31.00    3.10
  -4   0  12   33.70    2.80
   3   0 -12    0.70    0.80
   3   0 -12    1.00    1.00
  -3   0  12    0.00    0.70
  -3   0  12   -0.90    0.60
   3   0 -12    0.00    0.70
   2   0 -12  348.57   19.40
   2   0 -12  399.66   19.50
   2   0 -12  393.96   19.20
  -2   0  12  376.66   19.00
  -2   0  12  361.66   18.80
   1   0 -12   -0.10    0.70
   1   0 -12   -0.30    0.60
  -1   0  12    0.30    0.60
   1   0 -12   -0.10    0.60
  -1   0  12    0.00    0.50
   0   0  12  516.65   28.90
   0   0 -12  530.05   28.80
   0   0  12  602.84   29.10
   0   0 -12  599.84   29.20
   0   0  12  614.54   28.90
   0   0  12  591.14   28.70
   0   0  12  614.44   28.70
  -1   0 -12   -0.10    0.50
   1   0  12    0.20    0.60
   1   0  12    1.90    0.70
   1   0  12    0.20    0.60
   1   0  12    0.00    0.50
  -1   0 -12   -0.10    0.60
   2   0  12  794.82   38.30
  -2   0 -12  763.02   38.60
   2   0  12  777.02   38.30
  -2   0 -12  730.93   38.30
   2   0  12  818.62   38.00
   2   0  12  780.82   38.50
   3   0  12    0.00    0.70
   3   0  12    0.80    0.80
  -3   0 -12    0.10    0.70
  -3   0 -12    0.90    0.80
   3   0  12   -0.40    0.70
   4   0  12  102.09    6.10
  -4   0 -12  101.49    6.10
   4   0  12   98.59    6.10
   4   0  12  102.09    6.10
  -4   0 -12  111.59    6.40
  -6  -1  12   19.80    2.70
   6  -1 -12   22.90    3.00
   6  -1 -12   27.70    2.40
  -6  -1  12   28.40    3.60
  -6   1  12   25.60    3.00
   6   1 -12   25.00    3.30
  -5  -1  12  367.56   19.10
  -5  -1  12  343.37   18.40
   5  -1 -12  347.87   18.70
   5   1 -12  344.47   18.90
   5   1 -12  362.06   18.40
  -5   1  12  353.86   18.50
  -4  -1  12    4.20    1.10
  -4  -1  12    4.70    1.40
   4  -1 -12    5.80    1.40
   4  -1 -12    2.40    1.20
  -4   1  12    3.40    1.10
   4   1 -12    4.60    1.60
   4   1 -12    4.00    1.20
   4   1 -12    3.90    1.40
   3  -1 -12   93.99    5.80
   3  -1 -12   87.89    5.40
  -3  -1  12   92.59    5.10
  -3  -1  12   82.99    5.60
  -3  -1  12   88.59    5.30
   3  -1 -12   79.69    5.60
   3   1 -12   80.59    5.30
   3   1 -12  104.19    6.00
  -3   1  12   88.59    5.40
   3   1 -12   95.99    5.80
  -2  -1  12   75.69    4.30
   2  -1 -12   73.09    4.90
  -2  -1  12   68.39    4.40
   2  -1 -12   71.89    4.60
   2   1 -12   78.69    5.00
   2   1 -12   84.89    5.00
   2   1 -12   76.09    4.60
  -2   1  12   70.09    4.50
  -2   1  12   72.29    4.30
  -1  -1  12  349.67   17.70
   1  -1 -12  381.66   18.40
   1  -1 -12  342.97   18.00
  -1  -1  12  346.77   17.70
  -1  -1  12  337.47   18.00
   1   1 -12  337.27   18.10
   1   1 -12  365.36   18.00
  -1   1  12  355.36   17.70
   1   1 -12  364.36   18.30
  -1   1  12  356.16   17.90
   0  -1  12    1.00    0.60
   0  -1 -12    2.50    0.80
   0  -1  12    1.10    0.60
   0  -1 -12    2.00    0.90
   0  -1  12    1.00    0.60
   0  -1  12    1.50    0.70
   0  -1  12    1.70    0.70
   0   1  12    0.40    0.60
   0   1  12    1.60    0.80
   0   1  12    1.80    0.70
   0   1  12    0.80    0.60
   0   1 -12    1.00    0.80
   0   1 -12    1.50    0.70
   0   1 -12    1.50    0.80
   1  -1  12  157.28    7.70
   1  -1  12  160.88    8.20
   1  -1  12  157.98    8.00
  -1  -1 -12  142.59    8.40
   1  -1  12  129.09    8.00
   1  -1  12  151.18    8.00
  -1  -1 -12  156.78    8.20
   1   1  12  137.19    8.70
   1   1  12  152.68    8.20
  -1   1 -12  143.79    8.00
   1   1  12  153.28    8.00
   1   1  12  156.28    8.10
  -1   1 -12  151.88    8.30
  -2  -1 -12   30.30    2.60
   2  -1  12   31.10    2.50
   2  -1  12   33.90    2.50
   2  -1  12   33.70    2.50
  -2  -1 -12   34.70    2.90
   2  -1  12   30.40    2.40
   2   1  12   35.50    2.50
   2   1  12   33.80    2.80
   2   1  12   30.20    2.40
   2   1  12   33.80    2.50
  -2   1 -12   33.10    2.40
  -2   1 -12   33.20    2.60
  -3  -1 -12    0.30    0.80
   3  -1  12   -0.30    0.70
   3  -1  12    0.20    0.60
  -3  -1 -12   -0.20    0.70
   3  -1  12    0.80    0.70
   3  -1  12    0.90    0.70
   3   1  12    1.50    0.90
   3   1  12    0.70    0.70
  -3   1 -12    0.20    0.60
   3   1  12    0.70    0.80
  -3   1 -12    0.30    0.70
   4  -1  12    8.60    1.50
  -4  -1 -12   10.60    1.90
   4  -1  12    7.60    1.30
   4  -1  12    7.20    1.40
  -4  -1 -12    9.30    1.70
   4   1  12    6.90    1.40
  -4   1 -12    7.80    1.40
   4   1  12    5.90    1.30
  -4   1 -12    7.70    1.40
   5  -2 -12   79.09    4.60
  -5  -2  12   80.09    5.20
  -5   2  12   74.39    5.20
   5   2 -12   77.69    5.80
   5   2 -12   83.09    6.00
   5   2 -12   79.79    5.30
  -4  -2  12   14.40    1.90
   4  -2 -12   12.10    1.70
  -4   2  12   16.70    2.10
   4   2 -12   10.80    1.80
   4   2 -12   16.60    2.50
   4   2 -12   18.90    2.60
   3  -2 -12    8.20    1.50
  -3  -2  12    8.90    1.20
  -3  -2  12   10.50    1.50
   3  -2 -12    6.50    1.50
   3   2 -12   10.70    1.70
  -3   2  12   16.20    1.90
   3   2 -12   12.00    1.90
  -3   2  12    7.70    1.30
   3   2 -12    9.00    1.90
  -2  -2  12  123.09    7.10
   2  -2 -12  115.99    7.10
  -2  -2  12  121.49    6.40
   2  -2 -12  129.19    6.90
  -2   2  12  113.79    6.70
   2   2 -12  108.89    7.00
  -2   2  12  116.69    6.50
   2   2 -12  109.29    6.70
   2   2 -12  131.89    7.20
  -1  -2  12   13.30    1.40
  -1  -2  12   18.60    2.10
  -1  -2  12   17.60    2.30
   1  -2 -12   18.50    2.30
   1  -2 -12   10.90    1.60
  -1   2  12   12.40    1.80
   1   2 -12   20.00    2.20
   1   2 -12   13.60    1.70
  -1   2  12   13.90    1.60
  -1   2  12   11.60    1.60
   1   2 -12   17.00    2.00
   0  -2  12  597.34   29.40
   0  -2  12  603.04   29.50
   0  -2  12  601.14   29.30
   0  -2 -12  652.53   30.30
   0  -2  12  608.44   29.80
   0  -2 -12  609.84   29.90
   0  -2  12  565.34   29.60
   0   2 -12  612.74   29.80
   0   2 -12  594.94   29.60
   0   2  12  613.94   30.00
   0   2  12  578.14   29.50
   0   2  12  544.55   29.70
   0   2  12  600.84   29.60
   1  -2  12   20.60    2.00
   1  -2  12   23.70    1.90
  -1  -2 -12   22.50    2.40
   1  -2  12   24.70    2.00
   1  -2  12   24.00    1.90
  -1  -2 -12   22.70    2.20
  -1   2 -12   24.50    2.00
   1   2  12   24.10    2.00
  -1   2 -12   25.10    1.90
   1   2  12   21.40    2.00
   1   2  12   22.70    1.90
   1   2  12   26.20    2.30
  -2  -2 -12  164.98    9.40
   2  -2  12  165.68    9.00
   2  -2  12  178.58    9.10
   2  -2  12  169.48    9.10
   2  -2  12  177.28    9.10
  -2  -2 -12  180.18    9.80
  -2   2 -12  168.78    9.10
   2   2  12  169.08    9.40
   2   2  12  169.88    9.10
   2   2  12  166.58    9.20
  -2   2 -12  172.88    9.00
  -3  -2 -12   68.19    4.80
   3  -2  12   69.69    4.00
   3  -2  12   66.09    4.10
  -3  -2 -12   65.49    4.40
   3  -2  12   64.69    4.00
   3  -2  12   70.59    4.20
   3   2  12   61.39    4.20
   3   2  12   63.99    4.10
  -3   2 -12   62.39    3.90
   3   2  12   64.69    4.20
  -3   2 -12   62.69    4.00
   4  -2  12   82.89    5.40
   4  -2  12   90.09    5.10
   4  -2  12   88.29    5.20
  -4  -2 -12   94.49    6.10
  -4  -2 -12   90.79    5.70
   4  -2  12   85.89    5.30
   4   2  12   87.79    5.40
   4   2  12   86.49    5.50
  -4   2 -12   89.19    5.20
   4   2  12   90.69    5.30
  -5  -3  12   31.80    2.90
   5  -3 -12   35.80    2.70
  -5   3  12   25.80    3.00
   5   3 -12   34.70    3.50
   5   3 -12   35.10    4.00
   5   3 -12   38.70    3.80
  -4  -3  12   77.09    5.50
   4  -3 -12   70.59    4.40
  -4   3  12   76.69    4.80
   4   3 -12   86.79    5.30
   4   3 -12   73.89    5.50
  -4   3  12   78.09    5.10
   4   3 -12   82.69    5.60
   3  -3 -12   78.39    4.80
  -3  -3  12   69.69    4.30
  -3   3  12   66.69    4.80
   3   3 -12   81.59    5.30
  -3   3  12   67.59    4.50
   3   3 -12   80.29    4.90
   3   3 -12   83.99    5.40
   2  -3 -12    4.00    1.30
  -2  -3  12    4.60    0.90
   2  -3 -12    3.30    1.00
   2   3 -12    5.90    1.30
  -2   3  12    4.80    1.10
  -2   3  12    7.10    1.20
   2   3 -12    5.90    1.50
   2   3 -12    3.90    1.20
   1  -3 -12    0.70    0.80
  -1  -3  12    0.40    0.50
   1  -3 -12    0.50    0.80
  -1  -3  12    0.30    0.60
  -1  -3  12    0.60    0.70
  -1   3  12    0.30    0.80
   1   3 -12    1.60    0.80
   1   3 -12    1.00    0.80
  -1   3  12    1.10    0.90
  -1   3  12    1.50    0.80
   0  -3  12    7.90    1.00
   0  -3 -12    7.60    1.40
   0  -3  12    6.90    1.10
   0  -3  12    5.80    1.00
   0  -3 -12    7.90    1.60
   0  -3  12    9.50    1.30
   0   3  12    8.30    1.60
   0   3 -12    7.50    1.30
   0   3  12   10.40    1.50
   0   3 -12    5.90    1.10
   0   3  12    8.90    1.30
   0   3  12    6.00    1.10
   1  -3  12    2.90    0.70
   1  -3  12    3.30    0.80
  -1  -3 -12    3.00    1.20
   1  -3  12    3.20    0.80
   1  -3  12    2.40    0.70
  -1  -3 -12    2.30    1.00
   1   3  12    2.70    0.90
   1   3  12    2.40    0.80
   1   3  12    2.20    1.00
   1   3  12    2.50    0.90
  -1   3 -12    3.60    0.90
  -1   3 -12    3.40    0.80
   2  -3  12   34.20    2.40
   2  -3  12   37.10    2.40
  -2  -3 -12   32.60    3.20
  -2  -3 -12   44.50    3.10
   2  -3  12   32.20    2.30
   2  -3  12   37.00    2.50
   2   3  12   32.50    3.00
   2   3  12   32.90    2.60
  -2   3 -12   31.90    2.30
  -2   3 -12   35.00    2.40
   2   3  12   34.40    2.60
  -3  -3 -12    2.20    1.20
   3  -3  12    2.90    0.90
  -3  -3 -12    1.20    1.00
   3  -3  12    1.80    0.60
   3  -3  12    1.60    0.60
   3  -3  12    2.00    0.90
  -3   3 -12    1.70    0.70
   3   3  12    2.80    1.10
   3   3  12    2.50    1.00
   3   3  12    1.60    1.00
   4  -3  12   42.80    2.70
  -4  -3 -12   38.00    3.80
   4  -3  12   39.20    3.20
   4  -3  12   42.60    2.70
  -4  -3 -12   45.20    3.70
   4   3  12   43.10    3.20
   4   3  12   46.60    3.40
   4   3  12   43.30    3.40
   5  -4 -12    1.40    0.90
   5   4 -12    1.50    1.20
   5   4 -12    0.10    1.20
   5   4 -12   -0.70    1.30
  -5   4  12   -0.60    1.00
  -5   4  12   -0.60    0.90
   4  -4 -12  110.19    6.20
  -4   4  12  105.69    6.50
   4   4 -12  114.19    6.90
   4   4 -12  125.69    7.50
   4   4 -12  114.99    7.60
  -4   4  12  113.79    7.00
  -3  -4  12   94.39    5.40
   3  -4 -12   91.79    5.20
   3   4 -12   87.39    5.80
  -3   4  12   92.49    5.90
  -3   4  12  100.09    5.60
   3   4 -12  102.79    6.50
   3   4 -12   99.99    6.20
   2  -4 -12    0.10    0.50
   2  -4 -12    0.50    0.80
  -2   4  12    2.60    1.10
   2   4 -12    1.00    0.80
  -2   4  12    0.20    0.70
   2   4 -12    1.00    0.90
  -1  -4  12   12.70    1.40
   1  -4 -12    7.60    1.60
  -1  -4  12   11.40    1.60
  -1  -4  12   13.50    1.90
  -1  -4  12   12.80    1.50
   1  -4 -12   13.40    1.80
   1   4 -12   12.30    1.80
  -1   4  12   11.10    1.70
  -1   4  12   12.50    1.50
  -1   4  12   10.00    1.90
   1   4 -12   13.40    1.60
   0  -4  12   43.40    2.90
   0  -4 -12   44.30    3.40
   0  -4 -12   40.70    3.60
   0  -4  12   40.10    3.00
   0  -4  12   48.20    3.00
   0   4  12   45.00    3.30
   0   4 -12   46.40    3.10
   0   4  12   46.30    2.90
   0   4  12   47.10    3.10
   0   4  12   48.20    3.70
   0   4 -12   45.60    3.00
  -1  -4 -12    1.10    0.90
  -1  -4 -12    0.20    0.90
   1  -4  12    0.20    0.50
   1  -4  12    0.70    0.60
   1  -4  12    1.00    0.50
   1   4  12    0.30    0.90
   1   4  12    0.60    0.70
   1   4  12    0.70    0.70
  -1   4 -12   -0.10    0.50
  -1   4 -12    0.20    0.50
   1   4  12    0.10    0.80
   2  -4  12    5.70    0.80
  -2  -4 -12    4.00    1.20
   2  -4  12    4.30    1.00
   2  -4  12    6.00    0.80
  -2  -4 -12    5.10    1.60
   2   4  12    7.60    1.40
  -2   4 -12    6.40    0.90
   2   4  12    6.50    1.20
   2   4  12    5.10    1.50
   3  -4  12   36.10    2.20
  -3  -4 -12   38.40    3.70
  -3  -4 -12   38.50    3.30
   3  -4  12   36.20    2.80
   3  -4  12   39.30    2.20
   3   4  12   35.50    3.40
   3   4  12   34.50    2.90
   3   4  12   36.70    2.80
   4  -4  12   -0.60    0.80
  -4  -4 -12   -0.20    1.00
  -4  -4 -12    0.70    1.40
   4   4  12   -0.30    0.80
   4   4  12   -0.70    0.90
   4   4  12   -0.10    0.90
   4  -5 -12   94.69    5.40
  -4   5  12   96.09    5.80
   4   5 -12  103.59    7.00
   4   5 -12   95.39    6.70
   4   5 -12   98.59    6.30
  -4   5  12   98.79    6.30
   3  -5 -12  122.99    6.40
   3   5 -12  130.39    7.20
  -3   5  12  118.89    7.20
   3   5 -12  102.99    7.30
  -3   5  12  122.19    6.80
  -2   5  12    1.40    0.80
  -2   5  12    1.50    1.20
   2   5 -12    1.50    1.00
   2   5 -12    1.20    1.00
  -2   5  12    1.40    1.00
  -1  -5  12    2.40    0.90
   1  -5 -12    2.30    1.00
  -1  -5  12    1.90    0.90
  -1   5  12    2.10    1.00
   1   5 -12    2.60    1.00
   1   5 -12    2.30    1.00
  -1   5  12    1.50    1.20
  -1   5  12    2.50    0.90
   0  -5  12    1.90    0.70
   0  -5 -12    1.30    1.00
   0  -5 -12    3.20    1.40
   0  -5  12    0.70    0.60
   0  -5  12    1.00    0.60
   0   5 -12    1.70    0.70
   0   5  12    1.60    0.70
   0   5  12    1.70    0.90
   0   5 -12    1.90    0.80
   0   5  12    1.30    1.20
   0   5  12    0.90    0.90
   1  -5  12  166.08    8.70
   1  -5  12  166.98    8.80
  -1  -5 -12  168.38   10.00
  -1  -5 -12  170.28    9.40
   1   5  12  170.38    8.80
   1   5  12  183.78    9.50
  -1   5 -12  160.58    8.70
   1   5  12  159.68    9.80
   1   5  12  159.78    9.00
   2  -5  12    0.00    0.30
   2  -5  12   -0.10    0.30
  -2  -5 -12   -0.60    0.80
  -2  -5 -12    0.60    1.30
   2   5  12   -0.30    0.70
   2   5  12    1.40    0.90
   2   5  12   -0.60    1.10
   2   5  12   -0.20    0.90
  -3  -5 -12  156.38    9.90
  -3  -5 -12  170.88    9.40
   3   5  12  150.28    9.50
   3   5  12  158.08    8.70
   3   5  12  158.48    8.90
  -3   6  12   54.19    4.20
  -3   6  12   51.49    3.60
   3   6 -12   50.29    4.30
   3   6 -12   53.59    4.10
   2   6 -12  228.58   12.80
   2   6 -12  232.08   12.60
  -2   6  12  247.18   12.90
  -2   6  12  235.68   13.30
  -2   6  12  229.78   12.30
  -1  -6  12   71.49    4.70
  -1  -6  12   69.99    4.60
   1   6 -12   69.89    4.60
   1   6 -12   68.69    4.60
  -1   6  12   67.29    5.20
  -1   6  12   75.99    5.00
  -1   6  12   65.29    4.30
   0  -6 -12    0.10    0.90
   0  -6  12    0.20    0.60
   0  -6  12    0.00    0.50
   0   6  12    0.30    0.90
   0   6 -12    0.00    0.60
   0   6 -12   -0.10    0.70
   0   6  12   -0.10    1.00
   0   6  12    0.70    0.80
   0   6  12    0.90    1.20
  -1  -6 -12   67.79    4.70
   1  -6  12   65.39    3.90
   1  -6  12   71.09    3.90
   1   6  12   74.19    5.30
   1   6  12   65.89    4.70
   1   6  12   58.69    5.10
   1   6  12   67.79    4.30
  -1   6 -12   66.89    3.80
  -2  -6 -12   85.09    5.60
  -2  -6 -12   74.39    6.30
   2   6  12   83.09    5.50
   2   6  12   77.09    5.10
   2   6  12   92.09    6.10
   2   7 -12   42.50    3.60
  -2   7  12   34.70    3.40
   2   7 -12   38.10    3.30
  -1  -7  12  121.29    6.80
  -1  -7  12  108.99    6.70
   1   7 -12  117.69    6.80
   1   7 -12  107.99    6.60
  -1   7  12  115.19    7.10
  -1   7  12  101.99    7.40
   0  -7  12    0.50    0.60
   0  -7  12    0.80    0.70
   0   7 -12    0.30    0.70
   0   7  12   -0.30    1.10
   0   7  12    1.90    1.40
   0   7  12   -1.00    0.90
   1  -7  12  124.59    6.60
   1  -7  12  128.99    6.60
   1   7  12  121.09    7.70
   1   7  12  128.59    7.40
   1   7  12  112.59    8.10
   1   7  12  128.29    8.30
   5   0 -13    0.50    1.40
  -5   0  13    0.60    1.00
   5   0 -13    0.80    1.10
   4   0 -13   -1.00    0.90
   4   0 -13    0.50    1.10
   4   0 -13   -0.80    0.80
  -4   0  13    0.10    0.80
  -3   0  13  520.25   27.00
   3   0 -13  550.44   27.50
   3   0 -13  538.65   27.10
   3   0 -13  535.75   27.50
  -3   0  13  541.95   26.80
  -2   0  13    0.00    0.60
  -2   0  13    0.90    0.70
   2   0 -13    1.10    0.90
   2   0 -13    0.20    0.80
   2   0 -13    0.10    0.80
   1   0 -13  285.67   13.50
   1   0 -13  225.58   12.90
   1   0 -13  229.28   13.20
  -1   0  13  250.47   12.70
  -1   0  13  252.07   12.80
   0   0 -13    0.60    0.70
   0   0 -13    1.20    0.70
   0   0  13   -0.10    0.60
   0   0  13    0.80    0.60
   0   0  13   -0.10    0.60
  -1   0 -13  451.75   22.00
   1   0  13  422.26   22.10
   1   0  13  430.36   21.80
   1   0  13  430.16   21.80
  -1   0 -13  451.45   22.30
   1   0  13  430.26   21.80
  -2   0 -13    0.50    0.70
  -2   0 -13    0.00    0.80
   2   0  13   -0.40    0.60
   2   0  13   -0.50    0.50
   2   0  13    0.30    0.60
   2   0  13    0.10    0.70
  -3   0 -13  336.37   17.80
   3   0  13  335.77   17.50
   3   0  13  328.37   17.60
   3   0  13  357.76   17.50
  -3   0 -13  351.46   17.60
   4   0  13   -0.10    0.80
  -4   0 -13    0.20    0.90
   4   0  13   -0.40    0.80
   4   0  13   -0.20    0.80
  -4   0 -13   -0.40    0.80
  -5  -1  13   36.00    5.60
  -5  -1  13   30.80    2.80
   5  -1 -13   33.40    3.40
   5   1 -13   31.70    3.00
  -5   1  13   24.40    2.90
   5   1 -13   24.80    3.30
   4  -1 -13   54.79    3.80
   4  -1 -13   42.40    4.00
  -4  -1  13   56.89    3.70
  -4   1  13   46.40    3.60
   4   1 -13   49.70    4.20
   4   1 -13   55.19    3.80
   4   1 -13   42.30    4.00
  -3  -1  13   64.59    4.40
   3  -1 -13   76.19    5.00
   3  -1 -13   68.69    5.00
   3  -1 -13   63.79    4.50
  -3  -1  13   75.79    4.30
   3   1 -13   72.09    5.00
   3   1 -13   63.19    4.90
   3   1 -13   76.49    4.70
  -3   1  13   73.89    4.40
  -3   1  13   69.49    4.60
  -2  -1  13    2.90    0.80
  -2  -1  13    2.80    0.90
   2  -1 -13    4.00    1.20
   2  -1 -13    3.50    1.20
  -2   1  13    3.80    1.10
   2   1 -13    5.00    1.40
  -2   1  13    4.10    1.00
   2   1 -13    4.40    1.10
   2   1 -13    2.60    1.10
   1  -1 -13  134.19    7.50
   1  -1 -13  139.89    7.20
  -1  -1  13  122.19    6.80
   1   1 -13  116.59    7.30
  -1   1  13  117.99    6.80
  -1   1  13  120.89    7.00
  -1   1  13  115.89    7.20
   1   1 -13  136.49    7.10
   1   1 -13  128.59    7.40
   0  -1  13   60.79    3.90
   0  -1  13   61.99    3.60
   0  -1  13   59.89    3.60
   0  -1 -13   56.39    4.10
   0  -1  13   60.49    3.60
   0  -1 -13   60.29    3.90
   0   1  13   56.29    3.60
   0   1 -13   57.59    3.80
   0   1  13   63.99    3.80
   0   1  13   61.39    4.00
   0   1  13   56.19    3.60
   0   1 -13   52.29    3.90
  -1  -1 -13   18.90    2.10
  -1  -1 -13   18.30    2.20
   1  -1  13   18.20    1.90
   1  -1  13   22.50    2.00
   1  -1  13   19.30    1.50
   1  -1  13   23.50    2.00
  -1   1 -13   22.00    1.90
  -1   1 -13   23.30    2.10
   1   1  13   20.30    2.00
   1   1  13   19.00    1.90
   1   1  13   18.80    1.90
  -2  -1 -13  276.67   15.10
   2  -1  13  293.07   14.90
   2  -1  13  297.87   15.10
   2  -1  13  292.97   14.90
  -2  -1 -13  278.57   15.40
   2  -1  13  278.37   15.30
  -2   1 -13  302.67   15.20
   2   1  13  290.97   14.90
  -2   1 -13  297.37   14.90
   2   1  13  299.27   15.00
   2   1  13  291.47   14.90
   3  -1  13    8.20    1.40
  -3  -1 -13    7.40    1.40
   3  -1  13    5.60    1.20
   3  -1  13    8.10    1.40
  -3  -1 -13    8.40    1.70
  -3   1 -13    7.30    1.40
  -3   1 -13    7.90    1.40
   3   1  13    9.80    1.50
   3   1  13    7.00    1.30
  -4  -1 -13   -0.20    0.90
   4  -1  13    0.60    0.90
   4  -1  13    0.10    0.90
  -4  -1 -13    1.00    0.90
   4  -1  13    0.00    0.60
  -4   1 -13    0.80    0.80
   4   1  13    1.50    1.10
  -4   1 -13   -0.30    0.80
   4   1  13    1.30    1.00
   5  -2 -13    0.80    0.90
  -5  -2  13    1.50    1.10
  -5   2  13   -0.60    0.90
   5   2 -13    0.30    1.20
   5   2 -13   -0.40    1.30
   5   2 -13    1.00    1.10
   4  -2 -13   43.20    3.30
  -4  -2  13   43.70    3.30
   4   2 -13   44.30    3.50
   4   2 -13   41.00    3.90
  -4   2  13   43.00    3.40
  -4   2  13   36.30    3.00
   4   2 -13   41.60    3.80
  -3  -2  13  171.68    9.90
   3  -2 -13  198.28   10.50
   3  -2 -13  177.18    9.80
  -3  -2  13  179.68    9.50
   3   2 -13  187.78   10.00
  -3   2  13  198.58   10.00
   3   2 -13  171.48   10.30
  -3   2  13  178.08    9.60
   3   2 -13  153.48   10.10
   2  -2 -13  157.18    8.30
   2  -2 -13  136.59    8.50
  -2  -2  13  152.18    7.80
   2   2 -13  139.89    8.50
   2   2 -13  143.59    8.50
   2   2 -13  145.79    8.20
  -2   2  13  152.38    7.90
  -2   2  13  139.89    8.10
   1  -2 -13    0.10    0.70
  -1  -2  13    0.20    0.60
  -1  -2  13    0.60    0.60
   1  -2 -13    1.00    0.90
  -1   2  13    0.60    0.80
   1   2 -13    0.40    0.70
  -1   2  13   -0.10    0.60
  -1   2  13    0.20    0.70
   1   2 -13   -0.50    0.60
   0  -2 -13  187.18   10.90
   0  -2  13  204.48   10.50
   0  -2 -13  198.48   10.60
   0  -2  13  196.58   10.20
   0  -2  13  195.68   10.20
   0  -2  13  200.18   10.00
   0   2  13  200.08   10.50
   0   2  13  191.18   10.20
   0   2  13  194.28   10.30
   0   2  13  183.38   10.70
   0   2 -13  192.88   10.40
   0   2 -13  213.58   10.70
   1  -2  13    0.60    0.70
  -1  -2 -13   -0.10    0.80
   1  -2  13   -0.20    0.60
   1  -2  13   -0.20    0.50
  -1  -2 -13   -0.10    0.80
   1  -2  13    0.30    0.50
  -1   2 -13    0.70    0.70
   1   2  13    0.10    0.60
   1   2  13   -0.10    0.80
   1   2  13    0.00    0.70
  -1   2 -13   -0.10    0.50
   2  -2  13  228.98   12.40
   2  -2  13  242.28   12.50
   2  -2  13  242.38   12.50
  -2  -2 -13  236.28   12.80
  -2  -2 -13  231.28   13.10
   2  -2  13  254.77   12.50
   2   2  13  241.18   12.80
  -2   2 -13  245.78   12.60
   2   2  13  243.28   12.50
   2   2  13  236.78   12.60
  -2   2 -13  240.18   12.40
   3  -2  13    1.90    0.70
   3  -2  13    2.60    0.80
   3  -2  13    2.70    1.00
  -3  -2 -13    2.20    1.30
  -3  -2 -13    2.90    1.20
   3  -2  13    2.60    1.00
  -3   2 -13    2.70    0.90
   3   2  13    3.30    1.10
   3   2  13    2.30    1.00
   3   2  13    2.90    1.00
  -3   2 -13    1.90    0.80
   4  -2  13   43.40    3.10
   4  -2  13   50.29    3.20
   4  -2  13   46.70    3.50
  -4  -2 -13   48.60    4.00
   4  -2  13   46.30    3.50
  -4  -2 -13   52.59    3.80
  -4   2 -13   45.60    3.20
   4   2  13   47.20    3.50
   4   2  13   43.80    3.50
   5  -3 -13    3.70    1.00
   5   3 -13    5.80    1.60
   5   3 -13    2.00    1.60
  -5   3  13    3.60    1.30
  -5   3  13    7.70    1.70
   5   3 -13    3.70    1.70
   4  -3 -13   17.50    1.60
   4   3 -13   13.00    2.30
   4   3 -13   13.40    2.30
  -4   3  13   14.10    2.00
  -4   3  13   14.10    1.80
   4   3 -13   17.10    2.30
   3  -3 -13    2.90    1.00
  -3  -3  13    3.60    0.90
  -3   3  13    4.20    1.30
   3   3 -13    3.70    1.30
   3   3 -13    2.40    1.20
  -3   3  13    3.00    1.00
   3   3 -13    6.50    1.70
   2  -3 -13  224.28   11.80
   2  -3 -13  203.98   11.20
  -2  -3  13  192.78   10.70
   2   3 -13  224.78   11.30
  -2   3  13  203.08   11.00
  -2   3  13  222.28   11.40
   2   3 -13  196.78   11.50
  -1  -3  13   26.50    2.10
   1  -3 -13   31.20    2.60
   1  -3 -13   29.00    2.90
  -1  -3  13   36.00    2.90
  -1  -3  13   28.60    2.50
  -1  -3  13   27.80    2.10
   1   3 -13   30.60    2.60
  -1   3  13   29.80    2.80
  -1   3  13   26.60    2.20
  -1   3  13   27.60    2.50
   1   3 -13   27.80    2.40
   0  -3  13   27.00    2.20
   0  -3 -13   25.60    2.40
   0  -3  13   25.50    2.00
   0  -3 -13   22.40    2.70
   0  -3  13   25.90    2.10
   0  -3  13   25.70    1.90
   0   3 -13   25.80    2.30
   0   3  13   24.80    2.30
   0   3  13   24.20    2.70
   0   3 -13   24.10    2.10
   0   3  13   24.30    2.00
   0   3  13   21.50    2.10
  -1  -3 -13    0.70    0.80
   1  -3  13    0.30    0.50
   1  -3  13   -0.20    0.60
   1  -3  13    0.40    0.60
   1  -3  13   -0.20    0.60
  -1  -3 -13    0.10    0.90
  -1   3 -13   -0.20    0.50
   1   3  13    0.80    0.80
   1   3  13   -0.80    0.80
   1   3  13    0.80    0.80
  -1   3 -13    0.30    0.60
   1   3  13   -0.10    0.60
   2  -3  13   95.49    5.40
   2  -3  13   94.89    5.50
  -2  -3 -13  100.19    6.50
   2  -3  13   96.99    5.50
   2  -3  13  103.39    5.60
  -2  -3 -13  107.39    6.10
  -2   3 -13   96.59    5.50
   2   3  13   90.79    5.70
  -2   3 -13   93.89    5.70
   2   3  13   94.49    6.00
   2   3  13   95.49    5.60
   3  -3  13   33.50    2.80
   3  -3  13   38.10    2.50
  -3  -3 -13   38.10    3.20
   3  -3  13   37.20    2.50
  -3  -3 -13   36.00    3.50
   3   3  13   35.90    2.80
  -3   3 -13   36.10    2.50
   3   3  13   35.80    2.90
   3   3  13   37.30    3.20
  -4  -3 -13    5.90    1.80
   4  -3  13    4.70    0.80
   4  -3  13    4.60    1.30
  -4  -3 -13    5.90    1.50
   4  -3  13    4.60    0.80
   4   3  13    5.20    1.30
   4   3  13    4.20    1.30
   4   3  13    4.70    1.30
   4  -4 -13   25.40    2.00
  -4   4  13   18.00    2.40
   4   4 -13   17.10    2.40
   4   4 -13   21.80    3.00
  -4   4  13   19.00    2.20
   4   4 -13   20.80    2.90
   3  -4 -13    4.00    0.80
  -3   4  13    3.10    1.00
   3   4 -13    4.00    1.40
   3   4 -13    2.20    1.10
  -3   4  13    3.10    1.20
   2  -4 -13    0.40    0.80
  -2   4  13    0.70    1.10
   2   4 -13    0.90    0.90
  -2   4  13    0.80    0.90
  -2   4  13    0.20    0.70
   2   4 -13    0.40    0.80
  -1  -4  13   51.49    3.60
   1  -4 -13   51.19    3.70
  -1  -4  13   48.90    3.20
   1  -4 -13   45.70    4.00
  -1  -4  13   55.89    3.90
   1   4 -13   49.80    3.70
  -1   4  13   50.99    4.10
  -1   4  13   51.89    3.70
  -1   4  13   49.80    3.40
   1   4 -13   56.69    3.60
   0  -4  13    8.30    1.30
   0  -4 -13    6.50    1.40
   0  -4  13    8.30    1.30
   0  -4 -13    7.00    1.60
   0  -4  13    6.50    1.10
   0   4  13    9.00    1.60
   0   4  13    6.10    1.10
   0   4  13    6.40    1.20
   0   4 -13    8.50    1.30
   0   4 -13    6.90    1.30
   0   4  13   10.30    2.00
   1  -4  13   29.20    2.30
   1  -4  13   29.60    2.20
   1  -4  13   31.50    2.30
  -1  -4 -13   31.60    3.20
  -1  -4 -13   27.90    2.70
   1   4  13   28.90    2.50
  -1   4 -13   33.20    2.40
   1   4  13   35.20    2.80
  -1   4 -13   33.10    2.40
   1   4  13   29.50    3.00
   1   4  13   28.40    2.30
   2  -4  13    0.10    0.40
  -2  -4 -13    0.80    1.20
  -2  -4 -13    0.90    1.00
   2  -4  13    0.10    0.70
   2  -4  13    0.80    0.50
   2   4  13    1.10    1.10
   2   4  13   -0.10    0.70
  -2   4 -13    0.90    0.60
   2   4  13   -0.60    0.70
  -3  -4 -13   21.40    3.00
  -3  -4 -13   22.50    2.70
   3  -4  13   16.40    1.30
   3  -4  13   17.00    2.00
   3  -4  13   17.10    1.30
   3   4  13   14.40    2.00
   3   4  13   14.70    2.00
   3   4  13   15.70    2.40
   4  -5 -13    6.00    1.10
   4   5 -13    6.90    1.70
   4   5 -13    9.30    2.10
  -4   5  13    6.80    1.70
  -4   5  13    6.10    1.40
  -3   5  13    2.00    1.00
  -3   5  13    2.60    1.30
   3   5 -13    2.50    1.20
   3   5 -13    2.20    1.20
  -2   5  13   12.40    2.20
   2   5 -13   11.80    1.80
  -2   5  13   11.30    1.90
  -2   5  13   10.30    1.50
   2   5 -13    7.60    1.70
  -1  -5  13    2.60    1.00
  -1  -5  13    5.30    1.30
   1  -5 -13    5.30    1.40
  -1   5  13    4.30    1.10
  -1   5  13    3.30    1.40
   1   5 -13    4.10    1.20
  -1   5  13    4.90    1.00
   1   5 -13    4.30    1.10
  -1   5  13    4.00    1.30
   0  -5  13    0.20    0.60
   0  -5 -13   -0.70    0.80
   0  -5  13    0.40    0.50
   0  -5 -13    0.30    1.10
   0   5  13   -0.20    1.00
   0   5  13   -0.80    0.60
   0   5 -13   -0.40    0.60
   0   5  13    0.80    0.80
   0   5 -13   -0.10    0.60
   0   5  13   -0.70    0.80
   1  -5  13   26.60    2.00
   1  -5  13   23.20    2.00
  -1  -5 -13   28.40    3.50
  -1  -5 -13   31.00    2.80
   1   5  13   25.60    3.10
   1   5  13   23.50    2.40
   1   5  13   31.60    2.80
  -1   5 -13   24.70    2.00
   1   5  13   27.00    2.20
  -2  -5 -13   44.30    3.70
   2  -5  13   44.00    2.60
  -2  -5 -13   47.40    4.20
   2  -5  13   44.30    2.70
   2   5  13   46.20    3.90
   2   5  13   38.40    3.00
   2   5  13   45.30    3.40
  -3   6  13   16.20    2.80
   3   6 -13   16.00    2.30
  -3   6  13   16.10    2.40
   3   6 -13   14.40    2.30
  -3   6  13   17.70    2.10
  -2   6  13   48.50    3.90
   2   6 -13   49.10    3.80
  -2   6  13   48.10    4.30
  -2   6  13   45.40    3.40
   2   6 -13   51.89    4.00
  -1  -6  13    2.90    1.00
  -1  -6  13    2.60    1.00
  -1   6  13    2.00    0.90
  -1   6  13    4.30    1.50
  -1   6  13    2.90    1.50
   1   6 -13    3.80    1.20
   1   6 -13    2.90    1.10
   0  -6 -13    0.30    1.00
   0  -6  13    0.50    0.60
   0  -6  13    0.20    0.60
   0   6 -13    0.50    0.70
   0   6  13    1.30    1.30
   0   6  13    0.90    0.90
   0   6  13    0.50    1.00
   0   6  13    1.10    1.20
   0   6 -13    0.80    0.90
   1  -6  13   11.40    1.30
  -1  -6 -13    9.70    1.90
   1  -6  13   10.60    1.20
   1   6  13    8.50    1.80
  -1   6 -13   10.30    1.30
   1   6  13    7.70    2.00
   1   6  13    8.00    1.50
  -2  -6 -13   -0.20    1.00
   2   6  13    1.80    1.50
   2   6  13    0.00    0.90
  -1  -7  13    1.80    0.90
  -1   7  13    2.10    1.50
   5   0 -14   -2.40    0.90
   5   0 -14    0.50    1.30
  -5   0  14    0.80    1.00
  -4   0  14   23.40    2.70
   4   0 -14   22.50    2.60
  -4   0  14   25.50    2.50
   4   0 -14   23.50    3.00
   3   0 -14   -0.90    0.80
  -3   0  14    0.90    0.80
   3   0 -14    0.50    1.00
  -3   0  14   -0.40    0.70
   3   0 -14    0.00    0.90
  -2   0  14   -0.10    0.70
  -2   0  14    0.60    0.60
   2   0 -14   -0.10    0.80
   2   0 -14    1.10    1.00
   2   0 -14    0.00    0.90
  -1   0  14   -0.10    0.80
   1   0 -14   -0.70    0.70
  -1   0  14    0.10    0.60
   1   0 -14   -0.20    0.70
   0   0 -14   37.20    3.00
   0   0  14   36.60    2.80
   0   0 -14   34.50    2.80
   0   0  14   31.10    2.50
   0   0  14   36.30    2.60
  -1   0 -14    0.30    0.70
   1   0  14   -0.40    0.60
   1   0  14    0.90    0.80
  -1   0 -14    0.50    0.80
   1   0  14    0.00    0.60
   2   0  14   13.30    1.90
  -2   0 -14   11.60    1.60
  -2   0 -14   14.60    2.10
   2   0  14   11.90    1.60
   2   0  14   10.40    1.50
  -3   0 -14   -0.20    0.80
   3   0  14   -0.10    0.70
   3   0  14   -1.00    0.80
  -3   0 -14    0.90    0.90
   3   0  14   -0.20    0.70
   4   0  14  288.07   15.40
   4   0  14  295.47   15.40
  -4   0 -14  294.07   15.70
  -4   0 -14  297.97   15.50
  -5  -1  14    8.60    1.80
   5   1 -14    8.10    2.10
  -5   1  14   10.10    1.90
   5   1 -14    7.10    1.80
  -4  -1  14    6.00    1.30
   4  -1 -14    8.00    1.60
   4  -1 -14    9.20    2.00
  -4  -1  14   13.60    1.90
   4   1 -14    8.90    2.10
   4   1 -14    6.50    1.60
   4   1 -14    8.40    2.00
  -4   1  14    8.80    1.70
  -4   1  14   10.10    1.60
  -3  -1  14  217.58   12.10
   3  -1 -14  233.78   12.40
   3  -1 -14  215.48   12.70
  -3  -1  14  222.38   11.90
   3   1 -14  207.68   12.20
  -3   1  14  229.48   12.30
  -3   1  14  237.08   12.00
   3   1 -14  257.37   13.00
   3   1 -14  240.08   12.80
   2  -1 -14   54.89    3.60
   2  -1 -14   44.60    3.70
  -2  -1  14   45.90    3.10
   2   1 -14   46.50    3.70
   2   1 -14   41.50    3.70
   2   1 -14   47.50    3.50
  -2   1  14   48.60    3.20
  -2   1  14   44.40    3.30
   1  -1 -14  141.89    7.70
  -1  -1  14  138.29    7.60
   1  -1 -14  130.49    8.00
  -1  -1  14  136.99    7.30
   1   1 -14  139.99    7.90
  -1   1  14  149.88    7.90
  -1   1  14  137.79    7.50
   1   1 -14  136.59    7.60
   1   1 -14  111.89    7.80
  -1   1  14  127.09    7.30
   0  -1  14   -0.40    0.60
   0  -1  14    0.90    0.70
   0  -1 -14    1.40    0.90
   0  -1  14    1.30    0.80
   0  -1  14    0.80    0.70
   0  -1 -14    1.70    1.00
   0   1  14    1.10    0.70
   0   1 -14    1.30    0.90
   0   1 -14    0.90    0.80
   0   1  14    1.30    0.90
   0   1  14    1.10    0.70
  -1  -1 -14   14.80    1.90
   1  -1  14   15.40    1.70
   1  -1  14   19.20    1.90
  -1  -1 -14   21.30    2.50
   1  -1  14   17.30    1.80
  -1   1 -14   15.50    2.00
   1   1  14   20.70    2.10
   1   1  14   18.00    1.80
   1   1  14   19.20    2.00
  -1   1 -14   14.50    1.80
   2  -1  14   -0.40    0.70
  -2  -1 -14    0.20    0.80
   2  -1  14    0.40    0.60
   2  -1  14   -0.30    0.70
  -2  -1 -14    0.80    0.90
   2   1  14   -0.10    0.80
  -2   1 -14    0.10    0.70
   2   1  14   -0.60    0.60
   2   1  14    0.90    0.80
  -2   1 -14    0.60    0.70
   3  -1  14   19.20    2.20
  -3  -1 -14   18.40    2.40
   3  -1  14   23.00    2.20
   3  -1  14   21.90    2.20
  -3  -1 -14   23.80    2.60
   3   1  14   17.30    2.10
   3   1  14   16.60    2.00
  -3   1 -14   22.50    2.30
  -3   1 -14   21.50    2.30
   4  -1  14   53.09    3.80
   4  -1  14   56.69    3.90
  -4  -1 -14   57.49    4.40
  -4  -1 -14   50.29    4.00
   4  -1  14   50.59    3.80
  -4   1 -14   56.69    4.00
   4   1  14   50.99    3.90
  -4   1 -14   53.79    3.80
   4   1  14   50.79    3.90
  -5  -2  14   16.60    2.30
  -5   2  14    9.90    1.70
  -5   2  14   14.50    2.30
   5   2 -14   15.30    2.80
   5   2 -14   12.70    2.40
   5   2 -14   17.00    2.40
   4  -2 -14    0.00    0.90
  -4  -2  14    0.10    0.70
  -4   2  14   -0.80    0.80
  -4   2  14    0.60    0.90
   4   2 -14    1.40    1.20
   4   2 -14    0.50    1.00
   4   2 -14    1.00    1.30
  -3  -2  14    0.50    0.70
   3  -2 -14    1.00    1.00
   3  -2 -14   -0.30    0.80
   3   2 -14   -0.10    1.10
   3   2 -14    1.30    1.10
   3   2 -14    0.10    0.90
  -3   2  14    0.80    0.90
  -3   2  14    0.60    0.90
   2  -2 -14    0.10    0.90
   2  -2 -14    0.90    0.90
  -2  -2  14    0.30    0.60
  -2   2  14    0.10    0.80
   2   2 -14   -0.90    0.70
  -2   2  14   -0.30    0.80
   2   2 -14    0.20    0.80
   2   2 -14   -0.60    0.90
  -1  -2  14   -0.40    0.60
  -1  -2  14   -0.10    0.50
   1  -2 -14    0.10    0.80
   1  -2 -14   -0.10    0.90
  -1   2  14    0.00    0.70
   1   2 -14   -0.20    0.70
  -1   2  14   -0.50    0.90
   1   2 -14   -0.20    0.80
  -1   2  14    0.30    0.70
   0  -2 -14    8.60    1.50
   0  -2  14    7.90    1.30
   0  -2  14    8.50    1.00
   0  -2  14    8.70    1.20
   0  -2  14    6.90    1.20
   0  -2 -14    6.30    1.50
   0   2  14    4.50    1.10
   0   2  14    8.10    1.20
   0   2 -14    9.20    1.40
   0   2  14    8.10    1.40
   0   2 -14    8.70    1.50
   0   2  14    7.00    1.50
   1  -2  14   97.49    5.60
  -1  -2 -14  105.29    6.20
   1  -2  14  101.39    5.90
   1  -2  14   90.09    5.60
  -1  -2 -14  104.09    6.40
   1   2  14  107.39    5.90
  -1   2 -14   99.99    6.00
   1   2  14   97.09    6.10
   1   2  14  101.79    5.80
  -1   2 -14   99.99    5.80
  -2  -2 -14   12.60    1.90
   2  -2  14   12.70    1.60
  -2  -2 -14   10.10    1.90
   2  -2  14   13.10    1.60
   2  -2  14   12.10    1.60
   2  -2  14    6.70    1.30
   2   2  14   13.00    1.60
  -2   2 -14    9.90    1.50
   2   2  14   14.70    1.80
   2   2  14   14.00    1.90
  -2   2 -14   13.90    1.70
   3  -2  14    3.40    0.90
  -3  -2 -14    3.60    1.30
   3  -2  14    3.20    0.90
   3  -2  14    3.20    1.10
   3  -2  14    3.90    1.10
  -3  -2 -14    2.80    1.30
   3   2  14    2.10    1.10
   3   2  14    3.00    1.10
   3   2  14    3.60    1.10
  -3   2 -14    2.90    1.00
  -3   2 -14    2.10    1.40
   5  -3 -14    1.00    0.90
  -5   3  14    1.00    1.10
   5   3 -14    0.90    1.50
  -5   3  14    1.20    1.20
  -4  -3  14    0.70    0.80
   4  -3 -14    2.40    0.80
  -4   3  14    0.70    1.00
   4   3 -14    0.60    1.10
  -4   3  14    0.30    0.90
   4   3 -14    0.70    1.10
   4   3 -14    1.60    1.40
  -3  -3  14   11.80    1.50
   3  -3 -14   11.20    1.80
  -3   3  14   11.30    1.70
   3   3 -14   14.70    2.40
   3   3 -14    9.40    1.70
   3   3 -14   12.80    2.30
  -3   3  14   11.40    1.90
  -2  -3  14   16.00    1.60
   2  -3 -14   13.10    2.20
   2  -3 -14   14.30    1.90
   2   3 -14   14.10    1.90
  -2   3  14   16.30    1.90
  -2   3  14   14.90    2.00
   2   3 -14   10.90    1.90
  -1  -3  14  175.88    9.00
   1  -3 -14  170.18    9.90
  -1  -3  14  164.28    8.90
  -1  -3  14  176.08    8.90
   1  -3 -14  175.78    9.50
  -1  -3  14  172.08    9.50
   1   3 -14  145.39    9.10
   1   3 -14  185.58    9.60
  -1   3  14  176.28    9.20
  -1   3  14  168.38    9.40
  -1   3  14  157.88    9.70
   0  -3 -14    2.60    1.10
   0  -3  14    2.30    0.80
   0  -3  14    2.30    0.80
   0  -3 -14    2.30    1.20
   0  -3  14    1.80    0.80
   0   3  14    1.50    0.80
   0   3  14    1.60    0.90
   0   3  14    2.90    1.10
   0   3  14    3.30    1.30
   0   3 -14    2.50    0.90
   0   3 -14    1.70    0.90
   1  -3  14    8.90    1.30
  -1  -3 -14    9.90    1.70
   1  -3  14   10.30    1.30
   1  -3  14    8.40    1.30
  -1  -3 -14    9.30    1.80
   1  -3  14   10.80    1.50
   1   3  14   12.60    2.00
   1   3  14   10.30    1.40
   1   3  14   11.20    1.60
  -1   3 -14    9.30    1.30
  -1   3 -14   10.60    1.60
   2  -3  14   54.29    3.30
   2  -3  14   49.70    3.30
  -2  -3 -14   52.29    4.30
   2  -3  14   48.60    3.40
  -2  -3 -14   55.89    3.90
   2  -3  14   47.30    4.10
   2   3  14   46.00    3.50
   2   3  14   45.00    3.80
  -2   3 -14   50.99    3.30
   2   3  14   46.50    3.40
   3  -3  14   22.50    1.90
   3  -3  14   22.30    1.80
  -3  -3 -14   20.40    2.90
   3  -3  14   22.00    2.30
  -3  -3 -14   23.40    2.80
   3   3  14   18.20    2.20
   3   3  14   20.20    2.50
  -3   3 -14   20.30    1.90
   3   3  14   21.40    2.40
   4  -4 -14   14.00    1.60
   4   4 -14   17.60    2.80
  -4   4  14   14.70    2.00
   4   4 -14   12.80    2.50
  -4   4  14   13.40    2.20
   4   4 -14   15.60    2.40
   3  -4 -14   20.30    1.70
  -3   4  14   17.20    2.10
  -3   4  14   19.60    2.40
   3   4 -14   26.10    3.10
   3   4 -14   23.10    2.70
   2  -4 -14   12.40    1.90
  -2   4  14   11.40    2.10
  -2   4  14   14.40    1.80
   2   4 -14   16.90    2.30
   2   4 -14   12.20    1.90
  -2   4  14   14.70    2.10
  -1  -4  14    3.00    1.10
   1  -4 -14    3.00    1.30
  -1  -4  14    5.40    1.40
   1  -4 -14    4.30    1.30
  -1  -4  14    4.60    1.00
  -1   4  14    4.70    1.30
   1   4 -14    4.10    1.20
   1   4 -14    3.40    1.10
  -1   4  14    3.70    1.10
  -1   4  14    3.90    1.50
   0  -4  14   14.00    1.70
   0  -4 -14   16.80    2.30
   0  -4 -14   21.50    2.90
   0  -4  14   18.80    2.00
   0   4  14   18.30    1.90
   0   4 -14   15.30    1.80
   0   4  14   14.10    1.80
   0   4  14   15.90    2.50
   0   4 -14   17.20    2.00
   0   4  14   17.80    2.30
  -1  -4 -14   13.30    2.40
  -1  -4 -14   14.50    2.10
   1  -4  14   10.90    1.40
   1  -4  14    8.90    1.40
   1  -4  14   13.00    1.50
  -1   4 -14   13.00    1.60
   1   4  14   11.60    1.60
  -1   4 -14   11.50    1.50
   1   4  14   11.10    1.60
   1   4  14   12.10    2.10
   2  -4  14    1.90    0.60
  -2  -4 -14    2.70    1.40
   2  -4  14    1.30    0.60
   2  -4  14    0.00    0.70
  -2  -4 -14    1.20    1.00
  -2   4 -14    2.50    0.80
   2   4  14    2.10    1.30
   2   4  14    0.70    0.80
   2   4  14    2.40    1.10
   3  -4  14   74.59    4.10
   3  -4  14   73.99    4.10
  -3  -4 -14   76.09    5.70
   3  -4  14   73.39    4.70
  -3  -4 -14   74.39    5.30
   3   4  14   77.59    4.90
   3   4  14   66.19    5.10
   3   4  14   74.99    4.70
   3   5 -14   13.10    2.10
  -3   5  14   12.50    1.80
  -3   5  14    9.50    1.90
   3   5 -14    7.60    1.80
   2   5 -14   11.20    1.80
  -2   5  14   11.10    2.00
   2   5 -14    9.30    1.80
  -2   5  14   13.30    1.70
  -2   5  14   13.30    2.40
   1  -5 -14   13.60    2.10
  -1  -5  14   16.70    2.10
  -1  -5  14   15.30    2.20
  -1   5  14   17.50    1.90
   1   5 -14   17.00    2.20
  -1   5  14   19.10    2.10
  -1   5  14   16.50    2.30
  -1   5  14   16.70    2.50
   1   5 -14   17.10    2.10
   0  -5 -14   31.10    3.00
   0  -5  14   34.00    2.70
   0  -5 -14   30.60    4.10
   0   5 -14   34.30    2.70
   0   5 -14   33.10    2.70
   0   5  14   34.80    2.60
   0   5  14   31.40    2.70
   0   5  14   36.50    3.50
   0   5  14   35.90    3.10
  -1  -5 -14    8.00    2.10
  -1  -5 -14    9.30    1.80
   1  -5  14    7.10    1.10
   1  -5  14    7.70    1.10
   1   5  14    6.50    1.40
   1   5  14    9.10    1.40
   1   5  14    7.60    1.70
   1   5  14    8.10    2.00
  -1   5 -14   10.30    1.30
  -2  -5 -14  106.69    6.90
  -2  -5 -14  113.89    7.50
   2  -5  14  109.59    5.80
   2  -5  14  108.19    5.80
   2   5  14  105.09    7.10
   2   5  14  108.49    6.50
   2   5  14  110.99    6.30
   2   6 -14    3.90    1.30
  -2   6  14    3.90    1.40
  -2   6  14    6.10    1.40
   2   6 -14    5.10    1.50
  -2   6  14    4.90    1.70
  -1  -6  14   36.90    3.20
  -1  -6  14   38.60    3.10
   1   6 -14   37.70    3.20
   1   6 -14   40.10    3.20
  -1   6  14   37.30    3.00
  -1   6  14   41.80    4.10
  -1   6  14   47.40    3.80
   0  -6  14   43.50    3.00
   0  -6 -14   41.00    3.60
   0   6  14   40.30    3.20
   0   6  14   35.80    3.90
   0   6  14   45.60    3.70
   0   6  14   43.40    6.50
   0   6 -14   37.00    3.00
   1  -6  14   35.30    2.40
   1  -6  14   30.80    2.30
  -1  -6 -14   38.00    3.30
   1   6  14   28.20    3.20
   1   6  14   36.10    2.90
   1   6  14   33.90    4.00
  -5   0  15   69.59    5.00
   5   0 -15   66.69    5.50
   5   0 -15   71.49    5.00
   4   0 -15   -0.70    1.00
   4   0 -15    0.80    1.30
  -4   0  15    0.60    0.90
  -4   0  15    0.80    1.00
   4   0 -15   -1.20    1.00
   3   0 -15  192.48   10.90
  -3   0  15  198.28   10.60
   3   0 -15  205.68   11.40
   3   0 -15  211.58   11.50
  -3   0  15  182.58   10.70
   2   0 -15   -0.60    0.90
   2   0 -15   -0.80    0.80
   2   0 -15    0.80    0.90
  -2   0  15    0.00    0.70
  -1   0  15   13.10    1.70
  -1   0  15   15.80    2.10
   1   0 -15   16.30    2.10
   1   0 -15   10.80    1.90
   0   0  15    0.60    0.70
   0   0  15   -0.30    0.70
   0   0 -15   -1.20    0.70
   0   0  15    0.50    0.80
   0   0 -15    0.20    0.80
   1   0  15   21.10    1.90
   1   0  15   19.60    2.00
   1   0  15   21.00    2.10
  -1   0 -15   15.70    2.10
  -1   0 -15   16.60    2.10
   2   0  15    0.00    0.80
  -2   0 -15    0.20    0.90
  -2   0 -15    0.10    0.80
   2   0  15    2.30    0.90
   3   0  15    0.50    0.90
  -3   0 -15    1.20    1.00
  -3   0 -15    0.50    1.00
   3   0  15    2.20    1.00
  -5  -1  15   47.60    4.00
  -5   1  15   53.39    3.80
  -5   1  15   51.19    4.10
   5   1 -15   54.69    4.90
   5   1 -15   53.29    4.20
  -4  -1  15   14.60    1.80
  -4  -1  15   17.80    2.30
   4  -1 -15   15.30    2.20
   4   1 -15   20.70    3.00
   4   1 -15   12.70    2.10
   4   1 -15   12.70    2.40
  -4   1  15   14.80    1.90
  -4   1  15   17.30    2.20
   3  -1 -15  101.39    6.80
  -3  -1  15  102.79    6.00
   3  -1 -15  111.29    6.50
  -3   1  15  103.39    6.10
   3   1 -15  101.09    6.90
  -3   1  15  105.49    6.30
   3   1 -15  100.19    6.40
   3   1 -15  106.29    6.80
  -2  -1  15  722.53   34.30
   2  -1 -15  704.73   35.20
   2  -1 -15  647.14   34.60
  -2   1  15  704.03   34.60
   2   1 -15  702.23   34.60
   2   1 -15  690.23   35.10
  -2   1  15  702.73   34.30
   2   1 -15  667.23   35.00
  -1  -1  15  171.88    9.30
   1  -1 -15  176.48    9.70
   1  -1 -15  184.88   10.20
  -1  -1  15  179.58    9.50
   1   1 -15  172.98    9.70
  -1   1  15  175.78    9.80
   1   1 -15  159.88    9.80
  -1   1  15  176.18    9.40
   0  -1 -15    5.40    1.30
   0  -1  15    6.50    1.20
   0  -1  15    4.10    1.00
   0  -1 -15    5.60    1.50
   0  -1  15    6.00    1.10
   0   1  15    5.40    1.30
   0   1 -15    4.60    1.30
   0   1  15    4.90    1.00
   0   1 -15    5.20    1.20
   0   1  15    5.30    1.10
   1  -1  15   40.50    2.80
  -1  -1 -15   36.00    3.00
  -1  -1 -15   34.80    3.20
   1  -1  15   38.70    3.00
   1  -1  15   35.30    2.70
   1   1  15   35.50    2.80
  -1   1 -15   38.40    3.10
   1   1  15   40.20    3.00
  -1   1 -15   38.60    2.90
   1   1  15   33.00    2.70
  -2  -1 -15  296.67   16.10
  -2  -1 -15  313.67   15.90
   2  -1  15  300.37   15.50
   2  -1  15  296.57   15.50
   2  -1  15  289.37   15.70
   2   1  15  308.57   15.40
  -2   1 -15  299.77   15.80
   2   1  15  293.07   15.60
  -2   1 -15  306.37   15.70
   2   1  15  302.07   15.60
   3  -1  15   36.80    3.00
  -3  -1 -15   42.10    3.60
  -3  -1 -15   46.30    3.40
   3  -1  15   36.30    3.00
   3  -1  15   39.90    3.00
   3   1  15   35.40    3.00
  -3   1 -15   37.40    3.10
   3   1  15   38.40    3.00
  -3   1 -15   39.60    3.20
  -4  -2  15    2.70    1.10
   4  -2 -15    2.00    1.20
   4   2 -15    1.70    1.50
   4   2 -15    2.10    1.20
  -4   2  15    2.80    1.10
   4   2 -15    1.30    1.30
  -4   2  15    2.60    1.20
   3  -2 -15   58.29    4.40
   3  -2 -15   61.49    4.90
  -3  -2  15   66.79    4.10
   3   2 -15   58.49    4.90
   3   2 -15   74.49    5.10
   3   2 -15   68.59    4.60
  -3   2  15   68.19    4.20
  -3   2  15   62.89    4.50
   2  -2 -15   35.00    3.20
   2  -2 -15   30.80    2.70
  -2  -2  15   24.10    2.20
   2   2 -15   28.60    2.80
   2   2 -15   25.60    3.40
   2   2 -15   26.90    2.60
  -2   2  15   25.20    2.70
  -2   2  15   24.20    2.40
   1  -2 -15    4.70    1.50
  -1  -2  15    3.10    0.90
  -1  -2  15    3.10    0.90
   1  -2 -15    2.70    1.10
  -1  -2  15    1.20    0.80
   1   2 -15    3.70    1.20
  -1   2  15    3.20    1.20
  -1   2  15    2.30    0.90
  -1   2  15    2.70    1.00
   1   2 -15    3.00    1.10
   0  -2  15   11.00    1.40
   0  -2  15    8.10    1.30
   0  -2 -15    7.20    1.70
   0  -2 -15    7.30    1.50
   0  -2  15    7.60    1.40
   0   2 -15    6.90    1.40
   0   2  15    9.70    1.80
   0   2 -15    9.40    1.50
   0   2  15    7.50    1.30
   0   2  15    6.40    1.20
  -1  -2 -15  113.29    6.70
  -1  -2 -15  115.69    7.00
   1  -2  15  108.29    6.10
   1  -2  15  106.99    6.20
   1  -2  15  105.19    6.40
  -1   2 -15  103.09    6.40
  -1   2 -15  105.79    6.30
   1   2  15  112.69    6.30
   1   2  15  112.79    6.70
   1   2  15  112.09    6.40
   2  -2  15  124.79    7.20
   2  -2  15  123.99    7.10
  -2  -2 -15  124.09    7.60
  -2  -2 -15  126.99    7.90
   2  -2  15  124.69    7.20
   2   2  15  137.99    7.40
  -2   2 -15  131.99    7.30
   2   2  15  124.79    7.40
  -2   2 -15  130.79    7.20
   2   2  15  124.69    7.20
   3  -2  15   44.70    3.40
   3  -2  15   44.70    3.30
   3  -2  15   50.39    3.50
  -3  -2 -15   52.79    4.20
  -3  -2 -15   50.59    3.90
   3   2  15   48.80    3.50
   3   2  15   40.50    3.30
   3   2  15   46.20    3.60
  -3   2 -15   50.59    3.50
  -4  -3  15   45.20    3.30
  -4   3  15   49.90    3.90
   4   3 -15   37.20    4.10
   4   3 -15   51.29    4.30
  -4   3  15   46.00    3.50
   4   3 -15   43.00    3.80
  -3  -3  15   11.70    1.50
   3  -3 -15   11.80    1.90
  -3   3  15   10.90    1.90
   3   3 -15   11.90    2.00
   3   3 -15   13.50    2.30
  -3   3  15   10.30    1.60
   3   3 -15   10.60    2.20
   2  -3 -15   -0.40    0.80
  -2  -3  15   -0.10    0.70
   2  -3 -15   -1.40    0.90
   2   3 -15   -0.10    0.80
  -2   3  15    1.20    1.20
  -2   3  15   -0.60    0.70
   2   3 -15   -0.30    0.80
  -2   3  15    0.40    0.90
   1  -3 -15  124.49    7.70
  -1  -3  15  120.89    6.70
  -1  -3  15  112.79    6.90
  -1  -3  15  118.09    6.60
   1  -3 -15  129.09    7.30
   1   3 -15  116.09    7.00
   1   3 -15  129.19    7.30
  -1   3  15  121.39    6.90
  -1   3  15  121.59    7.20
  -1   3  15  121.69    7.60
   0  -3  15   73.49    4.70
   0  -3 -15   65.49    4.80
   0  -3 -15   79.59    5.40
   0  -3  15   71.09    4.40
   0  -3  15   76.39    4.30
   0   3  15   71.89    4.50
   0   3 -15   76.59    4.60
   0   3  15   66.49    4.90
   0   3  15   69.29    5.10
   0   3 -15   71.49    4.70
   0   3  15   74.19    4.50
   1  -3  15    4.00    1.60
  -1  -3 -15    3.70    1.30
  -1  -3 -15    2.40    1.30
   1  -3  15    3.40    1.00
   1  -3  15    3.20    1.00
  -1   3 -15    5.50    1.20
  -1   3 -15    3.10    1.00
   1   3  15    4.50    1.20
   1   3  15    1.20    0.90
   1   3  15    3.40    1.30
  -2  -3 -15   -0.20    0.90
   2  -3  15    0.10    0.60
  -2  -3 -15    1.30    1.20
   2  -3  15   -0.30    0.50
   2  -3  15    0.60    0.80
   2   3  15    1.00    0.90
   2   3  15   -0.30    0.70
  -2   3 -15    0.40    0.70
   2   3  15    0.30    1.00
  -3  -3 -15  133.49    8.10
   3  -3  15  128.79    7.50
   3   3  15  128.39    7.60
   3   3  15  138.79    7.90
   4  -4 -15    1.40    0.90
  -4   4  15    0.50    1.10
  -4   4  15    0.30    1.00
   4   4 -15    1.40    1.50
   3   4 -15    3.20    1.40
   3   4 -15    2.40    1.30
  -3   4  15    3.50    1.10
  -3   4  15    4.50    1.50
   2  -4 -15    0.10    1.00
   2   4 -15    0.30    0.90
  -2   4  15    0.80    0.90
  -2   4  15    0.80    1.20
   2   4 -15    0.10    0.90
  -2   4  15   -0.60    0.90
  -1  -4  15    8.60    1.30
   1  -4 -15    7.30    1.90
   1  -4 -15    7.00    1.60
  -1   4  15    5.20    1.10
  -1   4  15    5.30    1.40
  -1   4  15    5.30    1.20
   1   4 -15    7.40    1.60
  -1   4  15    7.50    1.80
   1   4 -15    6.80    1.50
   0  -4  15   80.89    5.20
   0  -4 -15   93.09    6.20
   0  -4  15   91.49    5.10
   0  -4 -15   89.39    5.70
   0   4  15   84.39    5.10
   0   4 -15   84.99    5.30
   0   4  15   79.09    5.40
   0   4 -15   84.09    5.20
   0   4  15   79.59    5.20
   0   4  15   90.49    6.00
  -1  -4 -15  194.08   12.00
   1  -4  15  212.58   11.00
   1  -4  15  212.58   11.00
  -1  -4 -15  213.18   11.70
   1  -4  15  208.78   11.00
   1   4  15  216.98   11.90
  -1   4 -15  196.88   11.10
   1   4  15  217.78   11.20
   1   4  15  202.38   11.00
  -1   4 -15  205.58   11.10
   2  -4  15    6.40    1.10
  -2  -4 -15    9.40    2.20
   2  -4  15    6.50    1.10
  -2  -4 -15    7.20    1.70
   2  -4  15    9.00    1.40
  -2   4 -15    7.80    1.20
   2   4  15    7.60    1.80
   2   4  15    4.90    1.30
   2   4  15    6.00    1.30
   3   5 -15   66.49    5.00
  -3   5  15   75.79    5.70
  -3   5  15   66.49    4.60
   3   5 -15   68.49    5.20
  -2   5  15   -0.10    0.90
   2   5 -15    0.00    1.00
  -2   5  15    0.00    1.20
  -2   5  15    0.80    1.10
   2   5 -15    0.80    1.00
  -1  -5  15    1.40    0.90
   1  -5 -15    1.10    1.10
  -1  -5  15    1.00    1.10
   1   5 -15    2.60    1.10
  -1   5  15    0.70    0.90
  -1   5  15    1.80    1.20
  -1   5  15    1.10    0.80
  -1   5  15    2.20    1.40
   1   5 -15    1.10    1.00
   0  -5 -15    0.80    1.00
   0  -5  15    0.40    0.70
   0   5  15    1.50    1.10
   0   5  15    0.20    0.80
   0   5  15    1.00    0.90
   0   5 -15    1.30    1.00
   0   5 -15    0.60    0.80
   0   5  15    0.40    1.30
  -1  -5 -15   39.60    3.60
   1  -5  15   44.50    3.00
   1  -5  15   39.20    2.90
  -1  -5 -15   46.50    4.30
   1   5  15   40.10    3.20
   1   5  15   39.90    3.10
   1   5  15   42.60    4.00
  -1   5 -15   43.50    3.00
  -4   0  16   71.19    4.80
   4   0 -16   78.59    5.80
   4   0 -16   75.39    5.70
  -4   0  16   78.19    5.20
   4   0 -16   72.19    5.20
  -3   0  16    0.50    0.80
   3   0 -16   -0.70    1.00
   3   0 -16   -0.10    1.10
   3   0 -16    0.40    1.20
  -2   0  16    3.70    1.10
   2   0 -16    5.90    1.60
   2   0 -16    4.50    1.30
  -1   0  16    0.30    0.70
   1   0 -16   -0.20    0.90
   1   0 -16    0.30    0.90
  -1   0  16    0.50    0.90
   0   0  16  135.59    7.50
   0   0 -16  142.59    7.90
   0   0  16  134.09    7.70
   0   0  16  134.09    7.50
   0   0 -16  132.59    8.10
   1   0  16    0.00    0.80
   1   0  16    0.00    0.80
  -1   0 -16   -0.60    0.80
   1   0  16    0.00    0.70
  -1   0 -16    0.00    0.90
  -2   0 -16    7.80    1.70
   2   0  16    5.70    1.20
   2   0  16    8.50    1.50
  -2   0 -16    9.90    1.70
  -3   0 -16    1.10    1.10
  -3   0 -16    0.20    0.90
   3   0  16    0.00    0.90
   3   0  16   -1.10    0.90
   4  -1 -16   11.60    2.10
  -4  -1  16    6.50    1.30
   4   1 -16    8.80    2.00
  -4   1  16    5.70    1.30
  -4   1  16    8.70    1.80
   4   1 -16    6.60    1.90
   4   1 -16    8.20    1.80
   3  -1 -16   47.70    4.10
  -3  -1  16   41.20    3.10
   3  -1 -16   50.19    3.80
  -3   1  16   47.20    3.60
  -3   1  16   41.40    3.30
   3   1 -16   43.30    3.60
   3   1 -16   40.80    4.00
   3   1 -16   44.90    3.90
   2  -1 -16   21.20    2.50
   2  -1 -16   21.90    2.90
  -2  -1  16   19.90    2.10
   2   1 -16   14.30    2.30
   2   1 -16   18.70    2.40
  -2   1  16   17.80    3.00
   2   1 -16   16.50    2.50
  -2   1  16   16.70    1.90
  -1  -1  16    0.20    0.80
  -1  -1  16    0.80    0.90
   1  -1 -16    1.70    1.20
   1  -1 -16    0.30    0.90
  -1  -1  16    0.60    0.70
  -1   1  16    0.40    0.80
   1   1 -16    0.10    0.90
   1   1 -16    0.40    0.90
  -1   1  16    1.10    1.00
   0  -1  16    1.60    0.80
   0  -1 -16    1.30    1.00
   0  -1  16    1.70    0.90
   0  -1 -16    1.10    1.10
   0  -1  16    1.70    0.80
   0   1  16    0.70    0.90
   0   1 -16    1.10    1.00
   0   1 -16    0.40    0.80
   0   1  16    1.20    0.80
   0   1  16    1.60    1.00
  -1  -1 -16    6.80    1.60
  -1  -1 -16    5.30    1.40
   1  -1  16    7.00    1.30
   1  -1  16    7.20    1.40
   1   1  16    8.90    1.50
   1   1  16    5.70    1.20
  -1   1 -16    8.60    1.70
   1   1  16    9.50    1.50
  -1   1 -16    9.50    1.60
   2  -1  16    1.90    0.90
   2  -1  16    2.50    1.00
   2  -1  16    1.40    0.90
  -2  -1 -16    3.50    1.30
  -2  -1 -16    1.20    1.10
   2   1  16    2.20    1.00
  -2   1 -16    3.00    1.20
   2   1  16    3.60    1.20
  -2   1 -16    2.20    1.00
   4  -2 -16    8.20    1.80
  -4  -2  16    9.00    1.60
   4   2 -16    7.30    2.10
  -4   2  16    6.60    1.50
   4   2 -16    7.70    1.90
   4   2 -16   13.30    2.20
  -4   2  16    9.60    1.90
  -3  -2  16    3.50    1.00
   3  -2 -16    4.30    1.80
   3  -2 -16    5.70    1.50
  -3   2  16    6.50    1.50
   3   2 -16    3.30    1.50
   3   2 -16    4.00    1.30
  -3   2  16    1.60    1.10
   3   2 -16    6.50    1.80
   2  -2 -16    2.00    1.20
   2  -2 -16    0.40    0.90
  -2  -2  16    0.00    0.80
   2   2 -16    0.40    0.90
   2   2 -16    0.80    1.00
  -2   2  16   -0.40    1.10
  -2   2  16    1.00    1.00
  -2   2  16    1.30    0.90
  -1  -2  16    5.40    1.20
  -1  -2  16    6.40    1.20
   1  -2 -16    6.40    1.70
   1  -2 -16    7.90    1.70
  -1  -2  16    8.20    1.30
  -1   2  16    5.50    1.10
   1   2 -16    5.10    1.30
  -1   2  16    7.10    1.70
  -1   2  16    4.20    1.10
   1   2 -16    6.40    1.50
   0  -2 -16   12.20    2.20
   0  -2  16   12.60    1.70
   0  -2 -16   18.30    2.30
   0  -2  16   15.60    1.80
   0   2  16   12.60    1.70
   0   2  16   12.60    1.70
   0   2 -16   14.80    1.90
   0   2  16   14.00    2.10
   0   2 -16   14.10    2.10
  -1  -2 -16   13.60    2.10
   1  -2  16    7.20    1.30
   1  -2  16   10.20    1.60
   1  -2  16    5.40    1.20
  -1  -2 -16   11.80    2.20
   1   2  16   10.40    1.60
   1   2  16   11.50    1.90
   1   2  16    7.00    1.30
  -1   2 -16    9.90    1.60
  -1   2 -16    9.80    1.70
  -2  -2 -16   25.00    3.10
   2  -2  16   26.90    2.40
   2  -2  16   23.70    2.40
   2  -2  16   24.80    2.40
  -2  -2 -16   28.30    3.00
   2   2  16   24.10    2.60
  -2   2 -16   23.70    2.40
   2   2  16   23.40    2.40
  -2   2 -16   23.30    2.40
   2   2  16   25.00    2.50
   4   3 -16    1.40    1.50
  -3  -3  16    0.50    0.80
   3  -3 -16   -0.50    0.90
   3   3 -16    0.50    1.10
  -3   3  16    0.50    1.00
  -3   3  16   -0.30    1.00
   3   3 -16   -0.20    1.10
  -2  -3  16    3.20    1.00
   2  -3 -16    3.30    1.50
   2  -3 -16    3.20    1.20
  -2   3  16    3.20    1.50
  -2   3  16    3.30    1.30
  -2   3  16    3.70    1.20
   2   3 -16    2.80    1.10
   2   3 -16    3.70    1.40
   1  -3 -16    6.70    1.60
  -1  -3  16    4.70    1.10
  -1  -3  16    4.30    1.00
   1  -3 -16    6.10    1.80
  -1   3  16    3.70    1.10
  -1   3  16    3.70    1.20
  -1   3  16    4.60    1.50
   1   3 -16    5.30    1.40
   1   3 -16    4.40    1.40
  -1   3  16    4.80    1.30
   0  -3 -16   -0.60    0.90
   0  -3  16   -0.50    0.70
   0  -3 -16    0.80    1.10
   0  -3  16   -0.30    0.70
   0   3  16    1.70    1.00
   0   3  16    0.40    0.80
   0   3 -16    0.30    0.80
   0   3  16    1.60    1.20
   0   3 -16   -0.10    0.80
  -1  -3 -16    3.10    1.20
   1  -3  16    1.80    0.90
  -1  -3 -16    1.70    1.30
   1  -3  16    0.00    0.80
  -1   3 -16    2.30    1.00
   1   3  16    1.40    1.00
   1   3  16   -0.10    1.00
   1   3  16    0.10    1.10
  -1   3 -16    1.60    1.00
  -2  -3 -16    3.70    1.60
  -2  -3 -16    4.70    1.50
   2  -3  16    3.60    1.10
   2  -3  16    4.50    1.00
   2   3  16    3.80    1.20
   2   3  16    2.80    1.20
   2   3  16    3.80    1.20
  -2   3 -16    4.50    1.20
  -3   4  16    2.90    1.40
   3   4 -16    1.00    1.20
   3   4 -16    0.90    1.20
  -3   4  16    1.00    1.10
   2  -4 -16   13.80    2.20
  -2   4  16   17.30    2.60
   2   4 -16   14.50    2.20
  -2   4  16   12.40    1.80
  -2   4  16   19.80    2.50
   2   4 -16   13.50    2.20
  -1  -4  16   71.29    4.50
   1  -4 -16   61.19    5.30
   1  -4 -16   76.19    5.20
  -1   4  16   74.49    5.10
  -1   4  16   68.09    4.60
   1   4 -16   74.59    5.00
   1   4 -16   75.49    4.90
  -1   4  16   77.29    5.50
  -1   4  16   70.39    4.50
   0  -4  16   29.20    2.70
   0  -4 -16   31.70    3.80
   0  -4 -16   34.40    3.10
   0  -4  16   26.60    2.60
   0   4  16   32.10    2.60
   0   4 -16   33.40    2.80
   0   4 -16   29.90    2.60
   0   4  16   30.30    3.30
   0   4  16   27.20    2.80
   1  -4  16   29.10    2.40
   1  -4  16   26.20    2.50
  -1  -4 -16   23.50    2.90
  -1  -4 -16   31.00    3.70
   1   4  16   20.70    2.90
   1   4  16   30.90    2.80
   1   4  16   26.00    2.70
  -1   4 -16   27.10    2.40
   1  -5 -16    5.20    1.60
  -1   5  16    1.90    1.10
  -1   5  16    2.90    1.40
  -1   5  16    2.50    1.00
  -1   5  16    3.60    1.70
   1   5 -16    3.00    1.20
   1   5 -16    3.80    1.30
   0  -5  16   11.60    1.70
   0  -5 -16   10.70    2.00
   0   5  16   13.10    2.30
   0   5 -16   13.50    1.90
   0   5  16   11.80    1.70
   0   5  16   14.20    2.20
   0   5 -16   13.40    1.90
   0   5  16   10.20    1.70
   4   0 -17   -0.70    1.30
  -4   0  17    0.60    1.00
   4   0 -17   -1.00    1.20
   4   0 -17   -0.80    1.10
   3   0 -17  460.85   23.60
  -3   0  17  454.75   23.20
   3   0 -17  477.05   24.20
   3   0 -17  436.56   24.10
  -2   0  17    0.10    0.80
   2   0 -17    0.90    1.00
  -2   0  17    1.50    1.10
   2   0 -17    0.50    1.10
  -1   0  17    5.30    1.30
  -1   0  17    7.60    1.60
   1   0 -17    8.70    1.80
   1   0 -17    6.00    1.50
  -1   0  17    7.40    1.40
   0   0  17    1.20    0.90
   0   0 -17    1.30    1.00
   0   0 -17    1.20    1.00
   0   0  17    2.80    1.00
   0   0  17    0.90    0.80
  -1   0 -17   15.40    2.30
  -1   0 -17   17.80    2.30
   1   0  17   14.20    1.90
   1   0  17   15.90    2.00
   2   0  17   -1.30    0.80
  -2   0 -17    0.00    1.00
  -2   0 -17   -0.70    0.90
   2   0  17    0.10    0.90
  -4   1  17  197.68   10.90
   4   1 -17  181.18   11.40
   3  -1 -17  168.68    9.30
   3  -1 -17  165.78    9.80
  -3  -1  17  154.78    8.70
   3   1 -17  168.08    9.80
   3   1 -17  130.69    9.40
  -3   1  17  156.68    8.80
   3   1 -17  162.48    9.30
   2  -1 -17   66.49    4.60
   2  -1 -17   64.69    5.00
  -2   1  17   66.69    4.80
   2   1 -17   56.59    4.40
  -2   1  17   61.99    4.10
   2   1 -17   58.89    4.90
   2   1 -17   62.49    4.80
   1  -1 -17   19.10    2.40
  -1  -1  17   18.00    2.20
   1  -1 -17   13.50    2.30
  -1  -1  17   17.60    2.00
  -1  -1  17   20.50    2.10
   1   1 -17   16.70    2.50
  -1   1  17   15.20    1.90
  -1   1  17   15.70    2.40
   1   1 -17   17.60    2.30
  -1   1  17   13.00    1.70
   0  -1 -17   59.79    4.50
   0  -1  17   51.39    3.60
   0  -1 -17   49.90    4.10
   0  -1  17   56.79    3.70
   0  -1  17   57.39    3.70
   0   1  17   58.39    3.80
   0   1 -17   53.79    4.20
   0   1  17   52.69    4.00
   0   1  17   55.49    3.80
   0   1 -17   55.99    4.00
  -1  -1 -17  174.28    9.30
  -1  -1 -17  167.78    9.70
   1  -1  17  161.88    8.90
   1  -1  17  158.28    8.80
  -1   1 -17  161.48    9.30
   1   1  17  157.68    8.90
   1   1  17  159.08    8.90
  -1   1 -17  157.58    9.10
   1   1  17  155.98    9.00
  -2  -1 -17    6.40    1.80
   2  -1  17    3.00    1.00
  -2  -1 -17    3.90    1.40
   2  -1  17    4.90    1.20
  -2   1 -17    4.70    1.30
   2   1  17    3.90    1.20
   2   1  17    4.80    1.30
  -2   1 -17    3.80    1.30
   3  -2 -17  222.38   11.70
  -3  -2  17  198.58   11.00
  -3   2  17  207.68   11.50
   3   2 -17  197.28   12.10
   3   2 -17  205.78   12.00
   3   2 -17  208.38   11.60
  -3   2  17  206.38   11.20
  -2  -2  17  103.19    6.30
  -2  -2  17  110.29    6.60
   2  -2 -17  114.99    7.40
   2  -2 -17  108.99    6.80
  -2   2  17  110.49    7.10
   2   2 -17  103.79    7.10
   2   2 -17  115.99    6.80
  -2   2  17  106.59    6.40
  -1  -2  17    1.90    0.90
  -1  -2  17    0.60    0.80
   1  -2 -17    1.20    1.10
  -1  -2  17   -0.40    0.70
   1  -2 -17    2.30    1.30
  -1   2  17    0.70    0.80
  -1   2  17    2.80    1.30
   1   2 -17    0.80    1.00
   1   2 -17    1.00    1.00
  -1   2  17    0.10    0.80
   0  -2 -17   66.99    5.10
   0  -2  17   67.09    4.30
   0  -2 -17   71.09    4.80
   0  -2  17   64.09    4.30
   0   2 -17   67.09    4.80
   0   2  17   66.49    4.40
   0   2 -17   74.59    4.70
   0   2  17   70.39    4.90
   0   2  17   72.29    4.60
   1  -2  17   50.69    3.60
  -1  -2 -17   51.59    4.40
  -1  -2 -17   48.10    4.00
   1  -2  17   51.99    3.70
   1  -2  17   51.09    4.20
   1   2  17   51.89    4.00
  -1   2 -17   58.19    4.10
  -1   2 -17   51.59    3.80
   1   2  17   54.89    3.80
   1   2  17   53.39    3.70
   3  -3 -17  151.58    8.60
  -3  -3  17  136.69    7.90
   3   3 -17  150.48    8.60
  -3   3  17  139.69    8.60
   3   3 -17  129.29    8.80
  -3   3  17  146.29    8.20
   2  -3 -17   19.40    2.60
   2  -3 -17   12.90    2.50
  -2  -3  17   14.90    2.00
  -2  -3  17   18.30    2.10
  -2   3  17   16.20    2.30
   2   3 -17   19.00    2.60
  -2   3  17   18.50    2.30
   2   3 -17   18.30    2.40
  -2   3  17   18.50    2.80
  -1  -3  17   56.59    3.70
   1  -3 -17   59.49    4.30
   1  -3 -17   52.19    4.70
   1   3 -17   54.79    4.00
  -1   3  17   53.19    4.50
  -1   3  17   51.89    3.70
  -1   3  17   54.79    3.90
   1   3 -17   54.19    4.20
   0  -3  17   89.49    5.30
   0  -3 -17   84.59    6.20
   0  -3 -17   97.19    6.00
   0   3 -17   84.79    5.50
   0   3 -17   84.69    5.70
   0   3  17   89.69    5.50
   0   3  17   87.09    6.00
   0   3  17   80.49    5.30
   1  -3  17  318.47   16.50
  -1  -3 -17  335.97   17.70
  -1  -3 -17  331.57   17.20
   1  -3  17  285.67   16.60
  -1   3 -17  322.27   16.70
   1   3  17  324.47   16.60
   1   3  17  312.97   16.70
  -1   3 -17  317.67   16.80
   1   3  17  337.77   17.20
   2  -4 -17  172.48    9.90
  -2  -4  17  163.38    9.30
  -2   4  17  179.08    9.90
  -2   4  17  163.38   10.30
  -2   4  17  171.48    9.50
   2   4 -17  172.48    9.80
   1  -4 -17    0.30    2.10
  -1  -4  17    1.30    1.00
   1  -4 -17    2.20    1.30
   1   4 -17    1.00    1.00
  -1   4  17    2.80    1.00
  -1   4  17    0.70    1.30
  -1   4  17    1.60    1.20
   1   4 -17    2.10    1.20
  -1   4  17    0.70    1.00
   0  -4  17   18.40    2.10
   0  -4 -17   17.60    2.80
   0  -4 -17   19.70    2.60
   0  -4  17   20.30    2.40
   0   4  17   20.10    2.20
   0   4 -17   23.50    2.40
   0   4  17   18.30    2.30
   0   4 -17   17.80    2.20
   0   4  17   22.80    3.00
   3   0 -18    0.50    1.30
  -3   0  18   -0.10    0.90
   3   0 -18    0.40    1.20
  -2   0  18    5.00    1.20
   2   0 -18    7.60    1.80
   2   0 -18    3.90    1.40
  -2   0  18    5.40    1.50
  -1   0  18    0.00    0.80
   1   0 -18   -0.10    1.00
  -1   0  18    0.30    0.80
  -1   0  18   -0.70    0.90
   1   0 -18   -0.50    1.00
   0   0  18   55.39    3.90
   0   0 -18   60.99    4.70
   0   0  18   54.49    3.90
   0   0 -18   59.29    4.40
   0   0  18   61.19    4.10
  -1   0 -18   -0.20    0.90
  -1   0 -18    0.40    1.00
   1   0  18    0.00    0.80
   1   0  18    1.70    1.00
   3  -1 -18   31.80    3.90
  -3  -1  18   24.60    2.60
   3  -1 -18   23.60    2.90
   3   1 -18   26.90    3.10
   3   1 -18   21.10    3.10
   3   1 -18   32.30    3.70
  -3   1  18   24.80    2.60
  -2  -1  18    0.60    1.00
   2  -1 -18    0.00    1.00
   2  -1 -18    0.50    1.20
  -2  -1  18   -1.10    0.90
   2   1 -18    0.60    1.10
  -2   1  18    0.00    0.80
   2   1 -18   -0.10    1.00
  -2   1  18   -0.90    0.90
  -1  -1  18   54.29    3.90
  -1  -1  18   54.79    3.70
   1  -1 -18   56.59    4.60
   1  -1 -18   59.89    4.30
  -1  -1  18   52.69    3.70
  -1   1  18   53.29    4.20
  -1   1  18   52.89    3.80
  -1   1  18   55.39    3.80
   1   1 -18   54.19    4.10
   1   1 -18   50.09    4.30
   0  -1  18    1.60    1.00
   0  -1  18    1.50    1.00
   0  -1 -18    1.60    1.30
   0  -1 -18    2.20    1.20
   0   1 -18    2.60    1.20
   0   1  18    3.10    1.10
   0   1  18    3.50    1.10
   0   1  18    3.60    1.20
   0   1 -18    2.10    1.20
   1  -1  18    0.80    1.00
  -1  -1 -18    1.80    1.20
  -1  -1 -18    2.50    1.30
   1  -1  18    2.70    1.10
  -1   1 -18    1.80    1.10
   1   1  18    1.20    1.00
   1   1  18    1.40    1.10
   1   1  18    0.10    0.80
  -1   1 -18    0.90    1.10
  -2  -2  18    6.30    1.40
   2  -2 -18    8.30    2.00
   2  -2 -18    6.50    1.70
  -2  -2  18    8.50    1.60
  -2   2  18    7.90    1.90
   2   2 -18    7.80    1.70
  -2   2  18    7.00    1.50
   2   2 -18    9.00    2.00
   1  -2 -18    3.50    1.60
  -1  -2  18    5.30    1.20
   1  -2 -18    4.90    1.50
  -1  -2  18    4.90    1.20
   1   2 -18    4.30    1.40
   1   2 -18    3.90    1.50
  -1   2  18    4.90    1.60
  -1   2  18    4.70    1.30
  -1   2  18    3.90    1.20
   0  -2 -18    0.00    1.00
   0  -2  18   -0.20    0.80
   0  -2  18   -0.30    0.80
   0  -2 -18   -0.70    1.10
   0   2 -18    0.40    1.00
   0   2  18    2.60    1.10
   0   2  18    0.40    1.10
   0   2 -18    0.80    1.10
   0   2  18   -0.40    0.80
   1  -3 -18   51.59    4.60
   1  -3 -18   47.30    4.10
  -1  -3  18   48.50    3.50
  -1   3  18   56.99    4.50
   1   3 -18   44.90    3.80
  -1   3  18   49.99    3.60
  -1   3  18   44.50    3.50
   1   3 -18   46.60    4.00
  -1   0  19   57.09    4.30
  -1   0  19   55.09    4.00
  -1   0  19   58.69    4.00
   0   0   0    0.00    0.00
_computing_structure_solution     'SHELXT 2014/5 (Sheldrick, 2014)'
;
_shelx_hkl_checksum              3063
_shelx_res_file
;
TITL mo_17ca_GRCC6_0m_a.res in P2(1)/n
    mo_17ca_grcc6_0m.res
    created by SHELXL-2018/3 at 14:30:58 on 10-Oct-2018
CELL 0.71073 5.4077 7.2026 14.2876 90 98.031 90
ZERR 2 0.0028 0.0037 0.0077 0 0.026 0
LATT 1
SYMM 0.5-X,0.5+Y,0.5-Z
SFAC C H N O
UNIT 12 36 12 8
EQIV $1 0.5-X,-0.5+Y,0.5-Z
EQIV $2 -1+X,+Y,+Z
DFIX 0.94 0.015 N1 H1a N1 H1b N1 H1c
L.S. 20
PLAN  -5 0 0
SIZE 0.261 0.406 0.435
TEMP -173
HTAB N1 O1_$1
HTAB N1 O2
HTAB N1 N2_$2
HTAB 2.0000
BOND $H
CONF
fmap 2
acta
OMIT 2 0 0
REM <olex2.extras>
REM <HklSrc "%.\\mo_17ca_GRCC6_0m.hkl">
REM </olex2.extras>
WGHT    0.044200    0.194200
FVAR       1.02088
O1    4    0.573117    0.509623    0.365742    11.00000    0.01040    0.01840 =
         0.01428    0.00067    0.00239    0.00332
O2    4    0.696133    0.323058    0.256662    11.00000    0.01504    0.01989 =
         0.01152   -0.00430   -0.00011   -0.00311
N2    3    0.982320    0.427476    0.370904    11.00000    0.00940    0.01522 =
         0.01189   -0.00126   -0.00033   -0.00029
N3    3    0.750260    0.423163    0.332613    11.00000    0.01077    0.01231 =
         0.01091    0.00119    0.00155   -0.00081
C3    1    1.032269    0.548303    0.454760    11.00000    0.01131    0.01321 =
         0.01139   -0.00153    0.00110   -0.00208
AFIX  23
H3A   2    0.932325    0.663346    0.443575    11.00000   -1.20000
H3B   2    1.210935    0.583655    0.464369    11.00000   -1.20000
AFIX   0
N1    3    0.261705    0.133168    0.296154    11.00000    0.01110    0.01229 =
         0.01067    0.00057   -0.00040   -0.00004
H1A   2    0.406026    0.183773    0.277843    11.00000    0.02326
H1B   2    0.173571    0.228580    0.320549    11.00000    0.01944
H1C   2    0.164444    0.081445    0.244390    11.00000    0.02609
C1    1    0.321514   -0.010240    0.372074    11.00000    0.01818    0.01214 =
         0.01174    0.00167   -0.00324   -0.00114
AFIX  23
H1D   2    0.411205   -0.114988    0.347103    11.00000   -1.20000
H1E   2    0.164198   -0.058994    0.390608    11.00000   -1.20000
AFIX   0
C2    1    0.482843    0.070851    0.459154    11.00000    0.01483    0.01210 =
         0.01106    0.00052   -0.00154   -0.00093
AFIX  23
H2A   2    0.402580    0.184428    0.479772    11.00000   -1.20000
H2B   2    0.648300    0.105825    0.442502    11.00000   -1.20000
AFIX   0
HKLF 4
REM  mo_17ca_GRCC6_0m_a.res in P2(1)/n
REM wR2 = 0.0861, GooF = S = 1.068, Restrained GooF = 1.068 for all data
REM R1 = 0.0308 for 1258 Fo > 4sig(Fo) and 0.0332 for all 1371 data
REM 85 parameters refined using 3 restraints
END
WGHT      0.0444      0.1935
REM Instructions for potential hydrogen bonds
EQIV $5 x+1, y, z
HTAB C3 O1_$5
EQIV $3 -x+2, -y+1, -z+1
HTAB C3 O1_$3
HTAB N1 O2
HTAB N1 N3
HTAB N1 N2_$2
HTAB N1 O1_$1
HTAB N1 N3_$1
REM Highest difference peak  0.424,  deepest hole -0.222,  1-sigma level  0.045
Q1    1   1.0000  0.5000  0.5000  10.50000  0.05    0.42
Q2    1   0.4034  0.0288  0.4153  11.00000  0.05    0.32
Q3    1   1.0017  0.4845  0.4152  11.00000  0.05    0.32
Q4    1   0.5000  0.0000  0.5000  10.50000  0.05    0.27
Q5    1   0.2918  0.0655  0.3342  11.00000  0.05    0.26
;
_shelx_res_checksum              74982
loop_
_space_group_symop_operation_xyz
'x, y, z'
'-x+1/2, y+1/2, -z+1/2'
'-x, -y, -z'
'x-1/2, -y-1/2, z-1/2'
loop_
_atom_site_type_symbol
_atom_site_label
_atom_site_fract_x
_atom_site_fract_y
_atom_site_fract_z
_atom_site_U_iso_or_equiv
_atom_site_adp_type
_atom_site_calc_flag
_atom_site_occupancy
O O1 0.57312(12) 0.50962(10) 0.36574(5) 0.01429(17) Uani d 1
O O2 0.69613(12) 0.32306(10) 0.25666(5) 0.01567(18) Uani d 1
N N2 0.98232(14) 0.42748(11) 0.37090(5) 0.01234(19) Uani d 1
N N3 0.75026(14) 0.42316(10) 0.33261(5) 0.01133(18) Uani d 1
C C3 1.03227(16) 0.54830(13) 0.45476(6) 0.0120(2) Uani d 1
H H3A 0.932325 0.663346 0.443575 0.014 Uiso calc 1
H H3B 1.210935 0.583655 0.464369 0.014 Uiso calc 1
N N1 0.26171(14) 0.13317(11) 0.29615(5) 0.01154(18) Uani d 1
H H1A 0.406(2) 0.1838(18) 0.2778(10) 0.023(3) Uiso d 1
H H1B 0.174(2) 0.2286(17) 0.3205(9) 0.019(3) Uiso d 1
H H1C 0.164(2) 0.0814(19) 0.2444(9) 0.026(4) Uiso d 1
C C1 0.32151(18) -0.01024(13) 0.37207(6) 0.0145(2) Uani d 1
H H1D 0.411205 -0.114988 0.347103 0.017 Uiso calc 1
H H1E 0.164198 -0.058994 0.390608 0.017 Uiso calc 1
C C2 0.48284(17) 0.07085(12) 0.45915(6) 0.0130(2) Uani d 1
H H2A 0.402580 0.184428 0.479772 0.016 Uiso calc 1
H H2B 0.648300 0.105825 0.442502 0.016 Uiso calc 1
loop_
_atom_site_aniso_label
_atom_site_aniso_U_11
_atom_site_aniso_U_22
_atom_site_aniso_U_33
_atom_site_aniso_U_12
_atom_site_aniso_U_13
_atom_site_aniso_U_23
O1 0.0104(3) 0.0184(4) 0.0143(3) 0.0033(2) 0.0024(2) 0.0007(2)
O2 0.0150(3) 0.0199(4) 0.0115(3) -0.0031(3) -0.0001(2) -0.0043(3)
N2 0.0094(3) 0.0152(4) 0.0119(4) -0.0003(3) -0.0003(3) -0.0013(3)
N3 0.0108(3) 0.0123(4) 0.0109(3) -0.0008(3) 0.0015(3) 0.0012(3)
C3 0.0113(4) 0.0132(4) 0.0114(4) -0.0021(3) 0.0011(3) -0.0015(3)
N1 0.0111(3) 0.0123(4) 0.0107(4) 0.0000(3) -0.0004(3) 0.0006(3)
C1 0.0182(4) 0.0121(4) 0.0117(4) -0.0011(3) -0.0032(3) 0.0017(3)
C2 0.0148(4) 0.0121(4) 0.0111(4) -0.0009(3) -0.0015(3) 0.0005(3)
loop_
_atom_type_symbol
_atom_type_description
_atom_type_scat_dispersion_real
_atom_type_scat_dispersion_imag
_atom_type_scat_source
C C 0.0033 0.0016 'International Tables Vol C Tables 4.2.6.8 and 6.1.1.4'
H H 0.0000 0.0000 'International Tables Vol C Tables 4.2.6.8 and 6.1.1.4'
N N 0.0061 0.0033 'International Tables Vol C Tables 4.2.6.8 and 6.1.1.4'
O O 0.0106 0.0060 'International Tables Vol C Tables 4.2.6.8 and 6.1.1.4'
loop_
_geom_angle_atom_site_label_1
_geom_angle_atom_site_label_2
_geom_angle_atom_site_label_3
_geom_angle_site_symmetry_1
_geom_angle_site_symmetry_3
_geom_angle
N3 N2 C3 . . 114.41(8)
O1 N3 O2 . . 118.84(8)
O1 N3 N2 . . 124.00(8)
N2 N3 O2 . . 117.16(8)
N2 C3 C3 . 3_766 112.06(10)
N2 C3 H3A . . 109.2
N2 C3 H3B . . 109.2
C3 C3 H3A 3_766 . 109.2
C3 C3 H3B 3_766 . 109.2
H3A C3 H3B . . 107.9
H1A N1 H1B . . 108.0(12)
H1A N1 H1C . . 109.8(13)
H1B N1 H1C . . 109.5(12)
C1 N1 H1A . . 111.6(8)
C1 N1 H1B . . 107.9(8)
C1 N1 H1C . . 110.0(9)
N1 C1 H1D . . 109.3
N1 C1 H1E . . 109.3
N1 C1 C2 . . 111.44(8)
H1D C1 H1E . . 108.0
C2 C1 H1D . . 109.3
C2 C1 H1E . . 109.3
C1 C2 C2 . 3_656 110.92(10)
C1 C2 H2A . . 109.5
C1 C2 H2B . . 109.5
C2 C2 H2A 3_656 . 109.5
C2 C2 H2B 3_656 . 109.5
H2A C2 H2B . . 108.0
loop_
_geom_bond_atom_site_label_1
_geom_bond_atom_site_label_2
_geom_bond_site_symmetry_2
_geom_bond_distance
O1 N3 . 1.2869(11)
O2 N3 . 1.3017(11)
N2 N3 . 1.2974(12)
N2 C3 . 1.4749(12)
C3 C3 3_766 1.5503(18)
C3 H3A . 0.9900
C3 H3B . 0.9900
N1 H1A . 0.931(11)
N1 H1B . 0.931(10)
N1 H1C . 0.924(11)
N1 C1 . 1.5000(12)
C1 H1D . 0.9900
C1 H1E . 0.9900
C1 C2 . 1.5320(13)
C2 C2 3_656 1.5420(18)
C2 H2A . 0.9900
C2 H2B . 0.9900
loop_
_geom_hbond_atom_site_label_D
_geom_hbond_atom_site_label_H
_geom_hbond_atom_site_label_A
_geom_hbond_site_symmetry_A
_geom_hbond_distance_DH
_geom_hbond_distance_HA
_geom_hbond_distance_DA
_geom_hbond_angle_DHA
_geom_hbond_publ_flag
N1 H1A O2 . 0.931(11) 1.921(11) 2.8422(15) 169.5(13) yes
N1 H1B N2 1_455 0.931(10) 1.961(11) 2.8927(15) 179.0(12) yes
N1 H1C O1 2_545 0.924(11) 1.957(11) 2.8723(16) 170.6(13) yes
loop_
_geom_torsion_atom_site_label_1
_geom_torsion_atom_site_label_2
_geom_torsion_atom_site_label_3
_geom_torsion_atom_site_label_4
_geom_torsion_site_symmetry_4
_geom_torsion
N3 N2 C3 C3 3_766 81.04(11)
C3 N2 N3 O1 . -2.72(12)
C3 N2 N3 O2 . 178.03(7)
N1 C1 C2 C2 3_656 173.34(9)
