#------------------------------------------------------------------------------
#$Date: 2018-07-14 05:03:57 +0300 (Sat, 14 Jul 2018) $
#$Revision: 209026 $
#$URL: file:///home/coder/svn-repositories/cod/cif/2/02/11/2021178.cif $
#------------------------------------------------------------------------------
#
# This file is available in the Crystallography Open Database (COD),
# http://www.crystallography.net/. The original data for this entry
# were provided by IUCr Journals, http://journals.iucr.org/.
#
# The file may be used within the scientific community so long as
# proper attribution is given to the journal article from which the
# data were obtained.
#
data_2021178
loop_
_publ_author_name
'Khoj, Manal A.'
'Hughes, Colan E.'
'Harris, Kenneth D. M.'
'Kariuki, Benson M.'
_publ_section_title
;
 Polymorphic phase transformations of 3-chloro-<i>trans</i>-cinnamic acid
 and its solid solution with 3-bromo-<i>trans</i>-cinnamic acid
;
_journal_coeditor_code           KU3223
_journal_issue                   8
_journal_name_full               'Acta Crystallographica Section C'
_journal_page_first
;
;
_journal_paper_doi               10.1107/S2053229618009269
_journal_volume                  74
_journal_year                    2018
_chemical_formula_iupac          'C9 H7 Br0.43 Cl0.57 O2'
_chemical_formula_moiety         'C9 H7 Br0.43 Cl0.57 O2'
_chemical_formula_sum            'C9 H7 Br0.43 Cl0.57 O2'
_chemical_formula_weight         201.49
_chemical_name_systematic
;
3-(3-Chloro/bromophenyl)prop-2-enoic acid
;
_space_group_crystal_system      monoclinic
_space_group_IT_number           14
_space_group_name_H-M_alt        'P 1 21/a 1'
_symmetry_space_group_name_Hall  '-P 2yab'
_symmetry_space_group_name_H-M   'P 1 21/a 1'
_atom_sites_solution_hydrogens   mixed
_audit_creation_method           SHELXL-2013
_cell_angle_alpha                90
_cell_angle_beta                 94.871(6)
_cell_angle_gamma                90
_cell_formula_units_Z            4
_cell_length_a                   12.3957(8)
_cell_length_b                   4.9381(2)
_cell_length_c                   14.2102(12)
_cell_measurement_reflns_used    1154
_cell_measurement_temperature    296(2)
_cell_measurement_theta_max      72.2860
_cell_measurement_theta_min      6.2410
_cell_volume                     866.68(10)
_computing_cell_refinement
;
CrysAlis PRO (Rigaku OD, 2015)
;
_computing_data_collection
;
CrysAlis PRO (Rigaku OD, 2015)
;
_computing_data_reduction
;
CrysAlis PRO (Rigaku OD, 2015)
;
_computing_publication_material
;
SHELXL2013 (Sheldrick, 2015b)
;
_computing_structure_refinement
;
SHELXL2013 (Sheldrick, 2015b)
;
_computing_structure_solution
;
SHELXS2013 (Sheldrick, 2015a)
;
_diffrn_ambient_temperature      296(2)
_diffrn_measured_fraction_theta_full 0.990
_diffrn_measured_fraction_theta_max 0.949
_diffrn_measurement_device_type
'Agilent SuperNova Dual Source diffractometer with an Atlas detector'
_diffrn_measurement_method       '\w scans'
_diffrn_radiation_type           CuK\a
_diffrn_radiation_wavelength     1.54184
_diffrn_reflns_av_R_equivalents  0.0440
_diffrn_reflns_limit_h_max       15
_diffrn_reflns_limit_h_min       -14
_diffrn_reflns_limit_k_max       5
_diffrn_reflns_limit_k_min       -4
_diffrn_reflns_limit_l_max       15
_diffrn_reflns_limit_l_min       -17
_diffrn_reflns_number            2874
_diffrn_reflns_theta_full        67.684
_diffrn_reflns_theta_max         73.921
_diffrn_reflns_theta_min         6.252
_diffrn_standards_decay_%        0
_diffrn_standards_interval_count 0
_diffrn_standards_interval_time  0
_diffrn_standards_number         0
_exptl_absorpt_coefficient_mu    4.627
_exptl_absorpt_correction_T_max  0.969
_exptl_absorpt_correction_T_min  0.893
_exptl_absorpt_correction_type   gaussian
_exptl_absorpt_process_details
;
(CrysAlis PRO; Rigaku OD, 2015)
;
_exptl_crystal_colour            colourless
_exptl_crystal_density_diffrn    1.540
_exptl_crystal_description       needle
_exptl_crystal_F_000             405
_exptl_crystal_size_max          0.289
_exptl_crystal_size_mid          0.098
_exptl_crystal_size_min          0.048
_refine_diff_density_max         0.258
_refine_diff_density_min         -0.342
_refine_ls_extinction_method     none
_refine_ls_goodness_of_fit_ref   0.996
_refine_ls_hydrogen_treatment    mixed
_refine_ls_matrix_type           full
_refine_ls_number_parameters     123
_refine_ls_number_reflns         1670
_refine_ls_number_restraints     20
_refine_ls_restrained_S_all      0.990
_refine_ls_R_factor_all          0.0479
_refine_ls_R_factor_gt           0.0367
_refine_ls_shift/su_max          0.000
_refine_ls_shift/su_mean         0.000
_refine_ls_structure_factor_coef Fsqd
_refine_ls_weighting_details
'w=1/[\s^2^(Fo^2^)+(0.0580P)^2^] where P=(Fo^2^+2Fc^2^)/3'
_refine_ls_weighting_scheme      calc
_refine_ls_wR_factor_gt          0.0899
_refine_ls_wR_factor_ref         0.0972
_reflns_number_gt                1306
_reflns_number_total             1670
_reflns_threshold_expression     'I > 2\s(I)'
_cod_data_source_file            ku3223sup1.cif
_cod_data_source_block           I
_cod_database_code               2021178
_shelx_space_group_comment
;
The symmetry employed for this shelxl refinement is uniquely defined
by the following loop, which should always be used as a source of
symmetry information in preference to the above space-group names.
They are only intended as comments.
;
_shelx_estimated_absorpt_t_min   0.348
_shelx_estimated_absorpt_t_max   0.808
_shelx_hkl_file
;
  -1   0   0 6.33400 18.5375   9
  -2   0   0 11575.5 192.721   9
  -3   0   0 30.1479 54.3447   9
  -3   0   0 1.07255 81.0304   2
  -4   0   0 363097. 1532.44   9
  -4   0   0 363192. 1777.10   2
  -5   0   0 0.53160 110.674   2
  -5   0   0 61.2853 78.3914   9
  -6   0   0 460.480 150.312   2
  -6   0   0 634.926 119.636   9
  -7   0   0 22.1551 115.012   2
  -7   0   0 14.1045 167.234   1
  -7   0   0-23.9581 114.388   9
  -8   0   0 44709.1 1184.48   1
  -9   0   0 124.253 98.7063   8
  -9   0   0 262.380 123.788   1
 -10   0   0 16612.1 856.037   1
 -10   0   0 15947.8 445.677   8
 -11   0   0 20.3353 112.788   8
 -12   0   0-36.2401 117.376   8
 -13   0   0-47.7750 106.668   8
  14   0   0 556.714 103.577   5
 -14   0   0 592.894 112.877   8
  15   1   0 115.877 63.9779   5
 -13  -1   0 396.979 104.959   8
 -12  -1   0 356.612 120.739   8
 -11  -1   0 167.502 103.332   8
 -10  -1   0 125.309 110.252   8
 -10  -1   0 512.048 157.287   1
  -9  -1   0 3251.77 211.518   8
  -8  -1   0 25738.6 701.484   2
  -7  -1   0 1465.18 176.209   2
  -6  -1   0 71494.2 972.119   2
  -4  -1   0 36396.0 297.353   9
   0   1   0 764.665 76.2464   9
  -1   1   0 18556.5 324.300   9
  -2   1   0 149923. 1026.15   9
   2  -1   0 149543. 901.895  10
   3  -1   0 12382.7 285.374  10
  -3   1   0 12569.5 345.563   9
  -4   1   0 47738.3 864.710   1
   4  -1   0 46640.3 572.677  10
  -4   1   0 47648.9 729.388   9
  -5   1   0 5606.78 370.578   1
  -5   1   0 5813.53 298.793   9
  -6   1   0 76545.4 1372.81   1
  -6   1   0 74556.4 1088.56   9
  -7   1   0 1550.10 211.602   9
  -7   1   0 2075.97 290.910   1
  -8   1   0 23798.2 747.290   9
  -9   1   0 3384.89 315.811   9
  -9   1   0 2931.78 196.394   8
 -10   1   0 115.411 109.152   8
 -11   1   0 81.9238 118.630   8
 -12   1   0 355.597 123.725   8
 -13   1   0 265.005 118.913   8
 -14   1   0 209.422 91.6879   8
  14   2   0 416.108 86.8370   5
   8   2   0 859.765 138.076   3
   0   2   0 169574. 1182.91   9
  -1   2   0 11437.1 357.599   9
   1  -2   0 11596.9 404.275  10
   2  -2   0 23715.7 561.958  10
  -2   2   0 23690.3 547.223   9
  -3   2   0 9578.44 398.304   9
   3  -2   0 9825.32 364.016  10
  -4   2   0 3847.57 287.661   9
   4  -2   0 4111.60 242.064  10
  -5   2   0 2504.51 253.028   9
  -6   2   0 3049.64 298.078   9
  -7   2   0 9179.06 519.647   9
  -8   2   0 799.813 207.724   9
  -8   2   0 761.476 107.455   8
  -9   2   0 660.062 193.609   9
  -9   2   0 353.507 99.7120   8
 -10   2   0 10574.2 366.374   8
 -11   2   0 147.153 109.793   8
 -12   2   0 839.545 145.677   8
 -13   2   0 95.9622 69.7192   8
 -14   2   0 332.124 67.8230   8
  13   3   0 809.785 87.6317   5
  12   3   0 277.227 87.2456   6
  10   3   0 2618.24 226.971   3
   9   3   0 6106.82 336.701   3
   8   3   0 45.1202 115.333   3
   7   3   0 746.893 162.487   3
   6   3   0 6816.52 336.160   3
   5   3   0 51053.5 817.924   3
   0  -3   0 99.1065 145.051  10
   1  -3   0 16685.0 636.167  10
  -2   3   0 13523.3 535.105   9
   2  -3   0 13493.9 569.644  10
   3  -3   0 373.842 130.178  10
  -3   3   0 406.151 164.198   9
  -4   3   0 2813.16 315.328   9
  -5   3   0 50041.8 1221.38   9
  -6   3   0 7068.43 534.104   9
  -7   3   0 803.611 209.917   9
  11   4   0 75.2286 70.7660   6
  11   4   0-7.17831 81.1266   7
  10   4   0-34.9211 91.3021   3
  10   4   0-133.420 112.369   6
   9   4   0 324.483 136.839   6
   9   4   0 299.675 125.794   3
   8   4   0 129.826 138.985   6
   8   4   0 212.711 136.184   3
   7   4   0 2050.90 232.124   3
   7   4   0 2169.91 246.544   6
   6   4   0 187.050 170.982   6
   6   4   0 430.146 161.663   3
   5   4   0-59.7895 130.330   3
   5   4   0 1.58836 150.502   6
   4   4   0 6950.22 370.004   6
   4   4   0 7243.18 369.977   3
   3   4   0 11019.6 436.367   6
   3   4   0 11007.1 427.405   3
  -3  -4   0 10348.5 706.740  10
   2   4   0 818.762 148.120   3
   2   4   0 921.606 173.995   6
  -2  -4   0 498.960 175.774  10
   1   4   0 377.218 96.3522   4
   1   4   0 476.091 134.572   3
  -1  -4   0 787.055 177.578  10
   1   4   0 455.573 143.576   6
   0   4   0 216.591 131.826   6
   0   4   0 174.463 129.749   3
   0   4   0 141.169 95.0526   4
  -1   4   0 448.360 127.689   6
   1  -4   0 1109.37 218.769  10
  -2   4   0 920.080 167.645   6
   8   5   0 16.2046 77.9160   6
   8   5   0-13.2680 86.4080   3
   7   5   0 89.1844 106.880   3
   7   5   0 131.249 108.961   6
   6   5   0 1399.68 187.145   6
   6   5   0 1403.17 187.713   3
   5   5   0 2321.95 226.916   6
   5   5   0 2372.94 231.269   3
   4   5   0 228.442 145.911   3
   4   5   0 186.989 147.987   6
   3   5   0 428.228 142.780   6
   3   5   0 402.081 129.216   3
   2   5   0 2048.69 225.934   6
   2   5   0 1966.45 214.087   3
   1   5   0 1405.06 191.622   6
   1   5   0 1257.50 175.852   3
   0   5   0 21.0594 85.4598   3
   0   5   0-24.7736 125.239   6
  -1   5   1 359.460 142.478   6
   0   5   1 23.4526 112.823   3
   0   5   1 150.099 130.207   6
   1   5   1 1486.20 195.710   6
   1   5   1 1367.55 177.567   3
   2   5   1 3438.26 264.514   6
   2   5   1 3433.29 261.907   3
   3   5   1-59.0648 132.098   6
   3   5   1-5.67189 125.040   3
   4   5   1 60.5107 120.572   3
   4   5   1 13.9839 151.371   6
   5   5   1 686.074 156.789   3
   5   5   1 451.568 165.053   6
   6   5   1 208.784 125.029   3
   6   5   1 137.543 130.093   6
   7   5   1-61.5611 108.745   6
   7   5   1 51.9144 99.2785   3
   8   5   1 577.619 112.158   6
   8   5   1 676.715 108.733   3
  -2   4   1 69.9632 131.285   6
   2  -4  -1 351.231 157.557  10
  -1   4   1 7317.71 334.982   6
  -1   4   1 7112.07 309.408   4
  -1   4   1 7704.02 330.564   3
   1  -4  -1 7619.23 593.676  10
   0  -4  -1 2313.11 340.945  10
   0   4   1 1870.49 197.594   3
   0   4   1 2270.19 207.478   6
   0   4   1 2125.09 191.030   4
   1   4   1 3157.03 244.645   3
  -1  -4  -1 3249.71 397.703  10
   1   4   1 3263.11 240.965   4
   1   4   1 3601.53 254.588   6
  -2  -4  -1 2211.88 337.420  10
   2   4   1 2390.37 212.338   4
   2   4   1 2576.91 229.952   3
   2   4   1 2963.56 244.106   6
   3   4   1 12839.7 479.628   6
   3   4   1 13763.3 480.390   3
  -3  -4  -1 12910.1 815.263  10
   4   4   1 18.9954 143.622   6
   4   4   1 152.918 132.468   3
   5   4   1 655.325 193.231   6
   5   4   1 926.520 183.022   3
   6   4   1 1553.81 249.361   6
   6   4   1 2056.17 222.365   3
   7   4   1 3446.03 282.346   3
   7   4   1 3363.12 294.730   6
   8   4   1 190.379 134.381   3
   8   4   1-11.3471 149.187   6
   9   4   1 146.902 138.292   6
   9   4   1 295.844 125.757   3
  10   4   1 83.6060 110.783   6
  10   4   1 222.654 98.8730   3
  11   4   1 1132.08 114.256   6
  -7   3   1 46694.6 1324.75   9
  -6   3   1 1546.15 304.097   9
  -5   3   1 46252.5 1181.26   9
  -4   3   1 1811.49 257.807   9
  -3   3   1 46713.8 1042.31   9
   3  -3  -1 47530.1 1072.05  10
   2  -3  -1 52.7441 145.977  10
  -2   3   1 184.872 119.422   9
   1  -3  -1 49348.3 1094.09  10
  -1   3   1 50682.2 902.634   9
   0  -3  -1 34467.0 941.184  10
  -1  -3  -1 36635.9 995.492  10
  -2  -3  -1 1909.61 269.182  10
   5   3   1 9030.15 358.168   3
   6   3   1-9.84305 121.610   3
  -6  -3  -1 500.666 189.503  10
  -7  -3  -1 2110.80 317.504  10
   7   3   1 2775.51 238.872   3
   8   3   1 80.5874 139.901   3
   9   3   1 10919.1 417.561   3
  10   3   1-118.807 125.698   3
  12   3   1 586.794 113.283   6
  13   3   1 986.134 92.9430   5
 -13   2   1 77.1990 83.4946   8
 -12   2   1 532.028 125.426   8
 -11   2   1 11064.4 370.779   8
 -10   2   1 1097.86 153.804   8
  -9   2   1 201.402 193.913   9
  -9   2   1 42.5279 86.5003   8
  -8   2   1 2476.17 311.068   9
  -8   2   1 2652.66 180.587   8
  -7   2   1 27902.1 876.403   9
  -6   2   1 6181.40 405.425   9
  -5   2   1 18128.7 625.875   9
  -4   2   1 26742.9 687.640   9
   4  -2  -1 26641.7 645.796  10
  -3   2   1 43595.4 803.545   9
   3  -2  -1 43548.9 793.206  10
   2  -2  -1 16279.3 487.642  10
  -2   2   1 15035.7 447.046   9
  -1   2   1 70094.2 843.496   9
   1  -2  -1 69560.4 989.850  10
   0   2   1 17501.6 377.728   9
   0  -2  -1 17131.7 514.334  10
   1   2   1 25056.4 374.135   9
  -7  -2  -1 42084.0 955.753   2
 -14   1   1 138.941 90.2144   8
 -13   1   1 387.311 119.130   8
 -12   1   1 7892.58 335.719   8
 -11   1   1 98.7265 114.954   8
 -10   1   1 5565.22 277.601   8
 -10   1   1 6068.41 449.050   9
  -9   1   1 2517.35 184.461   8
  -9   1   1 2040.82 265.882   9
  -8   1   1 490.094 130.457   9
  -8   1   1-75.9627 214.567   1
  -7   1   1 5716.18 361.167   9
  -7   1   1 6205.51 475.814   1
  -6   1   1 8207.11 497.033   1
  -6   1   1 8388.45 391.993   9
  -5   1   1 20449.6 530.364   9
   5  -1  -1 19987.3 465.079  10
  -5   1   1 20005.5 672.689   1
  -4   1   1 19070.1 468.284   9
  -4   1   1 20003.9 582.428   1
   4  -1  -1 18691.1 455.680  10
  -3   1   1 14627.6 370.407   9
   3  -1  -1 14710.8 370.268  10
  -2   1   1 76195.4 730.221   9
   2  -1  -1 75845.3 750.660  10
   1  -1  -1 68718.8 695.784  10
  -1   1   1 68704.7 602.240   9
   0   1   1 64198.5 484.394   9
   1   1   1 9158.41 135.543   9
  -6  -1  -1 14972.9 496.808   2
  -7  -1  -1 1958.72 211.450   2
  -8  -1  -1 193.047 119.047   2
  -9  -1  -1 5146.96 246.492   8
  -9  -1  -1 4447.36 375.204   2
 -10  -1  -1 26.0593 110.069   8
 -10  -1  -1-266.503 211.594   1
 -11  -1  -1 792.782 144.877   8
 -12  -1  -1 1341.91 156.712   8
 -13  -1  -1 864.618 124.257   8
  14   0  -1 190.195 87.8624   5
 -14   0   1 261.106 96.5427   8
 -13   0   1 8.22330 97.3406   8
 -12   0   1 2954.50 225.586   8
 -11   0   1 25.7350 119.614   8
 -10   0   1 5214.79 506.033   1
 -10   0   1 5683.40 281.853   8
  -9   0   1 25.7558 157.352   1
  -9   0   1 16.1428 90.0627   8
  -8   0   1 1221.70 238.095   1
  -8   0   1 816.498 146.338   9
  -7   0   1-16.6434 73.4719   9
  -6   0   1 12459.3 382.894   9
  -5   0   1 25.4295 72.6334   9
  -5   0   1 19.0730 105.416   2
  -4   0   1 120632. 920.896   9
  -4   0   1 118054. 930.679   2
  -3   0   1 37.0174 70.9781   2
  -3   0   1 92.8343 65.3347   9
   2   0  -1 369525. 1428.08  10
  -2   0   1 370653. 1037.31   2
   1   0  -1 0.78004 59.6050  10
  -1   0  -1 25.0692 25.4507  10
  -2   0  -1 57879.6 449.555   9
  -3   0  -1 76.7744 61.4127   9
  -4   0  -1 18160.9 434.910   2
  -4   0  -1 17816.2 354.079   9
  -5   0  -1 47.7455 81.4824   9
  -5   0  -1-56.3689 124.029   2
  -6   0  -1 154704. 1283.13   9
  -6   0  -1 155255. 1780.47   1
  -6   0  -1 153162. 1521.75   2
  -7   0  -1-20.2894 158.219   1
  -7   0  -1 190.942 150.058   2
  -7   0  -1 39.0690 73.9819   9
  -8   0  -1 1374.16 210.109   2
  -8   0  -1 1078.96 237.937   1
  -9   0  -1 21.3663 186.365   1
  -9   0  -1 15.8557 89.6168   8
 -10   0  -1 1014.13 305.914   1
 -10   0  -1 851.101 142.962   8
 -11   0  -1 109.188 103.088   8
 -12   0  -1 4.04934 110.557   8
 -13   0  -1 19.0369 99.3433   8
 -14   0  -1 4024.46 208.966   8
  15   1  -1-11.1599 65.9063   5
 -12  -1   1 7426.90 314.411   8
 -11  -1   1-62.2366 92.1929   8
 -10  -1   1 5739.91 273.946   8
 -10  -1   1 5182.95 516.142   1
  -9  -1   1 2936.28 202.783   8
  -7  -1   1 5822.95 295.842   2
  -6  -1   1 8925.48 331.121   2
  -5  -1   1 21723.5 444.958   2
  -5  -1   1 21794.5 339.849   9
  -4  -1   1 19345.9 292.555   9
  -1   1  -1 9420.75 251.756   9
  -2   1  -1 55084.5 648.661   9
   2  -1   1 54577.6 486.837  10
   3  -1   1 25145.0 307.534  10
  -3   1  -1 25066.6 494.101   9
  -4   1  -1 944.842 145.500   9
  -5   1  -1 13396.1 441.513   9
  -6   1  -1 15504.4 515.918   9
  -7   1  -1 1582.29 211.318   9
  -8   1  -1 306.818 110.571   9
  -9   1  -1 5144.62 253.296   8
  -9   1  -1 5172.91 391.927   9
 -10   1  -1-8.61603 87.0158   8
 -11   1  -1 757.751 152.674   8
 -12   1  -1 1595.58 185.711   8
 -13   1  -1 923.151 147.079   8
 -14   1  -1-35.5352 73.9296   8
  14   2  -1 230.762 79.6285   5
   9   2  -1-78.9182 135.526   3
   8   2  -1 2599.05 214.411   3
  -1   2  -1 24903.4 532.244   9
  -2   2  -1 35283.1 683.186   9
   2  -2   1 35761.0 655.721  10
   3  -2   1 125405. 1157.02  10
  -3   2  -1 122739. 1362.86   9
  -4   2  -1 15816.6 544.054   9
  -5   2  -1 5586.65 366.588   9
  -6   2  -1 1533.60 230.936   9
  -7   2  -1 40421.7 1052.11   9
  -8   2  -1 1049.81 222.593   9
  -8   2  -1 882.958 133.480   8
  -9   2  -1 5777.25 482.104   9
  -9   2  -1 6370.00 280.983   8
 -10   2  -1 1232.82 159.443   8
 -11   2  -1 1913.87 175.096   8
 -12   2  -1-65.6540 104.848   8
 -13   2  -1 155.095 81.1333   8
 -14   2  -1-82.6396 59.5477   8
  13   3  -1 227.337 58.3181   5
  11   3  -1 4071.60 240.288   6
  10   3  -1 1556.27 198.447   3
   9   3  -1 5551.51 328.212   3
   8   3  -1 2202.98 241.491   3
   7   3  -1 47360.3 861.222   3
   6   3  -1 1532.30 190.783   3
   5   3  -1 50349.5 816.125   3
   1  -3   1 37536.9 928.879  10
   2  -3   1 1678.08 223.981  10
  -4   3  -1 111.899 166.499   9
  -5   3  -1 8723.43 541.363   9
  -6   3  -1 422.718 225.992   9
  11   4  -1 1263.15 118.361   7
  10   4  -1 168.959 94.7525   6
   9   4  -1 102.087 127.475   6
   9   4  -1 24.3855 121.179   3
   8   4  -1 383.735 149.296   3
   8   4  -1 355.212 144.900   6
   7   4  -1 12218.8 479.097   3
   7   4  -1 12227.2 464.960   6
   6   4  -1 211.365 132.181   3
   6   4  -1 174.546 140.540   6
   5   4  -1 941.802 180.903   3
   5   4  -1 838.299 183.445   6
   4   4  -1-129.493 156.196   6
   4   4  -1-21.9738 130.471   3
  -3  -4   1 5043.92 521.172  10
   3   4  -1 4952.78 301.030   3
   3   4  -1 4814.78 313.919   6
   2   4  -1 78.0104 136.683   6
   2   4  -1 35.0537 123.860   3
   1   4  -1 7208.15 345.830   6
   1   4  -1 7502.48 338.905   3
  -1  -4   1 7040.95 549.098  10
   0   4  -1 2238.84 187.615   3
   0   4  -1 2220.83 203.101   6
   0  -4   1 2740.45 335.808  10
   1  -4   1 3349.82 376.318  10
  -1   4  -1 3462.60 250.138   6
  -2   4  -1 2312.84 214.098   6
   9   5  -1 794.702 93.8558   7
   8   5  -1 411.022 107.529   3
   8   5  -1 583.334 113.730   7
   8   5  -1 356.185 99.7541   6
   7   5  -1 116.650 105.857   3
   7   5  -1 4.34155 104.991   6
   6   5  -1 335.737 128.129   6
   6   5  -1 249.701 128.980   3
   5   5  -1 1055.44 171.776   3
   5   5  -1 1083.72 175.702   6
   4   5  -1 183.471 119.760   3
   4   5  -1 174.766 148.977   6
   3   5  -1 45.1382 128.157   3
   3   5  -1 166.113 141.168   6
   2   5  -1 637.144 148.112   3
   2   5  -1 822.948 174.632   6
   1   5  -1 274.845 107.046   3
   1   5  -1 419.978 163.769   6
   0   5  -1-30.6667 140.342   6
  -1   5   2 3731.88 258.081   6
  -1   5   2 3340.28 245.802   3
   0   5   2 3278.32 247.466   3
   0   5   2 3424.50 256.800   6
   1   5   2 1230.12 173.168   3
   1   5   2 1199.63 188.902   6
   2   5   2 2067.58 208.198   6
   2   5   2 1791.71 212.716   3
   3   5   2 819.188 170.420   6
   3   5   2 982.271 167.624   3
   4   5   2 468.348 146.233   3
   4   5   2 424.918 157.448   6
   5   5   2 780.195 180.188   6
   5   5   2 663.457 151.252   3
   6   5   2 1318.27 178.650   6
   6   5   2 1217.44 167.333   3
   7   5   2 418.554 115.938   3
   7   5   2 431.339 126.474   6
   8   5   2 219.023 84.7216   6
   8   5   2 52.7640 72.9732   3
  -2   4   2 1257.25 164.375   6
  -2   4   2 1010.51 159.259   4
   2  -4  -2 1555.50 327.668  10
   1  -4  -2 11885.3 711.026  10
  -1   4   2 12414.5 416.483   6
  -1   4   2 12922.6 425.751   4
   0  -4  -2 246.662 279.482  10
   0   4   2 343.778 122.184   4
   0   4   2 415.888 146.238   6
  -1  -4  -2 5560.69 504.214  10
   1   4   2 5710.38 308.663   6
   1   4   2 5478.86 319.991   3
   1   4   2 5548.77 300.449   4
   2   4   2 214.000 103.996   3
  -2  -4  -2 312.854 278.670  10
   2   4   2 91.8545 123.565   4
   2   4   2 84.0262 120.060   6
   3   4   2 3097.86 248.824   4
   3   4   2 3284.26 266.439   6
   3   4   2 3341.78 261.821   3
   4   4   2 1115.62 205.485   6
   4   4   2 1391.68 191.919   3
   5   4   2 803.585 197.089   6
   5   4   2 802.103 182.795   3
   6   4   2 899.436 199.689   6
   6   4   2 975.851 179.841   3
   7   4   2 5830.35 370.469   6
   7   4   2 6454.72 341.530   3
   8   4   2 806.927 167.172   3
   8   4   2 827.395 194.953   6
   9   4   2 1205.90 181.935   6
   9   4   2 1000.86 156.965   3
  10   4   2 102.564 107.545   6
  10   4   2 57.3635 88.3800   3
  11   4   2-42.6865 72.9344   6
  -7   3   2 155.838 76.0121   9
  -6   3   2 205.860 141.604   9
  -5   3   2 302.050 157.720   9
   4  -3  -2 11.2347 197.709  10
  -4   3   2-123.457 164.802   9
  -3   3   2 10698.6 518.423   9
   3  -3  -2 11107.9 564.891  10
   2  -3  -2 2165.14 272.772  10
  -2   3   2 2258.33 237.836   9
   1  -3  -2 843.063 206.100  10
  -1   3   2 1142.97 169.811   9
   0  -3  -2 2680.62 300.935  10
  -1  -3  -2 14118.0 646.205  10
  -2  -3  -2 7082.50 481.467  10
  -3  -3  -2 1281.62 261.539  10
   4   3   2 2319.52 199.669   3
   4   3   2 2356.98 187.032   4
  -4  -3  -2 2378.77 336.779  10
   5   3   2 10976.3 395.223   3
  -5  -3  -2 9798.09 621.647  10
   6   3   2 2316.99 208.154   3
  -6  -3  -2 2400.27 369.523  10
   7   3   2 8992.53 384.578   3
  -7  -3  -2 8058.69 603.690  10
   8   3   2 2924.16 240.669   3
   9   3   2 3074.79 239.089   3
  12   3   2 77.3696 90.6170   6
 -13   2   2-56.9887 67.9467   8
 -12   2   2 1093.19 144.622   8
 -11   2   2 217.731 98.9974   8
 -10   2   2 2898.62 213.627   8
  -9   2   2 2310.68 184.025   8
  -9   2   2 2704.86 307.248   9
  -8   2   2 768.739 116.633   8
  -8   2   2 885.075 191.902   9
  -7   2   2 2802.70 315.319   9
  -6   2   2 3955.17 337.462   9
   5  -2  -2 17039.6 615.573  10
  -5   2   2 17435.0 615.481   9
  -4   2   2 20759.6 619.622   9
   4  -2  -2 19635.3 603.775  10
  -3   2   2 28584.9 666.667   9
   3  -2  -2 29347.1 707.309  10
  -2   2   2 1980.07 184.145   9
   2  -2  -2 2035.34 212.316  10
  -1   2   2 43399.9 676.400   9
   1  -2  -2 45026.6 840.069  10
   0   2   2 117029. 973.037   9
   0  -2  -2 118045. 1357.48  10
  -1  -2  -2 6997.44 358.566  10
   1   2   2 7245.47 206.685   9
  -2  -2  -2 35178.2 782.636  10
  -7  -2  -2 9880.09 520.097  10
 -13   1   2 282.070 107.211   8
 -12   1   2 260.921 125.461   8
 -11   1   2 79.0218 109.593   8
 -10   1   2 1516.37 220.090   9
 -10   1   2 1452.94 170.708   8
  -9   1   2 1499.47 241.047   9
  -9   1   2 1409.89 157.566   8
  -8   1   2 12987.3 724.873   1
  -8   1   2 12870.0 573.010   9
  -7   1   2 5421.32 348.245   9
  -7   1   2 5564.54 446.969   1
   6  -1  -2 115205. 1267.05  10
  -6   1   2 113038. 1356.21   9
  -5   1   2 47879.4 818.984   9
   5  -1  -2 48402.5 838.133  10
  -5   1   2 47075.7 1024.46   1
  -4   1   2 19817.0 486.322   9
  -4   1   2 19724.4 593.559   1
   4  -1  -2 19010.2 521.223  10
  -3   1   2 2129.15 171.458   9
   3  -1  -2 2465.88 201.329  10
  -2   1   2 192923. 1234.76   9
   2  -1  -2 191494. 1355.09  10
  -1   1   2 47726.6 551.613   9
   1  -1  -2 47838.3 640.857  10
   0  -1  -2 103516. 922.162  10
   0   1   2 102738. 700.459   9
  -1  -1  -2 1000.23 142.177  10
   1   1   2 726.279 65.1724   9
   2   1   2 489615. 766.537   9
  -6  -1  -2 31001.4 747.895   2
  -7  -1  -2 42.8869 148.328   2
  -8  -1  -2 11249.1 532.716   2
  -9  -1  -2 665.140 123.288   8
  -9  -1  -2 403.374 187.363   1
 -10  -1  -2-1306.31 380.385   1
 -10  -1  -2 43.5106 84.2601   8
 -11  -1  -2 858.617 140.533   8
 -12  -1  -2 5761.62 260.234   8
 -13  -1  -2-30.0014 85.5017   8
  14   0  -2 45.6227 83.1040   5
 -13   0   2 11.1883 104.309   8
 -12   0   2 6017.62 299.780   8
 -11   0   2-89.1603 109.494   8
 -10   0   2 2932.27 218.757   8
 -10   0   2 3365.23 402.581   1
  -9   0   2-334.567 183.925   1
  -8   0   2 31287.4 743.911   9
  -8   0   2 29543.9 1000.89   1
  -7   0   2 58.0404 99.6137   9
  -6   0   2 23137.2 535.196   9
  -5   0   2-95.2444 88.5437   9
  -4   0   2 188106. 1245.82   9
   3   0  -2 38.3829 117.467  10
   2   0  -2 119845. 1021.93  10
   1   0  -2-11.8199 107.894  10
   0   0  -2 56468.4 584.197  10
  -1   0  -2 56.6552 37.2801   1
  -1   0  -2-6.36188 67.6549  10
  -2   0  -2 306977. 950.252  10
  -3   0  -2 52.0423 41.3637  10
  -4   0  -2 57759.3 657.057   9
  -4   0  -2 55966.3 407.586  10
  -4   0  -2 57188.1 823.896   2
  -5   0  -2-124.799 130.570   1
  -5   0  -2 18.9753 137.093   2
  -5   0  -2 86.8365 79.2422   9
  -6   0  -2 49655.9 921.970   2
  -6   0  -2 50388.5 997.694   1
  -6   0  -2 48683.1 740.169   9
  -7   0  -2 1.48432 130.884   2
  -7   0  -2 87.3207 145.851   1
  -8   0  -2 24015.3 875.262   1
  -8   0  -2 24802.0 787.112   2
  -9   0  -2-60.5273 226.253   1
  -9   0  -2-1.02570 104.030   8
 -10   0  -2 12141.8 738.823   1
 -10   0  -2 12940.0 401.300   8
 -11   0  -2 45.7611 108.513   8
 -12   0  -2 1187.13 161.035   8
 -13   0  -2-38.6465 107.583   8
 -14   0  -2 8.67113 78.6390   8
  15   1  -2-24.8763 55.8819   5
  14   1  -2 1633.88 146.866   5
 -12  -1   2 474.626 125.080   8
 -11  -1   2 15.2305 108.345   8
 -10  -1   2 1653.69 173.791   8
  -9  -1   2 1636.68 158.638   8
  -5  -1   2 51398.1 625.356   9
  -5  -1   2 51838.2 590.788   2
  -4  -1   2 20009.2 322.701   2
  -2   1  -2 999999. 2913.69   9
  -3   1  -2 22154.7 487.586   9
  -4   1  -2 77509.0 975.634   9
  -5   1  -2 281.903 122.795   9
  -6   1  -2 30767.5 733.305   9
  -7   1  -2 80.4789 113.393   9
  -8   1  -2 11306.3 341.916   8
  -8   1  -2 11149.5 530.139   9
  -9   1  -2 808.938 128.556   8
 -10   1  -2 2.90696 98.0108   8
 -11   1  -2 847.670 145.247   8
 -12   1  -2 5761.73 288.730   8
 -13   1  -2 76.6999 100.552   8
 -14   1  -2 426.380 96.6085   8
  14   2  -2 46.9720 75.5055   5
   9   2  -2 2450.80 233.884   3
   8   2  -2 887.721 149.931   3
   3  -2   2 45976.1 668.537  10
  -3   2  -2 44713.8 848.033   9
  -4   2  -2 17381.7 584.136   9
  -5   2  -2 6077.66 382.829   9
  -6   2  -2 21790.3 742.178   9
  -7   2  -2 9615.78 541.738   9
  -7   2  -2 10303.2 321.606   8
  -8   2  -2 22491.1 491.886   8
  -9   2  -2 9848.16 348.420   8
 -10   2  -2 2309.07 188.730   8
 -11   2  -2 1058.11 147.106   8
 -12   2  -2 65.8826 90.6488   8
 -13   2  -2 1118.05 125.353   8
 -14   2  -2-29.5105 59.3786   8
  13   3  -2 680.327 74.5240   5
  12   3  -2 948.091 113.290   5
  10   3  -2 145.182 132.467   3
  10   3  -2 74.6894 116.375   6
   9   3  -2 52.6361 113.628   6
   9   3  -2-26.0767 136.136   3
   8   3  -2 6183.29 350.771   3
   7   3  -2 33.6024 131.652   3
   6   3  -2 541.318 129.934   6
   6   3  -2 337.405 142.956   3
   5   3  -2 431.555 129.443   6
   5   3  -2 465.024 120.623   3
   4   3  -2 54.4815 97.3544   3
   2  -3   2 6854.11 398.382  10
 -10   3  -2 131.831 86.9682   8
 -11   3  -2 797.937 108.779   8
  11   4  -2 742.538 107.374   7
  10   4  -2 123.282 86.8404   6
   9   4  -2 27.5214 129.190   3
   9   4  -2 27.0955 108.301   6
   8   4  -2 2146.33 218.423   6
   8   4  -2 2435.26 243.446   3
   7   4  -2 2320.21 247.229   3
   7   4  -2 2239.74 225.872   6
   6   4  -2 907.073 188.561   3
   6   4  -2 923.539 195.531   6
   5   4  -2 1266.63 203.530   3
   5   4  -2 1218.54 201.822   6
   4   4  -2-59.9594 149.615   6
   4   4  -2 22.0614 131.605   3
   3   4  -2 11473.9 437.359   6
   3   4  -2 11708.8 441.298   3
   2   4  -2 1230.62 165.892   3
   2   4  -2 1452.93 186.685   6
   1   4  -2 12740.2 446.432   6
   1   4  -2 12298.9 427.253   3
  -1  -4   2 13017.1 771.350  10
   0  -4   2-66.9376 267.639  10
   0   4  -2 511.124 151.356   6
  -1   4  -2 5518.88 313.837   6
  -2   4  -2 240.176 149.435   6
   8   5  -2 17.0934 78.0482   6
   8   5  -2 242.558 89.9803   7
   7   5  -2 70.1108 97.9707   3
   7   5  -2 32.5731 124.117   7
   7   5  -2 50.6857 99.5308   6
   6   5  -2 88.7221 125.377   3
   6   5  -2 142.731 113.458   6
   5   5  -2 3288.53 252.213   6
   5   5  -2 3097.28 244.135   3
   4   5  -2 3688.59 275.188   3
   4   5  -2 3900.59 273.281   6
   3   5  -2 565.344 171.919   6
   3   5  -2 681.461 146.052   3
   2   5  -2 11235.9 411.634   3
   2   5  -2 10929.7 431.771   6
   1   5  -2 4171.02 288.666   6
  -2   5   3 715.520 154.377   4
  -1   5   3 18.1442 101.596   4
  -1   5   3 449.919 86.6563   3
   0   5   3 50.6220 112.250   6
   0   5   3 189.854 103.247   3
   1   5   3 4954.79 302.703   3
   1   5   3 4885.82 285.338   6
   2   5   3 324.388 144.550   6
   2   5   3 177.470 143.834   3
   3   5   3 14.1823 131.290   3
   3   5   3 67.7864 119.721   6
   4   5   3 4671.06 294.882   3
   4   5   3 4351.97 292.926   6
   5   5   3 1018.19 163.708   3
   5   5   3 850.964 170.480   6
   6   5   3-59.4864 100.683   3
   6   5   3 5.44840 108.612   6
   7   5   3 217.683 100.429   6
   7   5   3 170.252 87.1396   3
   8   5   3 111.722 77.5855   6
   8   5   3 126.468 66.0861   3
  -3   4   3 7894.52 346.265   4
  -2   4   3 78.8053 113.584   6
  -2   4   3-58.3636 131.654   4
  -1   4   3 19501.2 552.767   4
  -1   4   3 20244.0 505.366   6
   0   4   3 832.477 149.394   6
   0   4   3 700.528 154.371   4
   1   4   3 593.478 144.850   6
  -1  -4  -3 665.263 270.709  10
   1   4   3 759.557 140.778   4
   2   4   3-9.57854 136.667   3
   2   4   3 70.8010 114.329   4
   2   4   3 87.4245 130.395   6
   3   4   3 12406.0 469.703   3
   3   4   3 12410.8 472.010   6
   3   4   3 12522.0 451.721   4
   4   4   3 23.6495 130.356   3
   4   4   3-5.24156 144.259   6
   5   4   3 1937.79 221.576   3
   5   4   3 2035.16 243.034   6
   6   4   3 869.327 166.863   3
   6   4   3 807.215 186.920   6
   7   4   3 1142.30 168.570   3
   7   4   3 1003.28 192.462   6
   8   4   3 322.565 125.482   3
   8   4   3 229.403 150.613   6
   9   4   3 398.556 119.052   3
   9   4   3 401.887 146.358   6
  10   4   3 1380.38 157.176   6
  11   4   3 376.968 84.4483   6
  -7   3   3 3989.03 394.064   9
  -6   3   3-75.3312 206.982   9
  -5   3   3 13974.9 696.936   9
   4  -3  -3 1189.67 270.972  10
  -4   3   3 1013.54 234.670   9
   3  -3  -3 49269.4 1216.96  10
  -3   3   3 51361.8 1134.43   9
  -2   3   3 15855.2 584.104   9
   2  -3  -3 15185.0 682.959  10
   1  -3  -3 3561.56 345.070  10
   0  -3  -3 3441.71 360.499  10
  -1  -3  -3 51972.4 1229.30  10
  -2  -3  -3 1752.06 291.271  10
  -3  -3  -3 427.768 201.171  10
   4   3   3 432.058 100.817   4
  -4  -3  -3 330.222 203.891  10
   5   3   3 21094.9 543.248   3
  -5  -3  -3 19949.8 872.165  10
   5   3   3 21279.3 538.006   4
  -6  -3  -3 221.824 265.134  10
   6   3   3 470.323 140.556   3
   7   3   3 251.679 114.616   3
   8   3   3 640.814 138.793   3
 -12   2   3 1261.02 143.995   8
 -11   2   3 110.776 93.4246   8
 -10   2   3 5602.52 273.367   8
  -9   2   3 11316.7 368.488   8
  -9   2   3 12521.3 687.094   9
  -8   2   3 18852.0 793.867   9
  -8   2   3 17926.0 425.846   8
  -7   2   3 7748.46 491.623   9
  -6   2   3 2218.52 264.047   9
   5  -2  -3 101555. 1559.30  10
  -5   2   3 101541. 1468.04   9
  -4   2   3 65941.3 1107.43   9
   4  -2  -3 66070.2 1194.43  10
  -3   2   3 16086.9 524.304   9
   3  -2  -3 15133.6 567.190  10
   2  -2  -3 852.851 198.888  10
  -2   2   3 895.156 157.231   9
  -1   2   3 84266.2 975.984   9
   1  -2  -3 84330.4 1204.77  10
   0   2   3 942.273 112.266   9
   0  -2  -3 683.822 173.656  10
   1   2   3 17154.8 333.591   9
  -1  -2  -3 17965.7 579.491  10
  -2  -2  -3 57710.7 1035.86  10
  -3  -2  -3 2507.59 273.407  10
  -4  -2  -3 2204.60 257.043  10
  -5  -2  -3 9114.27 475.092  10
  -6  -2  -3 10576.6 521.278  10
  -8  -2  -3 140.051 139.370   2
 -13   1   3 902.477 139.178   8
 -12   1   3 515.495 132.787   8
 -11   1   3 1624.24 183.335   8
  10  -1  -3 13824.9 388.382   5
 -10   1   3 13724.2 427.639   8
 -10   1   3 13384.1 692.962   9
  -9   1   3 6980.11 478.084   9
  -9   1   3 7248.51 301.260   8
  -8   1   3 229.725 123.352   9
  -8   1   3 333.663 174.122   1
  -7   1   3 10036.4 480.946   9
  -7   1   3 9791.36 591.579   1
   6  -1  -3 1811.74 215.199  10
  -6   1   3 2313.78 240.615   9
  -6   1   3 2043.13 291.327   1
  -5   1   3 4101.50 334.521   1
  -5   1   3 4902.82 305.616   9
   5  -1  -3 5079.58 334.654  10
   4  -1  -3 3149.23 271.880  10
  -4   1   3 3068.69 263.518   1
  -4   1   3 3224.22 231.368   9
   3  -1  -3 117195. 1316.41  10
  -3   1   3 119582. 1156.09   9
   2  -1  -3 70263.0 928.490  10
  -2   1   3 69369.1 815.669   9
   1  -1  -3 753.892 148.248  10
   0  -1  -3 391276. 1986.23  10
  -1  -1  -3 449296. 2119.29  10
  -2  -1  -3 3352.56 212.862  10
  -3  -1  -3 21461.1 496.202  10
  -4  -1  -3 9248.46 343.760  10
  -5  -1  -3 56277.9 838.146  10
  -7  -1  -3 32.2833 118.019   2
  -8  -1  -3 20794.5 758.789   2
  -9  -1  -3 10075.7 572.801   2
  -9  -1  -3 9410.95 604.188   1
  -9  -1  -3 9672.56 331.338   8
 -10  -1  -3 1188.95 145.970   8
 -11  -1  -3 1162.19 147.884   8
 -12  -1  -3 329.198 110.724   8
 -13  -1  -3 224.566 87.1562   8
  14   0  -3 571.243 103.531   5
  13   0  -3 61.1286 98.0046   5
 -13   0   3-51.1900 107.534   8
 -12   0   3-34.5895 126.583   8
 -11   0   3 51.0514 108.732   8
 -10   0   3 3710.47 451.271   1
 -10   0   3 4442.23 259.516   8
  -9   0   3 323.957 152.111   1
  -9   0   3 47.6375 102.359   8
  -8   0   3 47239.7 1252.72   1
  -8   0   3 49319.7 962.003   9
  -7   0   3-134.123 102.888   9
  -6   0   3 1870.01 192.163   9
  -5   0   3 65.0930 91.4897   9
   4   0  -3 18399.4 525.897  10
   3   0  -3 29.7405 138.351  10
   2   0  -3 87993.8 1022.45  10
   1   0  -3-92.0686 153.826  10
   0   0  -3 8301.68 306.082  10
  -1   0  -3 9.65740 109.720  10
  -2   0  -3 312130. 1371.90  10
  -2   0  -3 310446. 1185.82   1
  -3   0  -3 67.5184 62.6132  10
  -3   0  -3-13.8911 92.3450   1
  -4   0  -3 14192.3 416.481   1
  -4   0  -3 13655.3 454.133   2
  -5   0  -3-50.6674 145.876   2
  -5   0  -3 14.8387 126.755   1
  -6   0  -3 44731.8 935.670   1
  -6   0  -3 45911.0 942.205   2
  -7   0  -3-285.655 136.813   1
  -7   0  -3 191.747 148.460   2
  -8   0  -3 1225.72 222.403   2
  -8   0  -3 1549.32 248.171   1
  -9   0  -3-201.734 160.170   2
  -9   0  -3 29.2914 140.682   1
  -9   0  -3 108.240 91.8275   8
 -10   0  -3 487.482 118.513   8
 -11   0  -3-23.5229 105.753   8
 -12   0  -3 110.460 108.026   8
 -13   0  -3 58.1791 89.7419   8
 -14   0  -3 59.5050 80.8863   8
  15   1  -3 71.5718 58.3511   5
  14   1  -3 28.6589 83.6983   5
  13   1  -3 670.214 146.100   5
 -11  -1   3 1721.31 185.648   8
 -10  -1   3 13594.4 423.281   8
  -9  -1   3 7106.86 294.596   8
  -6  -1   3 2345.50 179.318   9
  -2   1  -3 3063.30 210.637   2
  -3   1  -3 22131.1 544.523   2
  -4   1  -3 10191.6 433.888   2
  -5   1  -3 54333.9 1016.18   2
  -8   1  -3 21815.8 483.750   8
  -9   1  -3 9765.45 357.381   8
 -10   1  -3 1096.66 159.943   8
 -11   1  -3 987.154 160.639   8
 -12   1  -3 484.666 125.612   8
 -13   1  -3 250.066 112.023   8
 -14   1  -3 88.2582 73.3825   8
  14   2  -3 18.3756 66.9617   5
  13   2  -3-38.0159 98.6871   5
   9   2  -3 12760.1 464.214   3
   8   2  -3 18354.3 528.471   3
   7   2  -3 9211.82 360.948   3
  -7   2  -3 138.482 90.0241   8
  -8   2  -3 507.506 109.229   8
  -9   2  -3 8713.49 336.548   8
 -10   2  -3 224.178 117.059   8
 -11   2  -3 1460.86 162.308   8
 -12   2  -3 236.240 112.215   8
 -13   2  -3 278.978 89.8181   8
  12   3  -3 817.767 110.469   5
  11   3  -3-21.1854 91.9612   5
  11   3  -3-71.3245 130.552   7
   9   3  -3 14280.0 506.363   3
   9   3  -3 14815.4 432.028   6
   8   3  -3 151.107 156.828   3
   8   3  -3 370.999 126.380   6
   7   3  -3 3391.64 277.065   3
   7   3  -3 3997.78 248.872   6
   6   3  -3 129.827 92.6174   6
   6   3  -3 118.438 117.233   3
   5   3  -3 14875.2 429.928   6
   5   3  -3 14681.5 479.061   3
   4   3  -3 1020.59 162.584   3
  -9   3  -3 602.378 101.849   8
 -10   3  -3-21.5706 85.1749   8
 -11   3  -3 68.4187 81.5276   8
  11   4  -3 671.005 100.742   7
  10   4  -3 225.980 108.874   7
   9   4  -3 1175.18 146.024   6
   9   4  -3 1407.88 182.105   3
   8   4  -3 213.418 141.780   3
   8   4  -3 282.898 127.144   6
   7   4  -3 1906.17 200.901   6
   7   4  -3 2288.91 248.640   3
   6   4  -3 1068.63 207.330   3
   6   4  -3 753.914 172.893   6
   5   4  -3 36312.5 781.397   3
   5   4  -3 35809.9 737.797   6
   4   4  -3 286.985 151.949   3
   4   4  -3 372.722 146.596   6
   3   4  -3 7941.82 369.454   6
   3   4  -3 7935.38 381.775   3
   2   4  -3-3.47591 115.448   3
   2   4  -3-338.389 147.458   6
   1   4  -3 20402.3 545.220   3
  -1  -4   3 20935.7 968.407  10
   1   4  -3 21502.9 562.334   6
   0   4  -3 1154.26 178.879   6
  -1   4  -3 722.022 154.626   6
   8   5  -3 110.317 85.1854   7
   7   5  -3 1068.36 130.809   6
   7   5  -3 1030.44 153.629   3
   6   5  -3 27.4331 108.256   7
   6   5  -3 101.712 102.166   6
   6   5  -3 37.3054 106.989   3
   5   5  -3 403.444 132.579   6
   5   5  -3 255.588 134.458   3
   5   5  -3 313.595 131.232   7
   4   5  -3 1030.80 158.974   7
   4   5  -3 979.821 169.174   6
   4   5  -3 945.779 175.385   3
   3   5  -3 8775.36 381.839   6
   3   5  -3 8253.42 317.314   7
   3   5  -3 8376.20 370.677   3
   2   5  -3 1019.04 181.283   6
   2   5  -3 1137.84 164.935   3
   1   5  -3 88.7791 137.094   6
  -2   5   4-269.058 119.211   4
  -2   5   4 5.97683 110.026   3
  -1   5   4 364.911 120.857   4
  -1   5   4 377.141 121.737   3
   0   5   4 634.486 154.379   4
   0   5   4 566.434 126.493   6
   0   5   4 881.442 155.458   3
   1   5   4 990.112 149.099   6
   1   5   4 832.238 165.717   3
   2   5   4 99.6075 119.756   6
   2   5   4 125.045 123.242   3
   3   5   4-32.8142 111.953   6
   3   5   4 98.4298 119.818   3
   4   5   4 488.242 139.277   6
   4   5   4 543.630 132.104   3
   5   5   4 196.637 124.825   3
   5   5   4 144.594 121.689   6
   6   5   4 358.739 119.077   6
   6   5   4 551.088 115.961   3
   7   5   4 349.270 91.8831   6
   7   5   4 235.365 88.9476   3
  -2   4   4 11085.3 438.107   4
  -1   4   4 9690.45 354.592   6
  -1   4   4 10053.0 409.622   4
   0   4   4 7779.58 373.940   4
   0   4   4 7790.73 333.792   6
   1   4   4 1291.60 173.681   6
   1   4   4 965.273 160.959   4
   2   4   4 4771.47 304.835   4
   2   4   4 4314.69 283.750   6
   3   4   4 7946.91 381.061   6
   3   4   4 7557.95 387.593   3
   3   4   4 7832.65 370.677   4
   4   4   4 320.288 126.072   4
   4   4   4 105.364 127.319   3
   4   4   4 103.602 149.733   6
   5   4   4 33.4064 126.430   6
   5   4   4 74.7785 115.411   3
   6   4   4 441.435 160.096   6
   6   4   4 189.088 125.295   3
   7   4   4 96.5758 121.905   3
   7   4   4 238.370 156.028   6
   8   4   4-1.99657 121.489   6
   8   4   4 4.96654 107.872   3
   9   4   4 2176.09 210.155   6
   9   4   4 2870.15 183.469   3
  10   4   4 12.2432 91.4947   6
  -6   3   4 33.5589 147.923   9
   5  -3  -4 272.073 227.301  10
  -5   3   4 670.525 218.641   9
  -4   3   4 1021.87 219.101   9
   4  -3  -4 1041.39 256.410  10
   3  -3  -4 24175.8 910.843  10
  -3   3   4 24180.1 808.599   9
   2  -3  -4 277.407 151.922  10
  -2   3   4-199.858 139.085   9
   1  -3  -4 633.129 210.145  10
   0  -3  -4 1205.81 255.043  10
  -1  -3  -4 42332.6 1151.23  10
  -2  -3  -4 8150.95 546.912  10
   3   3   4 1151.48 152.214   4
  -3  -3  -4 1511.18 270.878  10
  -4  -3  -4 1748.52 289.477  10
   4   3   4 1971.37 190.793   4
   5   3   4 3483.17 247.364   3
  -5  -3  -4 3266.41 403.222  10
   5   3   4 4051.45 258.336   4
  -6  -3  -4 315.393 112.443  10
   6   3   4 326.164 110.732   3
   7   3   4 1731.33 197.529   3
   8   3   4 149.792 66.4599   3
 -11   2   4 300.071 100.566   8
 -10   2   4 8200.03 318.614   8
  -9   2   4 362.376 107.847   8
  -8   2   4 4497.65 424.029   9
  -8   2   4 4707.09 235.940   8
  -7   2   4 74.4952 168.740   9
   6  -2  -4 1344.20 248.434  10
  -6   2   4 1455.18 235.152   9
  -5   2   4 7045.88 432.745   9
   5  -2  -4 6556.18 468.637  10
   4  -2  -4 60640.5 1266.21  10
  -4   2   4 59971.7 1099.92   9
   3  -2  -4 175.095 166.868  10
  -3   2   4 272.928 123.730   9
  -2   2   4 40601.5 792.893   9
   2  -2  -4 40678.4 940.235  10
  -1   2   4 25393.4 588.111   9
   1  -2  -4 25683.7 726.840  10
   0   2   4 11050.3 354.821   9
   0  -2  -4 11399.7 499.072  10
  -1  -2  -4 1328.20 216.588  10
   1   2   4 1387.67 124.995   9
  -2  -2  -4 58638.3 1078.83  10
  -3  -2  -4 2625.44 280.489  10
  -4  -2  -4 61835.0 1176.20  10
  -5  -2  -4 1229.52 230.979  10
  -6  -2  -4 7304.64 446.721  10
  -8  -2  -4-486.935 148.607   2
 -12   1   4 444.259 129.752   8
  11  -1  -4 803.591 129.510   5
 -11   1   4 967.420 144.407   8
  10  -1  -4 22118.5 483.797   5
 -10   1   4 21008.5 873.237   9
 -10   1   4 21495.3 520.458   8
   9  -1  -4 219.118 108.472   5
  -9   1   4 337.080 114.017   8
  -8   1   4 2887.43 376.070   1
  -8   1   4 2471.22 279.527   9
  -8   1   4 2749.66 190.003   8
   7  -1  -4 795.720 196.545  10
  -7   1   4 754.556 213.634   1
  -7   1   4 721.009 183.936   9
  -6   1   4 66680.6 1342.69   1
  -6   1   4 68234.6 1151.82   9
   6  -1  -4 71092.0 1254.44  10
   5  -1  -4 19015.7 658.428  10
  -5   1   4 19873.8 598.359   9
  -5   1   4 19555.4 663.985   1
   4  -1  -4 5849.89 377.506  10
  -4   1   4 4876.16 312.568   1
  -4   1   4 5795.61 321.949   9
  -3   1   4 46663.2 784.881   9
   3  -1  -4 44818.6 910.381  10
   2  -1  -4 53663.5 927.348  10
   1  -1  -4 7802.21 355.944  10
   0  -1  -4 5932.10 303.647  10
  -1  -1  -4 10701.9 383.919  10
  -2  -1  -4 31319.6 623.922  10
  -3  -1  -4 62750.4 885.403  10
  -4  -1  -4 167684. 1444.44  10
  -5  -1  -4 3414.69 238.204  10
  -7  -1  -4 16442.9 640.742   1
  -7  -1  -4 16642.6 671.459   2
  -8  -1  -4 24315.0 860.802   2
  -9  -1  -4 1144.83 228.083   2
  -9  -1  -4 1019.63 136.234   8
 -10  -1  -4 9561.13 343.430   8
 -11  -1  -4 3301.57 209.579   8
 -12  -1  -4 1172.33 129.743   8
  14   0  -4 1810.80 136.349   5
  13   0  -4 15.8318 104.015   5
  12   0  -4 12666.4 388.159   5
 -12   0   4 13378.5 424.299   8
 -11   0   4-26.1342 110.060   8
 -10   0   4 106.246 99.6561   1
 -10   0   4 410.780 123.792   8
  -9   0   4 235.104 77.3926   9
  -9   0   4-27.6171 113.580   8
  -8   0   4 12837.9 688.705   1
  -8   0   4 13005.9 534.864   9
  -7   0   4-62.5302 143.169   9
  -6   0   4 35.4014 120.409   9
  -5   0   4 6.14396 110.159   9
   4   0  -4 209550. 1901.06  10
   3   0  -4 101.943 142.879  10
   2   0  -4 113739. 1307.61  10
   1   0  -4 0.69333 148.941  10
   0   0  -4 85324.0 1031.42  10
  -1   0  -4-46.1394 129.502  10
  -2   0  -4 72696.4 856.591  10
  -3   0  -4 144.949 77.8380   1
  -3   0  -4 1.39495 94.3723  10
  -4   0  -4 51047.8 914.998   2
  -4   0  -4 53946.7 756.521   1
  -5   0  -4 33.0222 148.523   2
  -5   0  -4-54.7492 112.086   1
  -6   0  -4 53951.7 1078.85   2
  -6   0  -4 55334.7 1013.75   1
  -7   0  -4-56.0600 149.443   2
  -7   0  -4-273.687 134.395   1
  -8   0  -4 21.3766 99.0959   8
  -8   0  -4 317.436 115.717   1
  -8   0  -4 8.36020 133.698   2
  -9   0  -4 38.0230 79.2798   8
  -9   0  -4 284.846 160.514   2
 -10   0  -4 6481.17 305.143   8
 -11   0  -4-67.8637 101.983   8
 -12   0  -4 2576.73 199.741   8
 -13   0  -4-74.8446 92.3877   8
 -14   0  -4 835.995 100.725   8
  15   1  -4 302.435 66.0998   5
  14   1  -4 979.666 117.632   5
  13   1  -4 168.668 112.203   5
  12   1  -4 603.444 151.608   5
  -9  -1   4 146.102 117.208   8
  -8  -1   4 2701.74 190.464   8
  -6  -1   4 72449.0 998.711   9
  -1   1  -4 8782.00 290.714   2
  -2   1  -4 27622.7 581.884   2
  -3   1  -4 57017.4 924.573   2
  -4   1  -4 159859. 1684.68   2
  -5   1  -4 3230.52 308.744   2
  -6   1  -4 859.202 215.148   2
  -8   1  -4 24710.6 525.833   8
  -9   1  -4 1048.17 156.922   8
 -10   1  -4 10098.4 374.676   8
 -11   1  -4 3264.24 234.667   8
 -12   1  -4 1007.86 155.697   8
 -13   1  -4 96.7881 92.3505   8
 -14   1  -4-21.5892 61.9372   8
  14   2  -4 163.486 69.7577   5
  13   2  -4 45.9520 93.1510   5
  12   2  -4 781.974 141.123   5
  10   2  -4 8744.08 348.511   7
   8   2  -4 4884.60 303.677   3
   7   2  -4 78.3266 96.9916   3
  -7   2  -4 1572.09 157.392   8
  -8   2  -4 45.0631 104.287   8
  -9   2  -4 1200.13 159.072   8
 -10   2  -4 4794.12 258.551   8
 -11   2  -4 39.8672 98.7417   8
 -12   2  -4 42.6801 91.3135   8
 -13   2  -4 338.544 82.5261   8
  12   3  -4 12.7640 68.7794   5
  11   3  -4 439.045 124.909   7
  11   3  -4 336.806 101.615   5
  10   3  -4-6.94920 108.976   5
  10   3  -4 279.842 132.044   7
   9   3  -4 145.362 144.819   3
   9   3  -4 126.118 93.7120   5
   8   3  -4 69.9791 144.873   3
   7   3  -4 9935.52 440.436   3
   6   3  -4 231.734 96.1025   6
   6   3  -4 207.117 135.735   3
   5   3  -4 730.880 151.748   3
   5   3  -4 437.143 106.048   6
   4   3  -4 902.044 144.894   6
   4   3  -4 1115.32 165.369   3
  -8   3  -4 135.260 78.9338   8
  -9   3  -4-15.6926 73.5946   8
 -10   3  -4-66.0504 101.644   8
 -11   3  -4 1345.10 119.220   8
  11   4  -4-18.4368 73.9455   7
  10   4  -4 187.149 105.979   7
   9   4  -4 907.141 155.075   7
   8   4  -4 1326.80 141.714   6
   8   4  -4 1171.56 190.870   3
   7   4  -4 85.6428 140.373   3
   7   4  -4 9.19418 116.362   6
   6   4  -4 10939.6 408.853   6
   6   4  -4 11486.5 468.103   3
   5   4  -4 3371.37 259.543   6
   5   4  -4 3385.43 295.327   3
   4   4  -4 587.836 156.375   6
   4   4  -4 633.067 171.372   3
   3   4  -4-88.4021 146.217   6
   3   4  -4-21.9852 125.455   3
   2   4  -4 12159.2 436.123   6
   2   4  -4 11772.2 438.615   3
   1   4  -4 10025.0 399.463   6
   0   4  -4 8258.77 375.357   6
   8   5  -4 32.8963 67.2378   7
   7   5  -4-28.9604 104.854   7
   7   5  -4 40.3848 77.0870   6
   6   5  -4 3770.21 219.020   6
   6   5  -4 4233.99 226.423   7
   5   5  -4 19.5178 100.588   6
   5   5  -4-46.5464 103.971   3
   5   5  -4-98.4172 103.585   7
   4   5  -4 3463.41 245.900   6
   4   5  -4 4297.77 229.745   7
   4   5  -4 3789.96 253.440   3
   3   5  -4 341.829 134.804   3
   3   5  -4 157.937 119.999   7
   3   5  -4 286.996 133.366   6
  -3   5   5 4991.95 266.799   4
  -2   5   5-16.1724 102.266   3
  -2   5   5 117.804 112.552   4
  -1   5   5 154.450 107.470   3
  -1   5   5-31.0007 123.447   4
   0   5   5 733.167 164.502   3
   0   5   5 940.172 151.665   4
   1   5   5 3806.64 285.497   3
   1   5   5 4104.05 230.671   6
   1   5   5 3512.32 272.067   4
   2   5   5 306.961 112.739   6
   2   5   5 663.596 149.296   3
   3   5   5 342.861 105.743   6
   3   5   5 241.848 119.127   3
   4   5   5 321.862 127.667   3
   4   5   5 101.266 106.220   6
   5   5   5 1026.92 153.239   3
   5   5   5 1039.51 151.195   6
   6   5   5 486.074 104.938   6
   6   5   5 546.187 115.292   3
   7   5   5 305.881 82.7481   3
   7   5   5 434.070 83.1622   6
  -1   4   5 36213.8 767.157   4
   0   4   5 11443.2 388.540   6
   0   4   5 11375.4 449.643   4
   1   4   5 3201.42 219.837   6
   1   4   5 3389.45 266.878   4
   2   4   5 201.906 119.773   6
   2   4   5 100.259 140.226   4
   3   4   5 14231.5 483.412   6
   3   4   5 14150.5 495.580   4
   4   4   5 1903.97 221.451   3
   4   4   5 1918.66 222.205   6
   4   4   5 1799.15 203.215   4
   5   4   5 2479.66 238.246   3
   5   4   5 2555.76 247.570   6
   6   4   5 1798.80 205.961   3
   6   4   5 1677.17 204.267   6
   7   4   5 629.107 173.612   6
   7   4   5 461.453 133.464   3
   8   4   5 139.858 98.9726   3
   8   4   5 83.4530 124.305   6
   9   4   5 448.736 117.284   6
  10   4   5 22.1912 72.5655   6
  -6   3   5 1532.08 322.869   9
  -5   3   5 1646.98 306.321   9
   5  -3  -5 998.853 334.013  10
  -4   3   5 729.332 184.436   9
   4  -3  -5 324.578 205.947  10
  -3   3   5 59777.7 1301.13   9
   3  -3  -5 61188.7 1520.03  10
   2  -3  -5 11576.3 666.907  10
   1  -3  -5 445.835 157.980  10
   0  -3  -5 1006.98 272.530  10
  -1  -3  -5 30903.4 1032.50  10
  -2  -3  -5-196.185 213.451  10
   3   3   5 1511.71 177.455   4
  -3  -3  -5 755.905 189.424  10
  -4  -3  -5 49.0628 91.8180  10
   4   3   5 309.620 117.839   4
  -5  -3  -5 3080.81 329.630  10
   5   3   5 2855.56 225.849   4
   6   3   5 74.7153 107.406   3
   7   3   5 7665.25 344.439   3
  12   3   5 982.644 111.417   6
  -9   2   5 3995.79 226.333   8
  -8   2   5 10243.4 628.330   9
  -8   2   5 10013.2 328.022   8
  -7   2   5 6607.76 486.181   9
   6  -2  -5 662.571 161.708  10
  -6   2   5 682.924 192.398   9
   5  -2  -5 32129.5 1043.14  10
  -5   2   5 32332.5 914.268   9
   4  -2  -5 2986.24 348.016  10
  -4   2   5 3626.67 307.167   9
   3  -2  -5 1134.55 244.455  10
  -3   2   5 1003.92 185.469   9
  -2   2   5 13444.6 506.100   9
   2  -2  -5 13605.0 603.136  10
   1  -2  -5 123036. 1690.20  10
  -1   2   5 119742. 1359.85   9
   0  -2  -5 5021.26 373.375  10
   0   2   5 4323.31 255.751   9
  -1  -2  -5 28288.1 800.734  10
  -2  -2  -5 68262.7 1239.36  10
  -3  -2  -5 145176. 1801.62  10
  -4  -2  -5 25203.4 806.180  10
  -5  -2  -5 2948.47 266.260  10
  -8  -2  -5 5622.64 464.669   2
  12  -1  -5 75.8873 85.4706   5
 -11   1   5 334.094 115.635   8
  11  -1  -5 335.595 103.042   5
  10  -1  -5 3361.05 218.946   5
 -10   1   5 3177.09 229.294   8
   9  -1  -5 1581.33 162.711   5
  -9   1   5 1494.58 232.759   9
  -9   1   5 1358.65 158.616   8
   8  -1  -5 1300.46 152.986   5
  -8   1   5 1278.86 231.408   9
  -8   1   5 1744.55 159.218   8
  -7   1   5 19554.1 806.789   1
   7  -1  -5 19405.5 753.741  10
  -7   1   5 19239.4 697.298   9
   6  -1  -5 46450.8 1121.46  10
  -6   1   5 48509.8 1136.67   1
  -6   1   5 48065.3 1026.30   9
  -5   1   5 123.909 114.460   1
   5  -1  -5-3.69608 182.209  10
  -5   1   5 54.0368 149.670   9
   4  -1  -5 40897.7 997.030  10
  -4   1   5 42282.2 855.530   9
   3  -1  -5 81477.7 1345.28  10
   2  -1  -5 87329.0 1327.19  10
   1  -1  -5 160.186 156.868  10
   0  -1  -5 95470.2 1238.06  10
  -1  -1  -5 6515.80 346.930  10
  -2  -1  -5 46219.9 845.667  10
  -3  -1  -5 2797.42 234.420  10
  -4  -1  -5 101531. 1223.98  10
  -7  -1  -5 578.408 191.979   2
  -8  -1  -5 16359.3 736.243   2
  -9  -1  -5 3157.72 370.723   2
  -9  -1  -5 2922.64 205.439   8
 -10  -1  -5 5519.72 260.124   8
 -11  -1  -5 1093.17 135.533   8
  14   0  -5 112.159 78.8200   5
  13   0  -5 72.8185 93.5821   5
  12   0  -5 77.4329 116.222   5
  11   0  -5-35.7222 117.694   5
 -10   0   5-223.317 207.478   1
  10   0  -5 108.812 120.997   5
 -10   0   5 150.837 121.456   8
  -9   0   5 95.3443 149.546   1
  -9   0   5 16.1301 112.897   8
  -8   0   5 46197.9 1045.76   9
  -8   0   5 46481.8 1257.91   1
  -8   0   5 46167.9 697.715   8
  -7   0   5-471.945 191.651   1
  -7   0   5 127.038 113.079   9
  -6   0   5 36664.7 825.185   9
   5   0  -5-36.4823 171.412  10
   4   0  -5 31794.7 842.490  10
   3   0  -5 98.9920 164.120  10
   2   0  -5 6559.54 388.574  10
   1   0  -5-3.43066 182.574  10
   0   0  -5 34060.8 756.561  10
  -1   0  -5-45.4074 151.536  10
  -2   0  -5 193179. 1583.21  10
  -3   0  -5-101.477 109.697  10
  -4   0  -5 9433.70 451.752   2
  -5   0  -5-12.3677 152.687   2
  -6   0  -5 2178.48 263.876   2
  -7   0  -5-117.701 160.120   2
  -8   0  -5 6795.94 486.603   2
  -8   0  -5 6904.33 289.559   8
  -9   0  -5-73.0030 112.359   8
  -9   0  -5-424.366 148.039   2
 -10   0  -5 391.853 135.322   8
 -11   0  -5-43.0197 110.838   8
 -12   0  -5 829.082 140.029   8
 -13   0  -5-18.1951 70.9333   8
 -14   0  -5 635.271 75.0646   8
  14   1  -5 472.473 95.1615   5
  13   1  -5-81.1584 102.152   5
  12   1  -5 93.6266 112.866   5
  11   1  -5 382.041 146.870   5
  -7  -1   5 21418.5 642.236   9
  -1   1  -5 5664.86 262.202   2
  -2   1  -5 38666.7 747.650   2
  -3   1  -5 1411.98 217.171   2
  -4   1  -5 92273.8 1368.99   2
  -5   1  -5 407.358 183.183   2
  -6   1  -5 3395.58 350.310   2
  -7   1  -5 664.486 115.935   8
  -8   1  -5 15860.4 446.169   8
  -9   1  -5 3070.87 228.061   8
 -10   1  -5 5665.54 294.245   8
 -11   1  -5 1541.24 173.556   8
 -12   1  -5-42.9253 108.130   8
 -13   1  -5 1.49430 80.8064   8
 -14   1  -5-73.9177 60.0666   8
  14   2  -5 143.955 62.3990   5
  13   2  -5 996.318 125.600   5
  12   2  -5 1044.36 145.899   5
  11   2  -5 10749.5 363.197   5
  10   2  -5 926.146 158.604   7
  10   2  -5 775.460 160.319   5
   9   2  -5 3582.64 254.945   7
   7   2  -5 7197.29 359.623   3
   6   2  -5 623.282 146.668   3
  -6   2  -5 6573.44 267.975   8
  -7   2  -5 12557.8 391.371   8
  -8   2  -5 5486.54 273.033   8
  -9   2  -5 72.2726 113.737   8
 -10   2  -5 3118.43 213.306   8
 -11   2  -5-2.15971 94.0202   8
 -12   2  -5 61.8363 82.6266   8
 -13   2  -5 60.9224 63.9028   8
  12   3  -5 64.3154 68.6302   5
  11   3  -5 885.110 112.800   5
  11   3  -5 666.922 127.715   7
  10   3  -5 204.244 136.737   7
  10   3  -5 199.844 88.8048   5
   9   3  -5 1483.85 146.281   5
   9   3  -5 1492.65 198.035   7
   8   3  -5 1809.52 231.458   3
   7   3  -5 9942.70 445.939   3
   6   3  -5 1977.17 227.958   3
   5   3  -5 2010.59 203.861   3
   4   3  -5 214.815 111.750   3
   4   3  -5 140.723 111.783   6
   3   3  -5 62728.4 807.673   6
   3   3  -5 63571.8 912.277   3
  -6   3  -5 72.3113 77.2044   8
  -7   3  -5 6657.58 273.752   8
  -8   3  -5 180.011 82.2166   8
  -9   3  -5 34.8142 80.5212   8
 -10   3  -5 71.7276 76.3516   8
 -11   3  -5 232.766 73.1581   8
  10   4  -5 418.710 103.869   7
   9   4  -5 1447.00 162.500   7
   8   4  -5 3550.71 256.619   7
   7   4  -5 3103.16 248.738   7
   7   4  -5 3075.31 272.843   3
   6   4  -5 196.153 156.786   3
   6   4  -5 35.5031 109.853   6
   6   4  -5 117.010 152.158   7
   5   4  -5 5284.22 284.442   6
   5   4  -5 5513.57 331.341   3
   4   4  -5 2452.59 212.621   6
   4   4  -5 2414.71 232.965   3
   3   4  -5 2418.69 220.039   6
   3   4  -5 2393.53 217.888   7
   3   4  -5 2303.15 226.455   3
   2   4  -5 1330.59 174.775   7
   2   4  -5 1588.09 199.398   6
   2   4  -5 1294.91 174.505   3
   1   4  -5 38657.8 737.641   6
   8   5  -5 535.172 88.0415   7
   7   5  -5 940.113 113.448   7
   6   5  -5 1217.28 135.237   7
   5   5  -5 575.679 120.919   7
   4   5  -5 237.433 108.276   7
  -3   5   6 44.8519 104.183   4
  -2   5   6 989.678 158.742   3
  -2   5   6 1160.77 168.342   4
  -1   5   6 998.040 164.461   3
  -1   5   6 1209.52 170.797   4
   0   5   6 2421.11 232.750   3
   0   5   6 2671.48 224.112   4
   1   5   6 473.275 137.962   4
   1   5   6 482.087 140.565   3
   2   5   6 395.576 130.644   3
   3   5   6 1313.81 176.002   3
   3   5   6 1426.76 128.988   6
   4   5   6 270.360 101.409   6
   4   5   6 374.376 117.997   3
   5   5   6 138.204 97.4813   3
   5   5   6 366.917 84.6944   6
   6   5   6 251.845 71.6033   6
   6   5   6 66.9867 71.1744   3
   0   4   6 70.4211 125.332   4
   1   4   6 4476.42 305.372   4
   2   4   6 318.262 110.997   6
   2   4   6 201.523 138.725   4
   3   4   6 315.459 107.203   6
   3   4   6 307.145 130.462   4
   4   4   6 1174.51 189.055   3
   4   4   6 1211.61 175.811   6
   4   4   6 1234.59 191.161   4
   5   4   6 3982.52 273.970   3
   5   4   6 4313.16 284.393   6
   6   4   6-93.8805 116.274   6
   6   4   6-93.3042 115.891   3
   7   4   6 45.8342 109.498   6
   7   4   6 11.3676 104.008   3
   8   4   6 33.6595 81.9773   3
   8   4   6 170.144 104.781   6
   9   4   6-64.7854 97.1574   6
   5  -3  -6 3247.99 448.965  10
  -5   3   6 2855.88 381.887   9
   4  -3  -6 27.9166 106.853  10
  -4   3   6-522.051 218.074   9
   3  -3  -6 17099.7 870.719  10
  -3   3   6 16713.6 748.366   9
   2  -3  -6 4951.74 499.031  10
   1  -3  -6 4313.13 462.353  10
   0  -3  -6 492.507 236.126  10
  -1  -3  -6 11125.8 673.510  10
  -2  -3  -6 1159.69 253.257  10
   3   3   6 7864.20 343.307   4
  -3  -3  -6 7866.98 582.836  10
  -4  -3  -6 6228.83 561.674  10
   4   3   6 6320.56 317.980   4
  -5  -3  -6 2191.36 303.220  10
   5   3   6 1726.10 189.403   4
   6   3   6 994.053 157.052   3
   7   3   6 417.600 116.057   3
  -8   2   6 4679.50 449.036   9
  -7   2   6 1561.28 285.107   9
  -6   2   6 224.053 179.433   9
   6  -2  -6 390.257 170.532  10
   5  -2  -6 6765.36 548.227  10
  -5   2   6 6297.02 452.875   9
   4  -2  -6 21195.5 883.754  10
  -4   2   6 21081.8 750.483   9
   3  -2  -6 51941.8 1301.08  10
  -3   2   6 49904.9 1075.63   9
   2  -2  -6 23447.2 848.908  10
  -2   2   6 22770.8 711.086   9
  -1   2   6 11347.4 480.291   9
   1  -2  -6 11154.6 588.625  10
   0  -2  -6 529.873 211.582  10
   0   2   6 552.825 140.727   9
  -1  -2  -6 65662.9 1308.50  10
  -2  -2  -6 6798.87 460.572  10
  -3  -2  -6 8597.45 501.295  10
  -4  -2  -6 13.5168 157.477  10
  -5  -2  -6 13841.9 633.727  10
  -7  -2  -6 214.431 217.202   2
  12  -1  -6 248.933 105.723   5
  11  -1  -6 341.494 118.436   5
  10  -1  -6 5676.64 272.362   5
   9  -1  -6 323.202 118.011   5
  -9   1   6 7.91352 218.523   9
   8  -1  -6 37145.0 617.181   5
  -8   1   6 37999.1 1081.97   9
   7  -1  -6 1012.96 258.441  10
  -7   1   6 863.444 206.181   9
   6  -1  -6 12235.7 641.217  10
  -6   1   6 13001.9 586.068   9
   5  -1  -6 4496.00 400.982  10
  -5   1   6 4485.67 353.980   9
   4  -1  -6 82985.2 1519.99  10
  -4   1   6 85057.3 1289.13   9
   3  -1  -6 4181.05 391.741  10
   2  -1  -6 43794.3 1047.07  10
   1  -1  -6 47695.2 1060.95  10
   0  -1  -6 97189.5 1397.79  10
  -1  -1  -6 4792.44 346.467  10
  -2  -1  -6 2480.39 247.970  10
  -3  -1  -6 5994.12 347.077  10
  -4  -1  -6 21396.7 632.337  10
  -6  -1  -6 161.533 181.085   2
  -7  -1  -6 1756.66 253.869   2
  -8  -1  -6 830.582 174.753   2
  14   0  -6 109.459 74.1265   5
  13   0  -6 18.8057 89.4615   5
  12   0  -6 7224.07 304.673   5
  11   0  -6-107.219 117.492   5
  10   0  -6 16502.1 456.287   5
  -9   0   6 116.884 183.803   1
   9   0  -6 86.0990 108.407   5
  -9   0   6 127.159 140.798   9
   8   0  -6 51227.9 715.274   5
  -8   0   6 51913.8 1332.13   1
  -8   0   6 49295.9 1148.17   9
  -7   0   6 48.9961 138.313   9
  -7   0   6 154.763 161.324   1
  -6   0   6 6053.28 402.482   1
  -6   0   6 5766.68 379.692   9
   5   0  -6 22.6133 166.723  10
   4   0  -6 104894. 1605.13  10
   3   0  -6 128.439 190.894  10
   2   0  -6 151446. 1814.21  10
   1   0  -6 50.6904 172.405  10
   0   0  -6 1298.13 243.188  10
  -1   0  -6-25.4771 153.595  10
  -2   0  -6 41346.9 834.578  10
  -3   0  -6-108.780 112.351  10
  -4   0  -6 6620.19 409.923   2
  -5   0  -6 183.855 188.018   2
  -6   0  -6 83806.7 1496.69   2
  -7   0  -6 25.3598 194.668   2
  -7   0  -6 170.923 84.5470   8
  -8   0  -6 883.325 133.778   8
  -8   0  -6 620.658 240.105   2
  -9   0  -6 28.5736 110.792   8
 -10   0  -6 15134.8 442.803   8
 -11   0  -6-37.8745 105.920   8
 -12   0  -6 5464.39 253.080   8
 -13   0  -6 17.1037 69.8701   8
  14   1  -6 927.973 106.630   5
  13   1  -6 104.984 93.6873   5
  12   1  -6 229.850 125.907   5
  11   1  -6 300.358 138.494   5
  10   1  -6 6078.28 301.866   5
   9   1  -6 434.423 142.084   5
   8   1  -6 38334.5 638.011   5
   8   1  -6 38861.4 650.576   7
   7   1  -6 861.400 134.868   5
  -7  -1   6 1048.78 188.969   9
  -1   1  -6 4735.17 269.855   2
  -2   1  -6 1776.40 218.274   2
  -3   1  -6 5293.10 361.098   2
  -4   1  -6 19634.0 698.802   2
  -5   1  -6 28.1757 167.087   2
  -6   1  -6 178.329 95.7903   8
  -6   1  -6 567.413 206.527   2
  -7   1  -6 1833.23 173.578   8
  -8   1  -6 293.792 122.731   8
  -9   1  -6-37.7413 115.199   8
 -10   1  -6 2206.93 203.499   8
 -11   1  -6 338.784 131.965   8
 -12   1  -6 1372.37 156.523   8
 -13   1  -6-89.0683 79.6958   8
  13   2  -6 1467.78 130.317   5
  12   2  -6 4180.89 224.218   5
  11   2  -6 112.161 112.409   5
  10   2  -6 964.659 158.848   7
  10   2  -6 676.612 152.075   5
   9   2  -6 5460.97 281.468   5
   9   2  -6 5224.46 293.066   7
   8   2  -6 4726.73 255.051   5
   8   2  -6 4646.80 278.635   7
   7   2  -6 1789.07 169.234   5
   7   2  -6 2011.99 204.767   7
   6   2  -6 144.415 122.140   3
   6   2  -6 264.708 104.054   5
  -5   2  -6 13404.9 382.623   8
  -6   2  -6 8082.09 315.234   8
  -7   2  -6 202.596 110.226   8
  -8   2  -6 1019.27 149.076   8
  -9   2  -6 2473.17 198.277   8
 -10   2  -6 42.1553 92.5210   8
 -11   2  -6 97.7582 89.8791   8
 -12   2  -6 71.2593 69.8460   8
 -13   2  -6 93.3569 57.0746   8
  12   3  -6 307.998 65.3742   5
  11   3  -6 2221.68 149.362   5
  11   3  -6 2263.01 164.570   7
  10   3  -6 1347.20 141.344   5
  10   3  -6 1521.54 169.770   7
   9   3  -6 433.850 162.076   7
   9   3  -6 257.423 104.957   5
   8   3  -6 645.149 172.195   7
   7   3  -6 9531.51 398.971   7
   6   3  -6 332.133 159.298   3
   6   3  -6 286.504 162.331   7
   5   3  -6 3230.32 263.617   3
   4   3  -6-17.2167 124.767   3
   3   3  -6 16859.9 457.024   7
   3   3  -6 17905.6 511.127   3
   2   3  -6 4524.48 247.566   7
   2   3  -6 4584.71 245.895   6
   2   3  -6 4655.99 262.979   3
   1   3  -6 3610.22 214.615   7
   1   3  -6 3188.64 213.935   6
  -5   3  -6 1721.87 153.434   8
  -6   3  -6 772.268 120.002   8
  -7   3  -6 250.988 92.3349   8
  -8   3  -6 203.095 86.5323   8
  -9   3  -6-54.3845 68.5641   8
 -10   3  -6 132.370 82.8328   8
 -11   3  -6 585.883 78.5548   8
  10   4  -6-81.2807 86.8631   7
   9   4  -6 424.047 119.220   7
   8   4  -6 2401.77 216.043   7
   7   4  -6 388.046 153.957   7
   6   4  -6 181.191 144.727   7
   5   4  -6 2446.37 219.059   7
   5   4  -6 2166.39 187.065   6
   5   4  -6 1876.41 224.796   3
   4   4  -6 2236.96 216.713   7
   4   4  -6 1885.49 216.919   3
   3   4  -6 7022.62 323.659   7
   3   4  -6 6724.40 313.345   6
   3   4  -6 6425.49 332.128   3
   2   4  -6 5954.83 296.739   7
   2   4  -6 6071.86 312.646   6
   2   4  -6 5997.71 327.051   3
   7   5  -6 289.566 79.6213   7
   6   5  -6-79.5279 94.4364   7
   5   5  -6 707.201 119.287   7
   4   5  -6 8054.80 279.946   7
  -4   5   7 931.382 127.418   4
  -3   5   7 1095.28 123.932   3
  -3   5   7 1234.54 140.620   4
  -2   5   7 485.566 99.2660   3
  -2   5   7 105.641 110.105   4
  -1   5   7 126.324 99.7918   3
  -1   5   7 33.7476 104.860   4
   0   5   7 700.645 145.248   3
   0   5   7 637.242 137.650   4
   1   5   7 992.859 162.385   3
   1   5   7 1103.19 161.705   4
   2   5   7 845.126 149.592   3
   3   5   7 510.091 117.969   3
   4   5   7 114.693 76.1557   3
   5   5   7 111.497 79.8183   3
   0   4   7 4027.72 301.127   4
   1   4   7 3376.81 274.718   4
   2   4   7 380.528 150.207   4
   3   4   7 2087.79 191.271   6
   3   4   7 2443.34 223.566   4
   4   4   7 1.05639 113.208   3
   4   4   7-22.8031 114.964   6
   4   4   7 46.4387 116.545   4
   5   4   7 1397.28 186.473   3
   5   4   7 1464.70 185.475   6
   6   4   7 133.423 110.011   3
   6   4   7 33.0376 117.840   6
   7   4   7 86.7304 107.836   6
   7   4   7 151.525 96.5417   3
   8   4   7 483.933 105.028   6
   9   4   7 500.282 89.8392   6
  -5   3   7 835.201 300.744   9
   4  -3  -7 724.549 307.039  10
  -4   3   7 415.700 230.247   9
   3  -3  -7 17848.3 973.308  10
   2  -3  -7 346.414 244.085  10
   1  -3  -7 47227.1 1450.72  10
   0  -3  -7 2483.75 362.169  10
  -1  -3  -7 39509.1 1334.36  10
  -2  -3  -7 848.260 280.079  10
  -3  -3  -7 36857.4 1298.18  10
   3   3   7 36035.3 719.670   4
  -4  -3  -7 8161.89 629.506  10
   4   3   7 7469.91 348.349   4
   5   3   7 21860.4 559.162   4
   6   3   7 269.507 109.284   3
   7  -2  -7 114.123 135.883  10
  -7   2   7-297.994 180.027   9
   6  -2  -7 8702.41 637.965  10
  -6   2   7 8655.19 569.125   9
   5  -2  -7 19036.1 924.053  10
  -5   2   7 19182.8 788.770   9
   4  -2  -7 3245.38 418.955  10
  -4   2   7 3266.91 335.494   9
   3  -2  -7 834.167 255.144  10
  -3   2   7 657.059 188.697   9
   2  -2  -7 10265.4 648.577  10
  -2   2   7 9895.00 522.008   9
   1  -2  -7 32753.2 1073.69  10
  -1   2   7 31195.5 854.182   9
   0  -2  -7 9327.23 582.725  10
   0   2   7 8385.56 434.646   9
  -1  -2  -7 3769.66 390.669  10
  -2  -2  -7 30475.5 977.055  10
  -3  -2  -7 224.948 192.265  10
  -4  -2  -7 5606.70 445.426  10
  12  -1  -7 246.884 101.744   5
  11  -1  -7 5225.86 250.205   5
  10  -1  -7 1053.20 155.298   5
   9  -1  -7 8917.67 338.717   5
   8  -1  -7 903.306 151.910   5
  -8   1   7 1071.80 201.639   9
   7  -1  -7 1564.09 302.289  10
  -7   1   7 1192.91 238.531   9
   7  -1  -7 1374.16 161.281   5
   6  -1  -7 12356.0 687.154  10
  -6   1   7 11767.0 603.741   9
   5  -1  -7 1315.54 293.049  10
  -5   1   7 810.346 213.494   9
   4  -1  -7 46458.6 1232.90  10
  -4   1   7 46254.6 1027.11   9
   3  -1  -7 4410.71 421.686  10
   2  -1  -7 2032.79 314.997  10
   1  -1  -7 4466.91 398.223  10
   0  -1  -7 30747.2 910.621  10
  -1  -1  -7 7242.92 459.976  10
  -2  -1  -7-58.4338 148.602  10
  -3  -1  -7 6239.54 405.633  10
  -6  -1  -7 14211.5 716.775   2
  -7  -1  -7 2183.62 324.236   2
  14   0  -7 1004.82 103.533   5
  13   0  -7 58.4026 88.6490   5
  12   0  -7 1364.54 161.648   5
  11   0  -7 41.0314 110.688   5
  10   0  -7 4405.61 262.843   5
  -9   0   7 89.6034 142.434   1
   9   0  -7 9.18382 113.098   5
   8   0  -7 6238.48 285.999   5
  -8   0   7 5366.44 424.607   1
  -8   0   7 5515.45 458.183   9
  -7   0   7-95.1726 166.014   1
   7   0  -7 35.3655 112.017   5
  -7   0   7-42.8102 161.802   9
  -6   0   7 45501.7 1057.97   1
  -6   0   7 44231.8 1039.62   9
  -5   0   7 321.715 111.528   1
   5   0  -7 100.583 171.701  10
  -4   0   7 113.312 116.774   1
   4   0  -7 241.727 196.976  10
   3   0  -7 225.160 211.768  10
   2   0  -7 156545. 1995.18  10
   1   0  -7-10.2744 201.559  10
   0   0  -7 24438.4 774.243  10
  -1   0  -7 148.330 162.058  10
  -2   0  -7 72578.2 1196.88  10
  -3   0  -7-191.206 153.301   2
  -4   0  -7 129581. 1738.86   2
  -5   0  -7-39.4843 192.884   2
  -6   0  -7 23362.1 864.437   2
  -6   0  -7 23564.2 499.055   8
  -7   0  -7-20.9703 112.190   2
  -7   0  -7-11.7656 108.294   8
  -8   0  -7 17480.3 864.107   2
  -8   0  -7 17550.1 466.963   8
  -9   0  -7-83.5038 123.726   8
 -10   0  -7 3796.14 243.698   8
 -11   0  -7-102.348 107.948   8
 -12   0  -7 5103.01 228.222   8
 -13   0  -7-93.2466 60.3763   8
  14   1  -7-4.11541 69.0724   5
  13   1  -7 734.374 123.972   5
  12   1  -7 461.659 127.022   5
  11   1  -7 5228.54 280.959   5
  10   1  -7 1094.88 173.091   5
   9   1  -7 8856.39 348.673   5
   8   1  -7 1067.91 153.509   5
   8   1  -7 633.287 142.888   7
   7   1  -7 1470.29 149.601   5
   7   1  -7 1378.58 161.535   7
  -7  -1   7 1277.24 241.028   9
  -1   1  -7 6894.47 331.022   2
  -2   1  -7 175.971 121.606   2
  -3   1  -7 5349.87 369.137   2
  -4   1  -7 19587.1 735.724   2
  -5   1  -7 1198.73 216.698   2
  -6   1  -7 14462.9 722.247   2
  -6   1  -7 15151.6 426.751   8
  -7   1  -7 2412.70 205.999   8
  -8   1  -7 286.342 126.121   8
  -9   1  -7 301.733 123.872   8
 -10   1  -7 5649.41 286.130   8
 -11   1  -7 233.767 112.620   8
 -12   1  -7 60.6239 89.9157   8
 -13   1  -7 386.508 78.8239   8
  13   2  -7 211.536 79.5669   5
  12   2  -7-46.0755 91.6590   5
  11   2  -7-3.38286 111.054   5
  10   2  -7 109.291 112.654   7
  10   2  -7 193.371 108.521   5
   9   2  -7 7709.72 326.024   5
   9   2  -7 7729.60 346.961   7
   8   2  -7 428.453 158.061   7
   8   2  -7 494.156 132.615   5
   7   2  -7 194.983 134.322   7
   7   2  -7 141.052 105.962   5
   6   2  -7 8772.00 306.727   5
   6   2  -7 8499.75 354.215   7
   5   2  -7 18856.9 418.963   5
   5   2  -7 18721.1 477.154   7
   4   2  -7 3577.70 220.651   7
  -4   2  -7 5288.11 256.674   8
  -5   2  -7 9048.87 333.467   8
  -6   2  -7 1575.07 174.574   8
  -7   2  -7 54.1766 109.820   8
  -8   2  -7 241.494 112.351   8
  -9   2  -7 2289.53 196.230   8
 -10   2  -7 43.8864 91.1134   8
 -11   2  -7 115.016 76.6937   8
 -12   2  -7 292.200 77.3775   8
  11   3  -7 2633.90 173.449   7
  11   3  -7 2695.95 146.193   5
  10   3  -7 294.229 122.326   7
  10   3  -7 367.388 96.7862   5
   9   3  -7 83.6021 125.765   7
   8   3  -7-93.0241 146.757   7
   7   3  -7 10332.9 415.708   7
   6   3  -7 9138.75 391.571   7
   5   3  -7 1489.79 198.478   7
   4   3  -7 470.373 149.232   7
   3   3  -7 16655.3 475.621   7
   2   3  -7 48.4335 124.589   7
   1   3  -7 42991.3 689.419   7
  -4   3  -7 6489.06 286.579   8
  -5   3  -7 20901.6 486.134   8
  -6   3  -7 247.671 100.409   8
  -7   3  -7 3441.12 213.331   8
  -8   3  -7 121.508 75.0719   8
  -9   3  -7 294.226 86.4643   8
 -10   3  -7 1039.96 107.827   8
  10   4  -7 1093.43 114.073   7
   9   4  -7 1381.65 146.322   7
   8   4  -7 57.7194 123.024   7
   7   4  -7 187.928 124.713   7
   6   4  -7 2328.26 212.813   7
   5   4  -7 6814.33 326.178   7
   4   4  -7 51.9389 130.623   7
   3   4  -7 937.993 162.396   7
   2   4  -7 1676.46 173.278   7
   6   5  -7 815.198 98.5426   7
   5   5  -7 1265.91 116.951   7
   4   5  -7 1249.36 120.283   7
  -4   5   8 504.244 98.3831   4
  -3   5   8 1182.58 116.402   3
  -3   5   8 1037.36 140.782   4
  -2   5   8 230.926 87.3139   3
  -2   5   8 43.1769 94.4756   4
  -1   5   8 775.863 131.644   3
  -1   5   8 949.168 144.044   4
   0   5   8 72.4169 98.0702   3
   0   5   8 163.379 102.698   4
   1   5   8 407.927 125.820   3
   1   5   8 450.469 120.381   4
   2   5   8-48.2974 93.6093   3
   3   5   8 253.763 97.8765   3
   4   5   8 799.518 112.822   3
   0   4   8 81.5773 126.414   4
   1   4   8 5421.67 326.155   4
   2   4   8 166.780 132.048   4
   3   4   8 213.573 127.411   4
   4   4   8-40.8429 109.860   3
   4   4   8-58.1782 127.687   4
   5   4   8 2357.03 206.512   3
   5   4   8 2454.58 186.422   6
   6   4   8 1205.82 154.463   3
   6   4   8 1372.11 147.604   6
   7   4   8 99.7345 82.0038   6
   7   4   8-50.9684 77.6425   3
   8   4   8 90.0664 66.5190   6
   3  -3  -8 96.8330 299.676  10
   2  -3  -8 556.153 255.357  10
   1  -3  -8 38652.0 1439.42  10
   0  -3  -8 16385.7 933.424  10
  -1  -3  -8 3578.83 463.460  10
  -2  -3  -8 263.083 381.926  10
   3   3   8 25036.7 603.788   4
   4   3   8 1262.13 177.392   4
   5   3   8 4496.16 272.136   4
   6   3   8 331.296 107.937   3
   6  -2  -8 9785.18 704.477  10
  -6   2   8 10307.6 636.792   9
   5  -2  -8 11481.2 782.072  10
  -5   2   8 11614.9 663.483   9
   4  -2  -8 1555.09 343.381  10
  -4   2   8 1441.35 251.920   9
   3  -2  -8 19524.2 950.270  10
  -3   2   8 18745.0 785.005   9
   2  -2  -8 27629.7 1095.32  10
  -2   2   8 25589.7 881.466   9
   1  -2  -8 183.984 170.222  10
  -1   2   8 256.788 142.667   9
   0  -2  -8-131.850 196.907  10
  -1  -2  -8 25529.6 983.389  10
  -2  -2  -8 2612.84 336.510  10
  -2  -2  -8 2916.92 223.765   5
  -3  -2  -8 887.242 174.944  10
  12  -1  -8 163.184 100.068   5
  11  -1  -8 1425.75 158.697   5
  10  -1  -8 18656.9 473.041   5
   9  -1  -8 1463.33 168.850   5
  -8   1   8 25056.8 966.004   9
   8  -1  -8 24713.5 551.880   5
   7  -1  -8 2951.99 417.396  10
  -7   1   8 3588.10 381.853   9
   7  -1  -8 3414.45 214.245   5
   6  -1  -8 8852.66 638.871  10
  -6   1   8 8558.13 559.895   9
   6  -1  -8 9066.99 325.747   5
   5  -1  -8 10083.7 653.688  10
  -5   1   8 10063.6 574.712   9
   4  -1  -8 20263.4 883.693  10
   3  -1  -8 5346.14 486.214  10
   2  -1  -8 7464.95 538.279  10
   1  -1  -8 10872.0 630.899  10
   0  -1  -8 95229.5 1700.07  10
  -1  -1  -8 58.5621 199.737  10
  -2  -1  -8 8419.57 540.865  10
  -3  -1  -8 15433.4 690.009  10
  -6  -1  -8 1096.61 253.108   2
  -7  -1  -8 61.9480 249.427   2
  14   0  -8 272.399 65.7039   5
  13   0  -8 113.620 74.2215   5
  12   0  -8 936.450 142.188   5
  11   0  -8-65.7896 114.578   5
  10   0  -8 780.948 140.641   5
   9   0  -8-33.8329 124.415   5
   8   0  -8 963.331 159.569   5
  -8   0   8 1022.71 242.195   9
   7   0  -8-121.330 120.541   5
  -7   0   8 52.7070 148.626   9
   6   0  -8 127527. 1119.92   5
   4   0  -8 165.202 222.099  10
   3   0  -8-59.2632 177.016  10
   2   0  -8 257747. 2732.50  10
   1   0  -8-4.89464 194.505  10
   0   0  -8 1491.64 275.043  10
  -1   0  -8-70.7416 183.380  10
  -2   0  -8 32523.8 871.576  10
  -2   0  -8 32956.9 835.961   2
  -3   0  -8-26.6459 150.003   2
  -4   0  -8 2152.41 281.577   2
  -5   0  -8-34.6001 108.895   8
  -5   0  -8-385.256 184.248   2
  -6   0  -8 1369.84 259.436   2
  -6   0  -8 1027.68 142.686   8
  -7   0  -8-269.240 217.222   2
  -8   0  -8 1363.94 170.457   8
  -9   0  -8-14.8484 105.418   8
 -10   0  -8 5476.27 269.726   8
 -11   0  -8 3.36422 86.8941   8
 -12   0  -8 1506.67 129.525   8
  14   1  -8 950.781 92.1819   5
  13   1  -8 69.0461 83.9750   5
  12   1  -8 328.539 121.594   5
  11   1  -8 1430.32 173.507   5
  10   1  -8 20089.5 511.590   5
   9   1  -8 1626.21 180.788   5
   9   1  -8 1481.74 176.121   7
   8   1  -8 25045.1 554.221   5
   8   1  -8 24232.1 565.890   7
   7   1  -8 3523.38 222.220   5
   7   1  -8 3796.90 244.517   7
  -7  -1   8 3044.04 339.783   9
   6   1  -8 9393.25 322.037   5
   6   1  -8 9332.03 347.836   7
  -2   1  -8 9750.21 461.047   2
  -3   1  -8 16284.4 648.212   2
  -4   1  -8 5514.19 387.859   2
  -4   1  -8 4474.53 233.815   8
  -5   1  -8 1002.01 236.620   2
  -5   1  -8 1026.43 147.013   8
  -6   1  -8 1344.19 160.990   8
  -7   1  -8 21.8377 117.478   8
  -8   1  -8 3934.71 259.470   8
  -9   1  -8-69.8894 110.949   8
 -10   1  -8 126.646 109.988   8
 -11   1  -8 173.171 100.661   8
 -12   1  -8 328.628 88.9050   8
  13   2  -8 855.894 88.9387   5
  12   2  -8 2272.69 159.032   5
  11   2  -8 13.5112 100.930   5
  10   2  -8 81.5586 113.738   7
  10   2  -8 76.0168 105.307   5
   9   2  -8 2745.18 204.585   5
   9   2  -8 2687.09 232.199   7
   8   2  -8 5580.99 281.391   5
   8   2  -8 6103.03 321.295   7
   7   2  -8 4152.62 239.256   5
   7   2  -8 4061.06 270.093   7
   6   2  -8 10284.6 344.499   5
   6   2  -8 10289.9 391.868   7
   5   2  -8 11120.1 397.180   7
   5   2  -8 11732.1 356.117   5
   4   2  -8 1459.25 170.040   7
   3   2  -8 19314.9 479.555   7
  -3   2  -8 602.945 116.593   8
  -4   2  -8 377.611 113.565   8
  -5   2  -8 16826.2 460.183   8
  -6   2  -8 1117.81 160.828   8
  -7   2  -8 119.735 105.004   8
  -8   2  -8 914.843 156.365   8
  -9   2  -8 451.707 118.596   8
 -10   2  -8-6.41769 84.9708   8
 -11   2  -8 147.291 79.2100   8
 -12   2  -8-32.1884 55.1397   8
  11   3  -8 1976.11 138.103   7
  10   3  -8 408.522 128.871   7
   9   3  -8 758.171 155.796   7
   8   3  -8 1665.81 196.297   7
   7   3  -8 2051.57 221.773   7
   6   3  -8 106.344 145.037   7
   5   3  -8 6478.86 338.879   7
   4   3  -8-9.60990 153.827   7
   3   3  -8 484.579 146.587   7
   2   3  -8 451.258 131.275   7
   1   3  -8 36743.7 662.639   7
  -2   3  -8 123.889 79.3141   8
  -3   3  -8 22100.5 503.701   8
  -4   3  -8 1388.32 157.600   8
  -5   3  -8 4238.50 242.051   8
  -6   3  -8 2.03770 94.2617   8
  -7   3  -8 5932.18 265.167   8
  -8   3  -8-27.0921 85.4949   8
  -9   3  -8 411.873 90.9811   8
 -10   3  -8 135.135 64.0150   8
   9   4  -8 3394.22 185.292   7
   8   4  -8 494.120 121.247   7
   7   4  -8 36.1531 115.586   7
   6   4  -8 83.0614 129.382   7
   5   4  -8 4792.28 276.975   7
   4   4  -8 1338.87 170.327   7
   3   4  -8 4841.22 263.980   7
   2   4  -8 941.060 150.890   7
  -3   5   9 296.843 87.7128   4
  -2   5   9 307.646 89.7612   3
  -2   5   9 611.640 109.375   4
  -1   5   9 448.665 91.5281   3
  -1   5   9 457.348 99.5904   4
   0   5   9 312.682 96.8789   3
   0   5   9 140.898 90.4765   4
   1   5   9 589.847 105.081   3
   2   5   9 3310.52 195.570   3
   3   5   9 1594.77 136.217   3
  -1   4   9 2918.08 257.307   4
   0   4   9 12.6129 120.346   4
   1   4   9 5193.26 305.239   4
   2   4   9-9.69824 115.848   4
   3   4   9 305.629 118.576   4
   4   4   9 24.3145 99.8104   3
   5   4   9 4430.10 243.043   3
   6   4   9 72.7544 75.3120   3
   3   3   9 961.935 156.783   4
   4   3   9 128.661 123.440   4
   5   3   9 1229.98 159.605   4
   5  -2  -9 3669.68 423.517  10
  -5   2   9 3692.69 418.251   9
   4  -2  -9 1367.96 173.225   5
   4  -2  -9 1999.09 340.332  10
  -4   2   9 1553.27 280.598   9
   3  -2  -9 8349.13 658.853  10
  -3   2   9 6931.24 540.319   9
   3  -2  -9 7706.42 330.157   5
  -2   2   9 18438.6 811.034   9
   2  -2  -9 18947.7 504.136   5
   1  -2  -9 559.952 102.962   5
  -1   2   9 240.003 169.310   9
   0  -2  -9 207.787 93.1436   5
   0  -2  -9 138.090 184.107  10
  -1  -2  -9 37369.3 1292.41  10
  -1  -2  -9 34263.6 692.198   5
  -2  -2  -9 8471.87 635.632  10
  -2  -2  -9 8220.13 374.835   5
  -3  -2  -9 1031.68 229.311  10
  12  -1  -9 2996.98 179.829   5
  11  -1  -9 147.756 98.2040   5
  10  -1  -9 222.365 114.140   5
   9  -1  -9 1374.52 179.713   5
   8  -1  -9 5384.43 284.353   5
  -7   1   9 7978.60 593.403   9
   7  -1  -9 7683.02 331.621   5
   6  -1  -9 403.012 130.080   5
   6  -1  -9 851.390 281.901  10
  -6   1   9 373.674 188.623   9
   5  -1  -9 417.345 118.995   5
  -5   1   9 186.976 162.164   9
   4  -1  -9 44560.1 1376.26  10
   4  -1  -9 43568.9 695.212   5
   3  -1  -9 2181.19 375.732  10
   2  -1  -9 28387.0 1072.60  10
   1  -1  -9 1343.06 333.423  10
   0  -1  -9 31421.0 1099.44  10
  -1  -1  -9 231.948 192.124  10
  -2  -1  -9 1540.07 305.594  10
  -2  -1  -9 1778.57 182.615   5
  -3  -1  -9 3850.34 263.982   5
  -5  -1  -9 613.696 144.701   2
  -6  -1  -9 20652.5 932.306   2
  13   0  -9-72.8131 76.6651   5
  12   0  -9 75.4397 87.0191   5
  11   0  -9 15.1374 106.617   5
  10   0  -9 591.687 133.468   5
   9   0  -9-8.65985 103.510   5
   8   0  -9 10290.4 379.004   5
   7   0  -9-41.5060 91.8856   5
  -7   0   9 97.1422 187.532   9
   6   0  -9 4829.47 275.257   7
   6   0  -9 4819.76 249.130   5
   5   0  -9-84.9816 151.104   7
   5   0  -9 18.1473 97.4813   5
   4   0  -9 5596.75 501.727  10
   3   0  -9 107.078 181.046  10
   2   0  -9 13329.8 715.140  10
   0   0  -9 57207.1 1329.92  10
  -1   0  -9-293.122 140.793   2
  -1   0  -9-39.0158 219.569  10
  -2   0  -9 25575.5 777.488   2
  -3   0  -9-156.704 158.090   2
  -4   0  -9 5630.43 422.669   2
  -4   0  -9 5553.41 301.706   5
  -4   0  -9 5535.52 267.867   8
  -5   0  -9 150.796 89.4627   8
  -5   0  -9-142.964 185.714   2
  -6   0  -9 62.8139 266.941   2
  -6   0  -9 48.9091 100.489   8
  -7   0  -9 72.8151 107.006   8
  -8   0  -9 4677.05 265.459   8
  -9   0  -9-77.9623 111.766   8
 -10   0  -9 140.915 96.5010   8
 -11   0  -9 103.146 81.9323   8
 -12   0  -9 1635.96 112.276   8
  13   1  -9 6.05925 76.0960   5
  12   1  -9 3171.19 205.263   5
  11   1  -9 65.2101 113.360   5
  10   1  -9 138.902 119.440   5
   9   1  -9 2033.98 187.450   7
   9   1  -9 1713.89 189.481   5
   8   1  -9 5429.16 285.275   5
   8   1  -9 5417.27 294.658   7
   7   1  -9 8239.69 354.649   7
  -7  -1   9 7506.99 550.347   9
   7   1  -9 8200.40 336.397   5
   6   1  -9 337.181 139.831   7
   6   1  -9 806.249 136.868   5
   5   1  -9 301.576 131.571   7
   5   1  -9 459.203 112.108   5
   4   1  -9 44246.9 718.738   7
   4   1  -9 43821.7 662.909   5
  -3   1  -9 4279.63 236.727   8
  -4   1  -9 14791.1 697.887   2
  -4   1  -9 14398.2 431.761   8
  -5   1  -9 122.025 85.2534   8
  -6   1  -9 20752.5 531.244   8
  -7   1  -9 2346.98 214.711   8
  -8   1  -9 171.980 117.356   8
  -9   1  -9 53.8866 101.290   8
 -10   1  -9 1782.13 173.035   8
 -11   1  -9 976.937 119.608   8
 -12   1  -9-12.3279 52.2589   8
  12   2  -9 667.747 98.3867   5
  11   2  -9 106.550 92.4863   5
  10   2  -9 2437.79 193.051   7
  10   2  -9 2756.54 204.323   5
   9   2  -9 4906.90 278.404   7
   9   2  -9 5023.58 261.196   5
   8   2  -9 328.009 139.836   7
   8   2  -9 195.709 118.429   5
   7   2  -9 1868.00 207.571   7
   7   2  -9 1981.94 180.125   5
   6   2  -9 5461.61 307.913   7
   6   2  -9 5434.92 267.191   5
   5   2  -9 3511.14 256.630   7
   5   2  -9 3571.98 213.421   5
   4   2  -9 1776.54 192.434   7
   4   2  -9 1266.42 150.091   5
   3   2  -9 7953.97 333.255   7
   2   2  -9 19856.5 495.461   7
   1   2  -9 98.7479 120.560   7
   0   2  -9 56.3485 103.676   7
  -1   2  -9 37397.7 642.950   7
  -3   2  -9 860.685 139.982   8
  -4   2  -9 277.125 115.431   8
  -5   2  -9 7315.11 330.996   8
  -6   2  -9 2097.41 199.089   8
  -7   2  -9 43.1747 105.860   8
  -8   2  -9-11.9005 94.3442   8
  -9   2  -9 614.304 126.991   8
 -10   2  -9 94.8826 78.1806   8
 -11   2  -9 40.4130 67.0641   8
  11   3  -9 1028.69 99.4250   7
  10   3  -9 260.404 104.484   7
   9   3  -9 900.037 159.258   7
   8   3  -9 1955.18 212.193   7
   7   3  -9 8105.00 364.443   7
   6   3  -9 296.093 155.826   7
   5   3  -9 2204.67 221.566   7
   4   3  -9 536.086 154.858   7
   3   3  -9 10020.5 387.260   7
   2   3  -9-57.3628 123.659   7
   1   3  -9 64.4473 124.151   7
  -1   3  -9 482.466 96.0791   8
  -2   3  -9 3233.70 222.007   8
  -3   3  -9 810.423 128.698   8
  -4   3  -9-23.8304 97.3803   8
  -5   3  -9 1142.12 133.037   8
  -6   3  -9 689.372 125.402   8
  -7   3  -9 1206.94 151.650   8
  -8   3  -9 86.6734 72.8447   8
  -9   3  -9-94.0232 61.6335   8
   9   4  -9 1769.96 127.973   7
   8   4  -9 95.8538 96.0651   7
   7   4  -9 594.697 115.860   7
   6   4  -9 1148.29 150.895   7
   5   4  -9 2136.58 197.290   7
   4   4  -9 2351.25 198.053   7
   3   4  -9 2330.03 195.760   7
   2   4  -9 1552.80 167.704   7
  -2   5  10 560.221 75.9725   4
  -1   5  10 896.833 103.362   4
  -1   5  10 540.269 97.9757   3
   0   5  10 32.1047 59.6646   3
   1   5  10 251.196 66.7811   3
  -1   4  10 28.8037 123.233   4
   0   4  10 1147.48 176.036   4
   1   4  10 6171.84 310.829   4
   2   4  10-9.12013 107.934   4
   3   4  10 1063.26 154.608   3
   3   4  10 1002.44 144.177   4
   4   4  10 492.998 108.695   3
   5   4  10 1367.54 137.172   3
   2   3  10 1637.90 192.451   4
   3   3  10 8690.11 354.554   4
   4   3  10 7.14863 78.5922   4
   5   3  10 1161.66 159.970   3
   6  -2 -10 16918.0 510.310   5
   5  -2 -10-49.4392 147.136   5
   4  -2 -10 691.103 150.575   5
  -4   2  10 640.332 248.487   9
   3  -2 -10 16241.3 979.900  10
   3  -2 -10 16095.9 483.707   5
   2  -2 -10 6916.06 670.519  10
  -2   2  10 6851.06 509.402   9
   2  -2 -10 6109.70 325.615   5
   1  -2 -10 2539.44 417.603  10
   1  -2 -10 2935.21 238.328   5
   0  -2 -10 13172.5 851.451  10
   0  -2 -10 12847.8 459.350   5
  -1  -2 -10 13380.6 789.211  10
  -1  -2 -10 10868.0 431.357   5
  -2  -2 -10 24734.2 1122.94  10
  -2  -2 -10 24022.0 639.354   5
  12  -1 -10 395.297 85.2919   5
  11  -1 -10 1239.02 143.222   5
  10  -1 -10 1205.65 167.959   5
   9  -1 -10 3211.51 231.242   5
   8  -1 -10 4167.88 272.010   5
   7  -1 -10 2151.32 214.976   5
   6  -1 -10 3058.28 464.772  10
  -6   1  10 2440.98 340.056   9
   6  -1 -10 2661.17 224.641   5
   5  -1 -10 7278.34 641.569  10
  -5   1  10 7387.21 544.960   9
   5  -1 -10 6764.91 324.959   5
   4  -1 -10 37221.7 1344.45  10
  -4   1  10 37868.9 1142.09   9
   4  -1 -10 36406.6 680.631   5
   3  -1 -10 1228.14 289.245  10
   3  -1 -10 1359.25 185.554   5
   2  -1 -10 4951.35 512.687  10
   2  -1 -10 5544.77 286.675   5
   1  -1 -10 14345.7 814.679  10
   1  -1 -10 13719.0 434.408   5
   0  -1 -10 57732.2 1552.98  10
   0  -1 -10 57967.8 883.969   5
  -1  -1 -10 178.471 128.012   5
  -1  -1 -10 148.093 112.338  10
  -2  -1 -10 11775.4 435.777   5
  -3  -1 -10 1515.39 194.282   5
  13   0 -10 43.0739 64.6798   5
  12   0 -10 2084.54 167.416   5
  11   0 -10 19.5293 103.356   5
  10   0 -10 7381.71 321.413   5
   9   0 -10 33.5600 123.157   5
   8   0 -10 34067.0 670.316   5
   7   0 -10-52.8607 115.129   7
   7   0 -10 17.3405 115.270   5
   6   0 -10 28730.8 638.750   7
   6   0 -10 29381.5 608.950   5
   5   0 -10 27.5084 115.516   7
   5   0 -10-230.740 129.271   5
   4   0 -10 149.269 91.8800   5
   4   0 -10 143.316 136.188   7
   3   0 -10 30.7188 92.0932   5
   3   0 -10-72.4641 118.116   7
   3   0 -10-154.827 158.374  10
   2   0 -10 14669.0 445.191   7
   2   0 -10 14828.8 800.100  10
   2   0 -10 15130.7 426.069   5
   1   0 -10-64.1284 118.777   5
   1   0 -10 163.407 96.7268   7
   1   0 -10-0.87833 140.245  10
   0   0 -10 6645.36 307.207   7
   0   0 -10 6869.74 501.184  10
   0   0 -10 6924.07 303.767   5
  -1   0 -10-14.0787 121.498   5
  -1   0 -10 45.4280 147.329  10
  -2   0 -10 26853.4 604.198   5
  -3   0 -10-14.4253 129.635   5
  -3   0 -10-93.7946 103.565   8
  -3   0 -10 124.662 144.814   2
  -4   0 -10 12170.5 668.169   2
  -4   0 -10 12257.1 396.785   8
  -5   0 -10 627.681 181.700   2
  -6   0 -10 43.9415 95.0197   8
  -7   0 -10 11.9259 99.7344   8
  -8   0 -10 1482.51 168.540   8
  -9   0 -10 46.1594 81.5607   8
 -10   0 -10-16.6676 78.3166   8
 -11   0 -10-101.541 74.9330   8
  13   1 -10 876.703 98.0983   5
  12   1 -10 273.732 95.5735   5
  11   1 -10 1509.39 168.040   5
  10   1 -10 1297.43 170.361   5
   9   1 -10 3109.83 225.977   7
   9   1 -10 3001.41 236.121   5
   8   1 -10 4053.22 259.233   7
   8   1 -10 4064.89 267.092   5
   7   1 -10 2274.29 229.956   7
   7   1 -10 2378.24 211.045   5
   6   1 -10 2550.46 228.890   7
   6   1 -10 2828.31 214.876   5
   5   1 -10 7154.36 337.521   7
   5   1 -10 7313.70 314.824   5
   4   1 -10 36916.4 698.593   7
   4   1 -10 36747.1 647.865   5
   3   1 -10 1290.48 179.569   7
   3   1 -10 1529.31 170.480   5
   2   1 -10 5695.21 287.260   7
   2   1 -10 5860.01 277.616   5
   1   1 -10 14460.3 431.495   7
   1   1 -10 14859.3 412.866   5
   0   1 -10 56653.6 826.069   7
   0   1 -10 57549.2 815.531   5
  -1   1 -10 236.197 57.4979   5
  -1   1 -10 92.4353 98.2344   7
  -2   1 -10 11943.0 392.324   5
  -3   1 -10 1269.26 173.717   5
  -3   1 -10 1718.21 185.046   8
  -4   1 -10 90.5216 106.447   8
  -5   1 -10 4819.02 280.724   8
  -6   1 -10 1251.97 178.479   8
  -7   1 -10 2860.77 236.735   8
  -8   1 -10 185.449 116.104   8
  -9   1 -10 707.578 132.148   8
 -10   1 -10 218.061 96.5297   8
 -11   1 -10 204.333 77.3789   8
  12   2 -10 181.568 64.5045   5
  11   2 -10 1746.57 137.710   5
  10   2 -10 137.047 99.6620   7
  10   2 -10 134.703 91.4430   5
   9   2 -10 648.691 150.179   7
   9   2 -10 1059.46 136.960   5
   8   2 -10 1353.42 188.984   7
   8   2 -10 1606.71 166.494   5
   7   2 -10 5192.92 304.489   7
   7   2 -10 4945.44 267.194   5
   6   2 -10 18920.7 541.263   7
   6   2 -10 18553.1 476.022   5
   5   2 -10-288.207 113.298   5
   5   2 -10-134.305 154.528   7
   4   2 -10 996.423 135.192   5
   4   2 -10 946.850 169.359   7
   3   2 -10 15947.8 485.337   7
   2   2 -10 6474.69 318.029   7
   1   2 -10 2697.27 223.466   7
   0   2 -10 13378.6 421.203   7
  -1   2 -10 11177.7 387.159   7
  -2   2 -10 27383.1 585.630   8
  -3   2 -10 8452.70 353.986   8
  -4   2 -10 6989.82 328.952   8
  -5   2 -10 3017.39 229.237   8
  -6   2 -10 858.568 147.183   8
  -7   2 -10 3587.43 236.835   8
  -8   2 -10 478.652 121.345   8
  -9   2 -10 213.022 90.8279   8
 -10   2 -10-7.27411 60.8068   8
  10   3 -10 1458.24 132.565   7
   9   3 -10 2482.99 187.945   7
   8   3 -10 107.488 131.768   7
   7   3 -10 1748.17 206.280   7
   6   3 -10 902.424 174.091   7
   5   3 -10 9908.16 399.155   7
   4   3 -10 2036.93 213.410   7
   3   3 -10 2587.70 233.636   7
   2   3 -10 2180.57 211.329   7
   1   3 -10 13509.2 426.577   7
   0   3 -10 1028.59 150.989   8
  -1   3 -10 2004.49 190.853   8
  -2   3 -10 1516.97 174.471   8
  -3   3 -10 8064.75 328.295   8
  -4   3 -10 21.3851 81.1752   8
  -5   3 -10 1343.09 156.925   8
  -6   3 -10 35.1720 91.6609   8
  -7   3 -10 1669.14 147.389   8
  -8   3 -10 274.891 66.4924   8
   8   4 -10 450.904 89.7158   7
   7   4 -10 3220.81 183.764   7
   6   4 -10-3.28280 104.590   7
   5   4 -10 2528.95 190.473   7
   4   4 -10 395.289 119.747   7
   3   4 -10 4003.61 228.707   7
   2   4 -10 120.029 95.1514   7
  -2   4  11 657.857 135.186   4
  -1   4  11 17.1755 100.535   4
   0   4  11 1174.23 147.356   4
   1   4  11 735.996 131.010   4
   2   4  11 317.894 96.4350   4
   3   4  11-42.7882 80.6084   3
   4   4  11 3191.38 181.528   3
   2   3  11 101.853 106.117   4
   3   3  11 1900.09 192.036   4
   7  -2 -11 5572.57 286.366   5
   6  -2 -11 371.421 126.437   5
   5  -2 -11 4057.76 261.656   5
   4  -2 -11 1198.22 161.589   5
   3  -2 -11 4188.33 288.297   5
   2  -2 -11 1363.44 181.768   5
   1  -2 -11 1922.33 219.519   5
   0  -2 -11 15608.5 512.667   5
  -1  -2 -11 259.075 145.685   5
  11  -1 -11 58.1878 78.3282   5
  10  -1 -11 97.3153 97.7246   5
   9  -1 -11 1046.97 162.165   5
   8  -1 -11 3483.06 249.215   5
   7  -1 -11 1221.80 176.030   5
   6  -1 -11 9790.31 399.872   5
   5  -1 -11 13703.2 458.877   5
   4  -1 -11 6586.72 644.854  10
  -4   1  11 7525.35 577.126   9
   4  -1 -11 7328.86 343.641   5
   3  -1 -11 572.249 140.403   5
   3  -1 -11 253.104 284.456  10
   2  -1 -11 15165.1 899.785  10
   2  -1 -11 14833.2 473.130   5
   1  -1 -11 8702.11 668.720  10
   1  -1 -11 7991.35 367.747   5
   0  -1 -11 797.405 167.159   5
   0  -1 -11 1236.48 250.368  10
  -1  -1 -11 1852.05 320.294  10
  -1  -1 -11 2193.97 224.055   5
  -2  -1 -11 15175.6 515.701   5
  -3  -1 -11 6125.98 357.022   5
  -3  -1 -11 5202.52 530.010   2
  12   0 -11-81.8713 74.6441   5
  11   0 -11 10.5000 101.186   5
  10   0 -11 12124.5 387.445   5
   9   0 -11-8.42917 129.805   5
   8   0 -11 8201.84 364.229   5
   7   0 -11 145.276 115.829   7
   7   0 -11 167.313 132.482   5
   6   0 -11 5825.29 317.887   7
   6   0 -11 5747.17 312.603   5
   5   0 -11 42.1091 134.652   7
   5   0 -11-5.03288 112.403   5
   4   0 -11 19252.8 546.579   7
   4   0 -11 19342.7 521.134   5
   3   0 -11 12.1240 123.075   5
   3   0 -11-93.6216 153.562   7
   2   0 -11 19528.3 540.956   7
   2   0 -11 20174.8 523.287   5
   1   0 -11 13.2182 85.3810   5
   1   0 -11 47.4909 127.489   7
   0   0 -11 58515.3 891.169   5
  -1   0 -11 186.724 141.143   5
  -2   0 -11 1308.91 184.063   5
  -3   0 -11-136.274 130.140   5
  -3   0 -11 104.384 96.1033   8
  -4   0 -11 9963.82 368.997   8
  -5   0 -11 7.78818 99.0212   8
  -6   0 -11 2111.45 194.685   8
  -7   0 -11-2.63671 88.3860   8
  -8   0 -11 1908.41 174.864   8
  -9   0 -11 10.2764 66.3996   8
 -10   0 -11-38.5395 59.6485   8
  12   1 -11 873.647 101.474   5
  11   1 -11-37.7332 93.3778   5
  10   1 -11 74.6260 103.351   5
   9   1 -11 1076.82 161.453   7
   9   1 -11 1115.20 162.841   5
   8   1 -11 3237.59 244.971   7
   8   1 -11 3676.93 249.616   5
   7   1 -11 888.714 175.426   7
   7   1 -11 1243.51 174.959   5
   6   1 -11 10389.7 413.121   7
   6   1 -11 10443.9 388.621   5
   5   1 -11 13239.2 458.897   7
   5   1 -11 13231.6 430.497   5
   4   1 -11 6993.18 347.312   7
   4   1 -11 7032.12 321.652   5
   3   1 -11 607.192 126.126   5
   3   1 -11 521.026 148.914   7
   2   1 -11 15235.9 475.954   7
   2   1 -11 14883.4 451.462   5
   1   1 -11 8258.91 364.390   7
   1   1 -11 8630.53 351.715   5
   0   1 -11 765.862 129.304   5
   0   1 -11 646.861 155.624   7
  -1   1 -11 1792.90 199.576   7
  -1   1 -11 1833.16 206.347   5
  -2   1 -11 14927.9 463.061   5
  -3   1 -11 5470.70 294.074   5
  -3   1 -11 6241.39 312.094   8
  -4   1 -11 2320.41 213.383   8
  -5   1 -11 303.935 130.641   8
  -6   1 -11 2249.10 214.298   8
  -7   1 -11 114.090 115.479   8
  -8   1 -11 8.42618 102.542   8
  -9   1 -11 52.0001 83.9230   8
 -10   1 -11 33.5704 64.4981   8
  11   2 -11 682.496 93.9838   5
  10   2 -11 4413.78 212.426   7
  10   2 -11 4620.75 213.067   5
   9   2 -11 865.318 135.688   5
   9   2 -11 947.412 147.399   7
   8   2 -11 297.417 110.334   5
   8   2 -11 157.114 129.027   7
   7   2 -11 5836.68 316.845   7
   7   2 -11 6141.33 285.041   5
   6   2 -11 104.354 107.824   5
   6   2 -11 18.1592 138.553   7
   5   2 -11 4518.96 294.758   7
   5   2 -11 4192.85 249.169   5
   4   2 -11 1240.46 183.747   7
   4   2 -11 1163.74 151.060   5
   3   2 -11 4355.41 281.789   7
   2   2 -11 1478.05 190.144   7
   1   2 -11 2279.60 216.884   7
   0   2 -11 16551.3 485.795   7
  -1   2 -11 557.790 118.324   7
  -2   2 -11 9.39496 100.116   8
  -3   2 -11 680.315 136.074   8
  -4   2 -11 338.715 127.609   8
  -5   2 -11-1.73853 109.051   8
  -6   2 -11 175.050 106.438   8
  -7   2 -11 725.028 134.269   8
  -8   2 -11 2868.77 192.438   8
  -9   2 -11 195.691 83.7951   8
 -10   2 -11-44.3037 54.7482   8
   9   3 -11 1173.59 128.537   7
   8   3 -11 1301.36 154.758   7
   7   3 -11 1519.41 179.053   7
   6   3 -11 101.079 134.471   7
   5   3 -11 5110.75 280.593   7
   4   3 -11 629.784 142.490   7
   3   3 -11 35.3920 122.172   7
   2   3 -11 14.6685 119.912   7
   1   3 -11 5696.32 285.609   7
   0   3 -11 203.198 97.7989   8
  -1   3 -11 29.9868 79.0983   8
  -2   3 -11-71.1655 100.717   8
  -3   3 -11 1890.65 179.610   8
  -4   3 -11 396.115 111.324   8
  -5   3 -11 300.064 95.9312   8
  -6   3 -11 4.41401 82.3771   8
  -7   3 -11 72.4785 62.1675   8
  -8   3 -11-72.3878 55.3757   8
   7   4 -11 2131.86 136.238   7
   6   4 -11 103.369 85.7943   7
   5   4 -11 955.757 127.838   7
   4   4 -11 2322.94 166.829   7
   3   4 -11 2575.49 174.160   7
  -5   4  12 107.785 68.2206   4
  -4   4  12 355.709 92.4763   4
  -3   4  12 4897.38 237.123   4
  -2   4  12 79.9660 82.8432   4
  -1   4  12 86.9658 72.4364   4
   0   4  12 19.1632 86.0582   4
   1   4  12 1208.38 127.871   4
   2   4  12 534.390 103.683   3
   2   4  12 663.059 93.6712   4
   3   4  12 1355.11 122.484   3
   1   3  12 444.141 132.588   4
   2   3  12 230.154 84.7315   4
   7  -2 -12 10866.5 369.366   5
   6  -2 -12 1563.65 176.569   5
   5  -2 -12 68.6232 127.915   5
   4  -2 -12 3500.58 266.011   5
   3  -2 -12 12633.5 456.590   5
   2  -2 -12 5013.56 315.124   5
   1  -2 -12 181.502 137.257   5
   0  -2 -12-45.1088 140.316   5
  -1  -2 -12 8456.76 410.329   5
  11  -1 -12 298.006 81.8626   5
  10  -1 -12 109.357 85.1969   5
   9  -1 -12 79.9539 114.710   5
   8  -1 -12 4708.21 275.560   5
   7  -1 -12 697.263 163.988   5
   6  -1 -12 1271.84 181.871   5
   5  -1 -12 429.329 146.009   5
   4  -1 -12 10589.7 420.062   5
   3  -1 -12 3470.39 255.641   5
   2  -1 -12 5101.92 312.988   5
   1  -1 -12 596.703 157.077   5
   0  -1 -12 137.674 140.186   5
  -1  -1 -12 8082.78 398.416   5
  -2  -1 -12 26492.3 680.078   5
  12   0 -12 185.708 61.0984   5
  11   0 -12-22.1481 86.8748   5
  10   0 -12 370.365 120.582   5
   9   0 -12 2.68826 105.269   5
   8   0 -12 9.55399 120.743   5
   7   0 -12-114.966 149.151   7
   7   0 -12-98.6708 136.649   5
   6   0 -12 9243.46 394.833   7
   6   0 -12 9306.34 385.001   5
   5   0 -12 69.3248 122.249   5
   5   0 -12 18.0590 138.902   7
   4   0 -12 7525.86 368.203   7
   4   0 -12 7667.78 360.638   5
   3   0 -12-82.3133 122.074   5
   3   0 -12 72.3043 142.779   7
   2   0 -12 4377.11 293.610   5
   1   0 -12 151.025 129.115   5
   0   0 -12 8055.62 376.874   5
  -1   0 -12-92.5931 158.447   5
  -2   0 -12 6204.38 362.247   5
  -2   0 -12 6293.13 307.934   8
  -3   0 -12 83.3302 136.754   5
  -3   0 -12 35.9958 103.955   8
  -4   0 -12 8677.16 352.096   8
  -5   0 -12 9.62482 97.5383   8
  -6   0 -12 941.811 149.508   8
  -7   0 -12-57.8386 85.4823   8
  -8   0 -12 356.675 92.9375   8
  -9   0 -12 8.59384 59.6515   8
  11   1 -12 476.343 98.5920   5
  10   1 -12 99.7187 102.321   5
   9   1 -12 318.242 121.232   7
   9   1 -12 300.122 121.661   5
   8   1 -12 5465.33 290.723   7
   8   1 -12 5523.91 285.487   5
   7   1 -12 838.401 156.628   5
   7   1 -12 826.705 168.272   7
   6   1 -12 1208.06 195.355   7
   6   1 -12 1092.31 172.842   5
   5   1 -12 366.251 132.980   5
   5   1 -12 440.444 154.010   7
   4   1 -12 10508.4 430.026   7
   4   1 -12 10278.1 399.997   5
   3   1 -12 3121.18 260.475   7
   3   1 -12 3080.73 233.045   5
   2   1 -12 5349.04 313.216   7
   2   1 -12 5144.72 292.368   5
   1   1 -12 370.551 136.613   5
   1   1 -12 351.808 145.811   7
   0   1 -12 399.569 136.080   5
   0   1 -12 374.937 148.460   7
  -1   1 -12 7642.45 354.741   5
  -2   1 -12 26441.1 616.658   5
  -2   1 -12 27094.8 597.872   8
  -3   1 -12 208.256 130.727   8
  -4   1 -12 2629.16 230.319   8
  -5   1 -12 1749.16 196.097   8
  -6   1 -12 5044.69 275.956   8
  -7   1 -12 137.266 109.560   8
  -8   1 -12-15.4215 81.4030   8
  -9   1 -12 1015.06 114.864   8
 -10   1 -12 241.505 56.8393   8
  10   2 -12 385.883 81.2209   5
  10   2 -12 324.291 84.7674   7
   9   2 -12 150.493 86.2788   5
   9   2 -12 53.0813 93.3915   7
   8   2 -12 578.076 122.426   5
   8   2 -12 487.413 142.267   7
   7   2 -12 12740.1 425.197   7
   7   2 -12 11538.5 371.614   5
   6   2 -12 2345.71 232.034   7
   6   2 -12 1533.00 171.141   5
   5   2 -12-77.5422 113.475   5
   5   2 -12 130.246 136.928   7
   4   2 -12 4027.16 281.182   7
   4   2 -12 3314.30 226.196   5
   3   2 -12 14185.0 474.492   7
   2   2 -12 5674.37 311.637   7
   1   2 -12 240.409 143.519   7
   0   2 -12 101.133 109.145   7
  -1   2 -12 9461.81 366.585   8
  -2   2 -12 2008.52 199.549   8
  -3   2 -12 2573.97 216.285   8
  -4   2 -12 2906.21 224.127   8
  -5   2 -12 737.691 143.970   8
  -6   2 -12 347.935 114.009   8
  -7   2 -12 1889.54 168.253   8
  -8   2 -12-7.80925 70.0162   8
  -9   2 -12 33.9334 56.1668   8
   9   3 -12 2081.80 135.129   7
   8   3 -12-86.6737 103.535   7
   7   3 -12 30.7619 107.702   7
   6   3 -12 360.989 126.375   7
   5   3 -12 9696.48 360.792   7
   4   3 -12 3292.89 236.265   7
   3   3 -12 186.376 120.670   7
   2   3 -12 78.6184 111.546   7
   1   3 -12 9878.12 351.067   7
   1   3 -12 9660.91 335.214   8
   0   3 -12 1548.10 162.428   8
  -1   3 -12 618.815 122.837   8
  -2   3 -12 140.439 100.446   8
  -3   3 -12 1495.00 154.243   8
  -4   3 -12 362.927 102.855   8
  -5   3 -12 646.758 110.941   8
  -6   3 -12 29.1032 63.7409   8
  -7   3 -12-24.9754 39.3771   8
   5   4 -12 214.627 68.4946   7
   4   4 -12 541.536 80.4393   7
   3   4 -12 4758.58 187.010   7
  -4   4  13 105.307 48.9313   4
  -3   4  13 2462.95 147.671   4
  -2   4  13 846.235 102.582   4
  -1   4  13 467.581 83.3861   4
   0   4  13 200.501 61.7377   4
   1   4  13 231.510 75.2153   3
   0   3  13 369.035 112.459   4
   1   3  13 839.751 115.518   4
   7  -2 -13 1021.44 144.767   5
   6  -2 -13 798.335 147.137   5
   5  -2 -13 3240.46 236.078   5
   4  -2 -13 1548.32 194.437   5
   3  -2 -13 5850.61 325.357   5
   2  -2 -13 378.018 128.438   5
   1  -2 -13 5696.52 328.982   5
   0  -2 -13 2956.86 266.041   5
  10  -1 -13 1051.21 118.253   5
   9  -1 -13 933.186 133.565   5
   8  -1 -13 8295.67 334.847   5
   7  -1 -13 661.755 154.997   5
   6  -1 -13 8190.73 365.042   5
   5  -1 -13 565.314 153.493   5
   4  -1 -13 35.7360 121.576   5
   3  -1 -13 208.457 128.015   5
   2  -1 -13 13911.5 480.553   5
   1  -1 -13 404.168 156.016   5
   0  -1 -13 488.785 170.714   5
  -1  -1 -13 629.008 171.023   5
  -2  -1 -13 17723.7 560.805   5
  11   0 -13-63.2273 74.1675   5
  10   0 -13 6299.72 253.675   5
   9   0 -13 32.8548 105.396   5
   8   0 -13 4286.30 262.269   5
   7   0 -13-40.9964 127.137   5
   6   0 -13 5474.72 305.267   5
   5   0 -13-61.5374 118.571   5
   4   0 -13 20014.5 553.476   5
   3   0 -13-55.7250 131.466   5
   2   0 -13 3502.98 270.988   5
   1   0 -13-43.3997 130.161   5
   0   0 -13 22272.9 601.757   5
  -1   0 -13 21.3740 146.624   5
  -2   0 -13 866.436 175.023   5
  -2   0 -13 920.952 150.972   8
  -3   0 -13 8.76392 96.7044   8
  -4   0 -13 4235.68 254.104   8
  -5   0 -13-23.2760 101.156   8
  -6   0 -13 132.526 91.2997   8
  -7   0 -13-65.3249 80.2808   8
  -8   0 -13 963.749 100.570   8
  11   1 -13 1.07224 55.0505   5
  10   1 -13 1562.96 136.253   5
   9   1 -13 1163.78 147.029   5
   8   1 -13 8551.21 325.585   7
   8   1 -13 9729.39 342.879   5
   7   1 -13 887.380 158.648   5
   7   1 -13 792.972 162.417   7
   6   1 -13 9202.72 378.698   7
   6   1 -13 9111.10 362.356   5
   5   1 -13 914.479 153.043   5
   5   1 -13 769.046 174.449   7
   4   1 -13-122.046 140.229   5
   4   1 -13-132.719 139.447   7
   3   1 -13-85.0031 109.034   5
   3   1 -13-44.6190 141.103   7
   2   1 -13 13933.4 474.396   7
   2   1 -13 12908.9 444.753   5
   1   1 -13 368.655 132.192   5
   1   1 -13 591.220 168.620   7
   0   1 -13 365.138 125.778   5
  -1   1 -13 578.546 157.367   5
  -2   1 -13 15561.6 489.491   5
  -2   1 -13 17673.8 482.258   8
  -3   1 -13 1422.11 185.390   8
  -4   1 -13 2647.50 219.745   8
  -5   1 -13-49.0498 112.174   8
  -6   1 -13 1193.83 152.943   8
  -7   1 -13 436.354 103.121   8
  -8   1 -13 446.478 85.5022   8
  -9   1 -13 52.9765 49.4169   8
   9   2 -13 23.5038 50.7504   5
   9   2 -13-18.9111 83.0822   7
   8   2 -13 318.398 84.9682   5
   8   2 -13 382.583 118.187   7
   7   2 -13 1448.07 169.444   7
   7   2 -13 1333.44 130.645   5
   6   2 -13 650.050 124.319   5
   6   2 -13 829.496 167.033   7
   5   2 -13 3888.76 267.425   7
   5   2 -13 3112.66 214.004   5
   4   2 -13 2584.77 233.762   7
   3   2 -13 7364.41 348.824   7
   2   2 -13 343.402 141.139   7
   1   2 -13 6377.44 318.329   7
  -1   2 -13 3001.56 236.492   8
  -2   2 -13 2338.29 204.123   8
  -3   2 -13 822.397 145.094   8
  -4   2 -13 1939.63 183.222   8
  -5   2 -13 12.7176 86.6169   8
  -6   2 -13 18.0928 79.6879   8
  -7   2 -13 71.0494 71.0756   8
  -8   2 -13 25.9243 45.5134   8
   8   3 -13 1293.69 107.752   7
   7   3 -13 70.8041 86.0315   7
   6   3 -13 396.666 110.368   7
   5   3 -13 5747.37 267.118   7
   4   3 -13 554.441 123.482   7
   3   3 -13 162.534 85.0331   8
   3   3 -13 201.063 106.206   7
   2   3 -13-35.9193 86.4556   8
   2   3 -13-3.50451 98.9490   7
   1   3 -13 2541.82 174.525   7
   1   3 -13 2278.32 177.025   8
   0   3 -13 457.583 112.176   8
  -1   3 -13 875.355 119.918   8
  -2   3 -13 679.945 111.795   8
  -3   3 -13 155.943 72.4658   8
  -4   3 -13 144.802 73.7082   8
  -5   3 -13 499.652 82.7731   8
  -1   3  14 2105.19 162.677   4
   0   3  14 305.815 61.2148   4
   6  -2 -14 2082.18 164.838   5
   5  -2 -14 3426.30 230.048   5
   4  -2 -14-105.236 131.973   5
   3  -2 -14 1131.57 178.164   5
   2  -2 -14 744.019 149.440   5
   1  -2 -14 3593.23 265.282   5
   9  -1 -14 242.242 83.6294   5
   8  -1 -14 185.046 91.1965   5
   7  -1 -14 1194.48 161.534   5
   6  -1 -14 532.937 142.003   5
   5  -1 -14 2326.72 226.358   5
   4  -1 -14 1940.26 216.550   5
   3  -1 -14 1433.14 190.783   5
   2  -1 -14 5237.28 314.694   5
   1  -1 -14 1751.40 221.766   5
   0  -1 -14 240.482 137.401   5
  -1  -1 -14 438.706 154.378   5
  10   0 -14 1132.18 113.728   5
   9   0 -14-90.7609 91.0517   5
   8   0 -14 3046.23 214.241   5
   7   0 -14-68.8281 113.258   5
   6   0 -14 620.232 147.718   5
   5   0 -14-19.5135 100.918   5
   4   0 -14 4884.77 295.619   5
   3   0 -14-92.6940 131.128   5
   2   0 -14 62.7653 120.669   5
   1   0 -14-130.878 148.422   5
   0   0 -14 6006.82 342.085   5
  -1   0 -14-169.963 131.656   5
  -1   0 -14 41.4472 95.2648   8
  -2   0 -14 3036.34 266.010   5
  -2   0 -14 3168.25 220.877   8
  -3   0 -14 29.7227 99.8745   8
  -4   0 -14 16945.1 412.006   8
  -5   0 -14-49.7623 87.8883   8
  -6   0 -14-23.7773 75.3763   8
  -7   0 -14-89.6396 59.3426   8
  10   1 -14 860.528 92.6537   5
   9   1 -14 184.979 83.9374   5
   8   1 -14 19.3339 91.0466   5
   7   1 -14 1315.15 163.344   5
   6   1 -14 566.441 138.637   5
   6   1 -14 520.423 146.366   7
   5   1 -14 2604.26 236.970   7
   5   1 -14 2894.12 223.945   5
   4   1 -14 2240.19 216.093   7
   4   1 -14 1844.32 183.638   5
   3   1 -14 1077.07 176.730   5
   2   1 -14 4916.66 283.860   5
   1   1 -14 2306.02 209.318   5
   0   1 -14 22.3651 131.208   5
  -1   1 -14 469.657 129.542   5
  -1   1 -14 408.331 124.162   8
  -2   1 -14 40.1501 105.398   8
  -3   1 -14 541.408 128.665   8
  -4   1 -14-17.1543 99.6100   8
  -5   1 -14 476.744 120.646   8
  -6   1 -14 412.246 100.694   8
  -7   1 -14 267.475 69.7258   8
   8   2 -14 216.875 80.1000   7
   7   2 -14 695.229 66.8400   5
   7   2 -14 442.704 121.118   7
   6   2 -14 2669.14 197.453   7
   6   2 -14 2342.76 161.124   5
   5   2 -14 4373.41 260.676   7
   4   2 -14 44.7400 120.419   7
   3   2 -14 1660.15 193.277   7
   2   2 -14 771.271 153.228   7
   0   2 -14 250.942 114.023   8
  -1   2 -14 943.459 141.684   8
  -2   2 -14 63.8084 97.6586   8
  -3   2 -14 1795.19 172.028   8
  -4   2 -14 861.541 128.998   8
  -5   2 -14 47.4214 73.5442   8
  -6   2 -14-18.1698 61.8435   8
   6   3 -14 288.368 82.9093   7
   5   3 -14 2621.91 165.018   7
   4   3 -14 439.892 71.3594   8
   4   3 -14 605.220 110.279   7
   3   3 -14 2918.47 167.040   8
   2   3 -14 773.112 101.320   8
   1   3 -14 2217.01 157.502   8
   0   3 -14 108.041 70.1018   8
  -1   3 -14 1464.95 125.843   8
  -2   3 -14 232.751 75.4624   8
  -3   3 -14 237.155 73.8004   8
  -3   3  15 2896.73 151.335   4
   5  -2 -15 109.610 73.7299   5
   4  -2 -15 4815.20 237.717   5
   3  -2 -15 396.632 122.665   5
   2  -2 -15-2.13708 105.779   5
   8  -1 -15 714.207 106.351   5
   7  -1 -15 165.761 95.6783   5
   6  -1 -15 7301.24 301.596   5
   5  -1 -15-78.5530 116.207   5
   4  -1 -15 155.116 121.162   5
   3  -1 -15 792.244 158.829   5
   2  -1 -15 8142.48 352.119   5
   1  -1 -15 26.0284 119.496   5
   0  -1 -15-125.050 142.594   5
   9   0 -15 36.8184 65.5118   5
   8   0 -15 3971.46 204.959   5
   7   0 -15-141.383 107.747   5
   6   0 -15 1510.37 168.007   5
   5   0 -15-24.6470 110.974   5
   4   0 -15 6709.90 317.903   5
   3   0 -15-46.9433 124.910   5
   2   0 -15 3768.12 259.819   5
   1   0 -15 119.849 122.094   5
   0   0 -15 4021.64 275.947   5
   0   0 -15 3652.66 221.343   8
  -1   0 -15-42.1612 83.8020   8
  -2   0 -15 8712.55 300.947   8
  -3   0 -15-32.0003 75.2729   8
  -4   0 -15 1492.04 136.948   8
  -5   0 -15-63.9425 65.5733   8
   8   1 -15 1035.81 110.674   5
   7   1 -15 162.930 85.1007   5
   6   1 -15 8215.69 294.910   5
   5   1 -15 145.536 92.4069   5
   4   1 -15 97.2881 112.683   5
   3   1 -15 994.474 150.437   5
   2   1 -15 7773.90 326.685   5
   1   1 -15 5.89590 107.731   5
   0   1 -15-93.5175 112.835   5
   0   1 -15 14.2572 97.0490   8
  -1   1 -15 2154.14 186.639   8
  -2   1 -15 3758.11 217.986   8
  -3   1 -15 62.2326 88.0669   8
  -4   1 -15 2382.26 171.191   8
  -5   1 -15-3.74988 72.2929   8
  -6   1 -15 296.528 69.5658   8
   2   2 -15 156.336 89.3916   8
   1   2 -15 1249.10 139.498   8
   0   2 -15 2905.19 188.576   8
  -1   2 -15 55.1098 78.6628   8
  -2   2 -15 96.5569 76.6010   8
  -3   2 -15 764.434 111.998   8
  -4   2 -15 913.644 100.145   8
  -5   2 -15 30.8396 53.2064   8
   6  -1 -16 1842.22 144.969   5
   5  -1 -16 61.7932 89.9303   5
   4  -1 -16 114.390 92.5296   5
   3  -1 -16 1691.84 171.799   5
   2  -1 -16 1767.48 176.644   5
   1  -1 -16 165.276 115.967   5
   7   0 -16-40.8042 76.4216   5
   6   0 -16 157.126 82.6390   5
   5   0 -16-25.1096 98.5497   5
   4   0 -16 1012.54 140.310   5
   3   0 -16-11.0876 114.353   5
   2   0 -16 18.5763 95.5493   5
   2   0 -16 28.9161 68.7738   8
   1   0 -16-85.0052 109.447   5
   1   0 -16 78.4873 69.0076   8
   0   0 -16 1241.71 155.612   5
   0   0 -16 1019.88 126.775   8
  -1   0 -16-13.9048 60.1690   8
  -2   0 -16 109.266 67.1950   8
  -3   0 -16-57.1668 70.1003   8
   6   1 -16 2002.05 143.714   5
   5   1 -16 180.223 71.3897   5
   4   1 -16 138.225 83.6098   5
   3   1 -16 1828.34 153.852   5
   2   1 -16 1557.15 147.567   5
   2   1 -16 1656.79 152.986   8
   1   1 -16 165.613 101.836   5
   1   1 -16 105.787 82.0246   8
   0   1 -16 920.581 126.369   8
  -1   1 -16 567.065 109.885   8
  -2   1 -16 301.253 83.2340   8
  -3   1 -16 200.897 72.6761   8
  -4   1 -16 603.501 85.8302   8
   5   2 -16 1179.81 112.252   8
   4   2 -16 629.349 77.4138   8
   3   2 -16-71.5333 66.1984   8
   2   2 -16-82.1758 72.6353   8
   1   2 -16 3171.55 170.718   8
   0   2 -16 984.605 105.536   8
  -1   2 -16-31.9135 61.8651   8
  -2   2 -16 119.042 62.6585   8
  -3   2 -16 567.122 78.0544   8
   4  -1 -17 33.8502 76.1287   5
   5   0 -17-27.9746 61.7944   5
   4   0 -17 7649.93 242.697   5
   4   0 -17 6310.77 185.932   8
   3   0 -17 12.8896 78.9572   5
   3   0 -17-38.3654 57.1917   8
   2   0 -17 428.712 107.614   5
   2   0 -17 393.247 78.6108   8
   0   0 -17 2532.84 130.969   8
   4   1 -17 97.8665 51.7726   8
   3   1 -17 407.020 77.1988   8
   2   1 -17 1669.10 131.368   8
   1   1 -17 76.3522 57.8054   8
   0   1 -17 705.424 92.3485   8
  -1   1 -17 465.673 73.3914   8
   0   0   0    0.00    0.00   0
;
_shelx_hkl_checksum              79878
_shelx_res_file
;
TITL bmk1504a in P2(1)/c
    shelx.res
    created by SHELXL-2018/1 at 13:39:08 on 09-Jul-2018
CELL  1.54184  12.3957   4.9381  14.2102   90.000   94.871   90.000
ZERR     4.00   0.0008   0.0002   0.0012    0.000    0.006    0.000
LATT   1
SYMM  1/2 - X, 1/2 + Y, - Z
SFAC  C    H    O    BR   CL
UNIT  36 28 8 1.7 2.3
MERG   2
simu .05  CL1 BR1
isor .05 CL1 BR1
dfix 1.75 .001 c3 cl1
dfix 1.88 .05 c3 br1
FMAP   2
PLAN   10
SIZE     0.048   0.098   0.289
ACTA
BOND   $H
L.S.   4
TEMP    23.00
WGHT    0.058000
FVAR       6.26093   0.42474
C1    1    0.672325   -0.646455    0.236491    11.00000    0.05261    0.04118 =
         0.05394   -0.00014    0.00409   -0.00021
C2    1    0.623963   -0.531454    0.311731    11.00000    0.05434    0.04886 =
         0.05572    0.00095    0.00714    0.00212
AFIX  43
H2    2    0.555859   -0.589481    0.325993    11.00000   -1.20000
AFIX   0
C3    1    0.676996   -0.331508    0.365133    11.00000    0.06815    0.04933 =
         0.04978   -0.00247    0.00635    0.00876
C4    1    0.778267   -0.240263    0.346299    11.00000    0.06543    0.05277 =
         0.06340   -0.00895   -0.00318   -0.00142
AFIX  43
H4    2    0.813206   -0.105848    0.383226    11.00000   -1.20000
AFIX   0
C5    1    0.826719   -0.353443    0.271125    11.00000    0.05535    0.06175 =
         0.07163   -0.00644    0.00565   -0.00666
AFIX  43
H5    2    0.894935   -0.294524    0.257509    11.00000   -1.20000
AFIX   0
C6    1    0.774564   -0.553174    0.216178    11.00000    0.05340    0.05229 =
         0.06075   -0.00889    0.00961   -0.00040
AFIX  43
H6    2    0.807542   -0.625904    0.165490    11.00000   -1.20000
AFIX   0
C7    1    0.613819   -0.859424    0.181650    11.00000    0.04933    0.04535 =
         0.05885   -0.00222    0.00710   -0.00206
AFIX  43
H7    2    0.546210   -0.906212    0.200428    11.00000   -1.20000
AFIX   0
C8    1    0.646174   -0.992541    0.108565    11.00000    0.04864    0.04740 =
         0.05868   -0.00248    0.00904   -0.00530
AFIX  43
H8    2    0.712007   -0.946555    0.085987    11.00000   -1.20000
AFIX   0
C9    1    0.581531   -1.210990    0.061752    11.00000    0.04701    0.04352 =
         0.05124   -0.00113    0.00715    0.00151
O1    3    0.621332   -1.338150   -0.004540    11.00000    0.05730    0.05627 =
         0.06560   -0.01380    0.01928   -0.00725
O2    3    0.488930   -1.265873    0.088997    11.00000    0.05300    0.06139 =
         0.06570   -0.01260    0.01674   -0.00956
CL1   5    0.616396   -0.169531    0.456720   -21.00000    0.09679    0.06905 =
         0.05841   -0.01673    0.03389   -0.00424
BR1   4    0.605255   -0.184179    0.466120    21.00000    0.08877    0.07204 =
         0.05428   -0.00976    0.01821    0.01087
H1O   2    0.438325   -1.449702    0.044647    11.00000    0.14518
HKLF    4
REM  bmk1504a in P2(1)/c
REM R1 =  0.0367 for    1306 Fo > 4sig(Fo)  and  0.0479 for all    1670 data
REM    123 parameters refined using     20 restraints
END
WGHT      0.0580      0.0000
REM Highest difference peak  0.258,  deepest hole -0.342,  1-sigma level  0.095
Q1    1   0.9571 -0.1893  0.4227  11.00000  0.05    0.26
Q2    1   0.8845 -0.2453  0.4969  11.00000  0.05    0.23
Q3    1   0.4643 -0.6727  0.1609  11.00000  0.05    0.22
Q4    1   0.4408 -1.2580 -0.0501  11.00000  0.05    0.22
Q5    1   0.7414 -1.1331  0.1053  11.00000  0.05    0.22
Q6    1   0.4843 -0.1762  0.3942  11.00000  0.05    0.21
Q7    1   0.8179 -0.7428  0.3138  11.00000  0.05    0.21
Q8    1   0.9030 -0.2057  0.3184  11.00000  0.05    0.21
Q9    1   0.5178 -0.8152  0.1176  11.00000  0.05    0.21
Q10   1   0.7546 -1.2877  0.0911  11.00000  0.05    0.21
;
_shelx_res_checksum              52895
loop_
_space_group_symop_operation_xyz
'x, y, z'
'-x+1/2, y+1/2, -z'
'-x, -y, -z'
'x-1/2, -y-1/2, z'
loop_
_atom_site_type_symbol
_atom_site_label
_atom_site_fract_x
_atom_site_fract_y
_atom_site_fract_z
_atom_site_U_iso_or_equiv
_atom_site_adp_type
_atom_site_calc_flag
_atom_site_occupancy
C C1 0.67233(18) -0.6465(4) 0.23649(16) 0.0493(5) Uani d 1
C C2 0.62396(18) -0.5315(5) 0.31173(16) 0.0528(5) Uani d 1
H H2 0.555859 -0.589481 0.325993 0.063 Uiso calc 1
C C3 0.6770(2) -0.3315(5) 0.36513(16) 0.0557(6) Uani d 1
C C4 0.7783(2) -0.2403(5) 0.34630(19) 0.0610(6) Uani d 1
H H4 0.813206 -0.105848 0.383226 0.073 Uiso calc 1
C C5 0.8267(2) -0.3534(5) 0.27113(19) 0.0629(6) Uani d 1
H H5 0.894935 -0.294524 0.257509 0.075 Uiso calc 1
C C6 0.77456(18) -0.5532(5) 0.21618(17) 0.0552(6) Uani d 1
H H6 0.807542 -0.625904 0.165490 0.066 Uiso calc 1
C C7 0.61382(18) -0.8594(4) 0.18165(17) 0.0510(5) Uani d 1
H H7 0.546210 -0.906212 0.200428 0.061 Uiso calc 1
C C8 0.64617(17) -0.9925(5) 0.10857(15) 0.0513(5) Uani d 1
H H8 0.712007 -0.946555 0.085987 0.062 Uiso calc 1
C C9 0.58153(17) -1.2110(4) 0.06175(16) 0.0471(5) Uani d 1
O O1 0.62133(13) -1.3381(3) -0.00454(13) 0.0589(4) Uani d 1
O O2 0.48893(13) -1.2659(4) 0.08900(13) 0.0594(5) Uani d 1
Cl Cl1 0.6164(7) -0.170(2) 0.4567(5) 0.0732(12) Uani d 0.575(4)
Br Br1 0.6053(4) -0.1842(12) 0.4661(2) 0.0710(7) Uani d 0.425(4)
H H1O 0.438(4) -1.450(11) 0.045(3) 0.145(16) Uiso d 1
loop_
_atom_site_aniso_label
_atom_site_aniso_U_11
_atom_site_aniso_U_22
_atom_site_aniso_U_33
_atom_site_aniso_U_12
_atom_site_aniso_U_13
_atom_site_aniso_U_23
C1 0.0526(11) 0.0412(11) 0.0539(11) -0.0002(9) 0.0041(9) -0.0001(9)
C2 0.0543(11) 0.0489(12) 0.0557(11) 0.0021(10) 0.0071(9) 0.0010(10)
C3 0.0681(14) 0.0493(12) 0.0498(11) 0.0088(11) 0.0064(10) -0.0025(10)
C4 0.0654(14) 0.0528(13) 0.0634(14) -0.0014(11) -0.0032(11) -0.0090(11)
C5 0.0553(13) 0.0618(15) 0.0716(15) -0.0067(11) 0.0056(11) -0.0064(12)
C6 0.0534(12) 0.0523(13) 0.0608(13) -0.0004(10) 0.0096(10) -0.0089(10)
C7 0.0493(11) 0.0453(11) 0.0588(12) -0.0021(9) 0.0071(9) -0.0022(10)
C8 0.0486(10) 0.0474(11) 0.0587(12) -0.0053(9) 0.0090(9) -0.0025(10)
C9 0.0470(10) 0.0435(10) 0.0512(11) 0.0015(9) 0.0071(9) -0.0011(9)
O1 0.0573(9) 0.0563(10) 0.0656(9) -0.0072(7) 0.0193(7) -0.0138(8)
O2 0.0530(9) 0.0614(9) 0.0657(10) -0.0096(7) 0.0167(7) -0.0126(8)
Cl1 0.097(2) 0.0690(15) 0.0584(15) -0.0042(11) 0.0339(11) -0.0167(14)
Br1 0.0888(13) 0.0720(11) 0.0543(8) 0.0109(12) 0.0182(9) -0.0098(7)
loop_
_atom_type_symbol
_atom_type_description
_atom_type_scat_dispersion_real
_atom_type_scat_dispersion_imag
_atom_type_scat_source
C C 0.0181 0.0091 'International Tables Vol C Tables 4.2.6.8 and 6.1.1.4'
H H 0.0000 0.0000 'International Tables Vol C Tables 4.2.6.8 and 6.1.1.4'
O O 0.0492 0.0322 'International Tables Vol C Tables 4.2.6.8 and 6.1.1.4'
Br Br -0.6763 1.2805 'International Tables Vol C Tables 4.2.6.8 and 6.1.1.4'
Cl Cl 0.3639 0.7018 'International Tables Vol C Tables 4.2.6.8 and 6.1.1.4'
loop_
_geom_angle_atom_site_label_1
_geom_angle_atom_site_label_2
_geom_angle_atom_site_label_3
_geom_angle
C2 C1 C6 118.7(2)
C2 C1 C7 118.4(2)
C6 C1 C7 122.8(2)
C3 C2 C1 120.0(2)
C3 C2 H2 120.0
C1 C2 H2 120.0
C2 C3 C4 121.7(2)
C2 C3 Cl1 121.5(4)
C4 C3 Cl1 116.7(4)
C2 C3 Br1 117.3(3)
C4 C3 Br1 120.9(3)
Cl1 C3 Br1 4.9(6)
C3 C4 C5 118.6(2)
C3 C4 H4 120.7
C5 C4 H4 120.7
C6 C5 C4 120.6(2)
C6 C5 H5 119.7
C4 C5 H5 119.7
C5 C6 C1 120.4(2)
C5 C6 H6 119.8
C1 C6 H6 119.8
C8 C7 C1 127.4(2)
C8 C7 H7 116.3
C1 C7 H7 116.3
C7 C8 C9 122.11(19)
C7 C8 H8 118.9
C9 C8 H8 118.9
O1 C9 O2 122.7(2)
O1 C9 C8 117.97(18)
O2 C9 C8 119.37(19)
C9 O2 H1O 115.5(19)
loop_
_geom_bond_atom_site_label_1
_geom_bond_atom_site_label_2
_geom_bond_distance
C1 C2 1.391(3)
C1 C6 1.401(3)
C1 C7 1.464(3)
C2 C3 1.378(3)
C2 H2 0.9300
C3 C4 1.381(4)
C3 Cl1 1.7504(10)
C3 Br1 1.896(4)
C4 C5 1.387(4)
C4 H4 0.9300
C5 C6 1.384(3)
C5 H5 0.9300
C6 H6 0.9300
C7 C8 1.320(3)
C7 H7 0.9300
C8 C9 1.469(3)
C8 H8 0.9300
C9 O1 1.266(3)
C9 O2 1.271(3)
O2 H1O 1.24(5)
