#------------------------------------------------------------------------------
#$Date: 2019-10-30 08:06:10 +0200 (Wed, 30 Oct 2019) $
#$Revision: 220536 $
#$URL: file:///home/coder/svn-repositories/cod/cif/2/02/18/2021804.cif $
#------------------------------------------------------------------------------
#
# This file is available in the Crystallography Open Database (COD),
# http://www.crystallography.net/. The original data for this entry
# were provided by IUCr Journals, http://journals.iucr.org/.
#
# The file may be used within the scientific community so long as
# proper attribution is given to the journal article from which the
# data were obtained.
#
data_2021804
loop_
_publ_author_name
'Shishkina, Svitlana V.'
'Konovalova, Irina S.'
'Trostianko, Pavlo V.'
'Geleverya, Anna O.'
'Kovalenko, Sergiy M.'
'Bunyatyan, Natalya D.'
_publ_section_title
;
 Polymorphism of 3-(5-phenyl-1,3,4-oxadiazol-2-yl)- and
 3-[5-(pyridin-4-yl)-1,3,4-oxadiazol-2-yl]-2<i>H</i>-chromen-2-ones
;
_journal_coeditor_code           FN3326
_journal_issue                   11
_journal_name_full               'Acta Crystallographica Section C'
_journal_page_first
;
;
_journal_paper_doi               10.1107/S2053229619014256
_journal_volume                  75
_journal_year                    2019
_chemical_formula_iupac          'C16 H9 N3 O3'
_chemical_formula_moiety         'C16 H9 N3 O3'
_chemical_formula_sum            'C16 H9 N3 O3'
_chemical_formula_weight         291.26
_chemical_name_systematic
;
3-[5-(Pyridin-4-yl)-1,3,4-oxadiazol-2-yl]-2<i>H</i>-chromen-2-one
;
_space_group_crystal_system      monoclinic
_space_group_IT_number           7
_space_group_name_Hall           'P -2yac'
_space_group_name_H-M_alt        'P 1 n 1'
_symmetry_space_group_name_Hall  'P -2yac'
_symmetry_space_group_name_H-M   'P 1 n 1'
_atom_sites_solution_hydrogens   difmap
_audit_creation_method           SHELXL-2016/6
_cell_angle_alpha                90
_cell_angle_beta                 93.466(19)
_cell_angle_gamma                90
_cell_formula_units_Z            2
_cell_length_a                   3.7788(9)
_cell_length_b                   9.9655(17)
_cell_length_c                   16.899(3)
_cell_measurement_reflns_used    939
_cell_measurement_temperature    293(2)
_cell_measurement_theta_max      22.051
_cell_measurement_theta_min      4.122
_cell_volume                     635.2(2)
_computing_cell_refinement
;
CrysAlis PRO (Rigaku OD, 2018)
;
_computing_data_collection
;
CrysAlis PRO (Rigaku OD, 2018)
;
_computing_data_reduction
;
CrysAlis PRO (Rigaku OD, 2018)
;
_computing_publication_material
;
SHELXL2016 (Sheldrick, 2015b)
;
_computing_structure_refinement
;
SHELXL2016 (Sheldrick, 2015b)
;
_computing_structure_solution
;
SHELXT2014 (Sheldrick, 2015a)
;
_diffrn_ambient_temperature      293(2)
_diffrn_detector_area_resol_mean 16.1827
_diffrn_measured_fraction_theta_full 0.997
_diffrn_measured_fraction_theta_max 0.997
_diffrn_measurement_device_type  'Rigaku Xcalibur Sapphire3'
_diffrn_measurement_method       '\w scans'
_diffrn_radiation_type           MoK\a
_diffrn_radiation_wavelength     0.71073
_diffrn_reflns_av_R_equivalents  0.1099
_diffrn_reflns_av_unetI/netI     0.0997
_diffrn_reflns_limit_h_max       4
_diffrn_reflns_limit_h_min       -4
_diffrn_reflns_limit_k_max       11
_diffrn_reflns_limit_k_min       -11
_diffrn_reflns_limit_l_max       20
_diffrn_reflns_limit_l_min       -20
_diffrn_reflns_number            7248
_diffrn_reflns_theta_full        24.974
_diffrn_reflns_theta_max         24.974
_diffrn_reflns_theta_min         3.164
_diffrn_source                   'Enhance (Mo) X-ray Source'
_exptl_absorpt_coefficient_mu    0.109
_exptl_absorpt_correction_T_max  1.00000
_exptl_absorpt_correction_T_min  0.52709
_exptl_absorpt_correction_type   multi-scan
_exptl_absorpt_process_details
;
(CrysAlis PRO; Rigaku OD, 2018)
;
_exptl_crystal_colour            colorless
_exptl_crystal_density_diffrn    1.523
_exptl_crystal_description       stick
_exptl_crystal_F_000             300
_exptl_crystal_size_max          0.300
_exptl_crystal_size_mid          0.050
_exptl_crystal_size_min          0.050
_refine_diff_density_max         0.246
_refine_diff_density_min         -0.236
_refine_ls_abs_structure_details
;
Flack <i>x</i> determined using 423 quotients [(I+)-(I-)]/[(I+)+(I-)]
(Parsons <i>et al.</i>,  2013)
;
_refine_ls_abs_structure_Flack   -0.4(10)
_refine_ls_extinction_method     none
_refine_ls_goodness_of_fit_ref   1.004
_refine_ls_hydrogen_treatment    refall
_refine_ls_matrix_type           full
_refine_ls_number_parameters     235
_refine_ls_number_reflns         2204
_refine_ls_number_restraints     2
_refine_ls_restrained_S_all      1.004
_refine_ls_R_factor_all          0.1015
_refine_ls_R_factor_gt           0.0785
_refine_ls_shift/su_max          0.000
_refine_ls_shift/su_mean         0.000
_refine_ls_structure_factor_coef Fsqd
_refine_ls_weighting_details
'w=1/[\s^2^(Fo^2^)+(0.0971P)^2^] where P=(Fo^2^+2Fc^2^)/3'
_refine_ls_weighting_scheme      calc
_refine_ls_wR_factor_gt          0.1858
_refine_ls_wR_factor_ref         0.2095
_reflns_number_gt                1512
_reflns_number_total             2204
_reflns_threshold_expression     'I > 2\s(I)'
_cod_data_source_file            fn3326sup1.cif
_cod_data_source_block           2A
_cod_database_code               2021804
_shelx_space_group_comment
;
The symmetry employed for this shelxl refinement is uniquely defined
by the following loop, which should always be used as a source of
symmetry information in preference to the above space-group names.
They are only intended as comments.
;
_shelx_estimated_absorpt_t_min   0.968
_shelx_estimated_absorpt_t_max   0.995
_shelx_hkl_file
;
   0   0  -3    0.49    1.15
   0   0   3    0.37    0.36
   0   0  -3    0.83    0.48
   0   0   3    0.51    0.74
   0   0   3   -0.25    0.88
   0   0  -3   -0.44    0.81
   0   0   4  588.84   46.68
   0   0  -4  499.90   45.54
   0   0  -4  458.95   46.70
   0   0   5    0.63    1.43
   0   0  -5    0.69    0.49
   0   0  -5   -2.10    1.92
   0   0  -6  168.89   18.74
   0   0   6  206.41   20.46
   0   0  -6  175.86   20.34
   0   0  -7    1.82    2.46
   0   0   7   -0.76    0.90
   0   0  -7    0.52    1.71
   0   0  -8   43.49    7.97
   0   0  -8   48.31    9.08
   0   0   8   54.31    9.39
   0   0   9    2.86    2.67
   0   0  -9   -3.90    2.05
   0   0  -9    0.38    1.92
   0   0 -10  188.34   24.45
   0   0 -10  162.21   21.35
   0   0  10  216.28   24.03
   0   0 -11    1.84    2.11
   0   0 -11    0.24    0.27
   0   0  11   -0.87    1.07
   0   0 -12   54.43   11.96
   0   0 -12   42.19    8.87
   0   0  12   42.53   10.04
   0   0 -13   -2.83    2.61
   0   0  13    1.08    3.85
   0   0 -13    1.12    4.89
   0   0 -14   37.05   11.16
   0   0  14   28.14    8.48
   0   0 -14   30.62    8.05
   0   0 -15    0.35    3.49
   0   0  15    2.17    2.21
   0   0 -15   -0.25    1.81
   0   0 -16   67.35   14.11
   0   0  16   83.67   16.63
   0   0 -16   79.54   17.64
   0   0  17   -2.80    3.64
   0   0 -17   -0.72    0.61
   0   0 -17   -4.19    3.24
   0   0 -18   26.29   13.23
   0   0 -18    7.81    5.15
   0   0  18   18.32    7.37
   0   0  19   -1.85    4.45
   0   0 -19   -3.55    3.25
   0   0 -19    3.94    6.13
   0   0  20    3.54    4.99
   0   0 -20    3.42    3.92
   0   0 -20    0.12    1.00
   0   0 -21    0.73    1.81
   0   0  21    1.96    4.54
   0   0 -21    1.66    2.36
   0   0  22    6.40    7.47
   0   0 -22    2.59    5.36
   0   0 -22    0.28    1.86
   0   0  23    2.78    4.08
   0   0 -23    0.73    3.76
   0   0 -23    0.01    1.93
   0   0  24    1.30    4.68
   0   0 -24   -3.70    4.04
   0  -1   2 1079.58   94.74
   0  -1  -2 1170.01   95.15
   0   1  -2 1117.59   94.88
   0   1  -3 2422.93  202.13
   0   1  -3 2010.47  201.84
   0  -1   3 2064.12  201.57
   0  -1   3 2726.12  202.73
   0   1   3 3126.63  203.56
   0  -1  -3 2526.11  202.67
   0   1  -3 2650.37  203.86
   0   1   3 2253.79  202.84
   0  -1  -3 2521.66  203.51
   0   1  -4   75.09    9.27
   0  -1  -4   88.09   10.68
   0  -1   4   66.70    8.60
   0  -1   4  105.93   10.55
   0   1   4   97.95   10.51
   0   1  -4   89.43   11.09
   0   1   5   20.78    4.43
   0   1   5   12.92    1.87
   0   1  -5   10.22    2.04
   0   1  -5   16.75    4.95
   0   1  -5   19.02    3.60
   0  -1   5   17.51    3.71
   0  -1  -5   23.53    4.86
   0  -1  -6    5.93    3.39
   0   1  -6    2.25    1.56
   0   1  -6    4.04    2.05
   0   1  -6    2.31    0.97
   0  -1   6    3.50    2.23
   0   1   6    3.69    2.04
   0  -1  -6    4.12    2.04
   0   1  -7   18.17    2.62
   0   1  -7   27.41    5.89
   0   1   7   31.85    5.92
   0   1  -7   11.38    2.45
   0  -1  -7   35.08    7.11
   0   1  -7   27.05    5.23
   0  -1   7   36.91    6.52
   0  -1  -7   21.12    5.36
   0   1  -8  218.78   18.70
   0  -1  -8  268.26   23.22
   0   1   8  294.44   22.20
   0  -1  -8  238.65   19.47
   0  -1   8  253.74   20.69
   0   1  -8  263.97   23.49
   0   1  -8  154.66   12.97
   0  -1  -9  486.32   28.44
   0  -1  -9  485.83   32.39
   0   1   9  543.70   31.82
   0   1  -9  501.13   34.17
   0   1  -9  409.68   26.36
   0  -1   9  548.64   31.74
   0   1  -9  294.86   17.41
   0  -1 -10  192.06   23.11
   0  -1 -10  204.05   25.90
   0   1  10  189.67   24.29
   0   1 -10  201.89   26.40
   0   1 -10  199.56   23.08
   0  -1  10  202.82   24.66
   0   1 -11   48.72    9.55
   0  -1 -11   68.93   13.25
   0   1 -11   73.17   13.97
   0  -1  11   57.12   11.03
   0  -1 -11   58.62   10.57
   0   1  11   61.97   11.49
   0  -1 -12   33.77    8.12
   0   1 -12   29.06    8.84
   0   1 -12   19.74    6.16
   0   1  12   48.91   10.92
   0  -1  12   34.29    8.56
   0  -1 -12   30.68    8.54
   0  -1 -13   68.66   12.65
   0  -1  13   68.80   13.26
   0   1 -13   65.97   14.32
   0   1  13   74.48   14.53
   0   1 -13   58.61   11.67
   0  -1 -13   72.67   14.61
   0  -1 -14  162.43   24.75
   0  -1  14  138.62   22.01
   0   1  14  159.58   23.58
   0  -1 -14  157.80   22.06
   0   1 -14  174.20   25.84
   0   1 -14  133.08   20.37
   0   1  15  103.32   17.90
   0  -1 -15   83.08   15.46
   0   1 -15   76.33   14.57
   0   1 -15   97.58   19.69
   0  -1  15   75.05   15.30
   0  -1 -15   91.69   18.49
   0   1 -16   53.86   12.06
   0  -1 -16   59.00   13.11
   0  -1  16   53.90   12.89
   0   1 -16   73.60   16.83
   0   1  16   52.85   13.20
   0  -1 -16   61.66   15.19
   0  -1 -17    3.82    6.00
   0   1  17    3.49    3.25
   0   1 -17    5.35    4.15
   0  -1  17    7.26    5.40
   0  -1 -17    2.31    2.93
   0   1 -17   10.91    5.55
   0  -1 -18    5.81    4.81
   0  -1  18   15.22    6.50
   0   1  18   17.50    7.98
   0   1 -18    6.65    4.70
   0  -1 -18   11.11    7.02
   0   1 -18    8.27    4.49
   0   1 -19   -4.34    4.18
   0  -1 -19   -2.41    3.12
   0   1  19   -0.86    2.63
   0  -1  19    2.89    3.20
   0   1 -19   -1.95    2.40
   0  -1 -19   -0.51    2.63
   0   1 -20    8.44    6.22
   0  -1  20    4.45    5.06
   0  -1 -20    4.19    4.12
   0   1  20    4.50    4.04
   0  -1 -20   -2.13    2.64
   0   1 -20    1.26    2.44
   0  -1 -21    2.26    4.48
   0   1 -21    2.24    3.24
   0  -1 -21    5.51    6.77
   0   1  21   -0.33    4.81
   0   1 -21    9.22    6.97
   0  -1  21    4.99    5.46
   0  -1  22   -0.13    3.23
   0   1  22    2.52    4.58
   0  -1 -22    0.22    0.18
   0  -1 -22    1.91    3.02
   0   1 -22   -2.28    2.94
   0   1 -22    7.31    8.45
   0   1  23   -4.80    4.81
   0  -1 -23    0.22    2.44
   0   1 -23    1.28    3.74
   0  -1  23    1.13    4.02
   0  -1 -23   -2.68    3.81
   0   1 -23    1.15    2.87
   0  -1 -24   -1.13    2.24
   0   1  24    1.47    3.75
   0  -1 -25    1.01    2.98
   0   2   0   43.27    4.36
   0  -2   0    7.80    2.14
   0   2   0    7.63    2.04
   0  -2   0   15.88    3.16
   0   2   0    9.65    2.73
   0  -2  -1  523.53   43.25
   0  -2  -1  314.20   41.81
   0   2  -1  393.76   42.54
   0  -2   1  599.55   43.50
   0   2   1  451.02   42.96
   0   2   1  624.41   42.94
   0  -2  -1  572.15   43.17
   0   2  -1  636.13   45.13
   0   2   2  528.53   54.96
   0   2  -2  793.01   57.70
   0   2  -2  427.64   54.62
   0  -2   2  725.55   55.82
   0  -2  -2  718.31   55.40
   0  -2  -2  714.67   55.91
   0   2   2  730.93   55.14
   0  -2  -2  521.03   54.55
   0  -2   2  715.68   55.55
   0   2  -3  124.98   16.53
   0   2  -3  209.90   20.41
   0   2  -3  202.03   18.52
   0   2   3  224.26   18.64
   0  -2  -3  200.58   18.87
   0  -2   3  186.04   17.78
   0  -2   3  222.14   19.35
   0  -2   4   68.88    8.78
   0  -2  -4   66.01    8.94
   0   2  -4   63.74    8.21
   0  -2   4   49.72    7.07
   0   2   4   65.54    8.54
   0   2  -4   64.66    9.05
   0   2   5  847.05   67.16
   0   2  -5  623.57   65.44
   0  -2   5  739.46   65.97
   0   2  -5  773.30   68.40
   0  -2  -5  800.17   68.20
   0   2  -6  406.42   37.73
   0   2  -6  299.38   33.76
   0  -2  -6  385.49   37.17
   0   2   6  421.83   36.12
   0  -2   6  345.94   34.61
   0  -2   7  423.11   36.75
   0   2   7  316.15   30.80
   0   2  -7  376.35   34.48
   0  -2  -7  464.10   38.34
   0   2  -7  477.06   39.05
   0   2   7  489.10   37.27
   0   2  -7  273.13   31.14
   0  -2  -8    8.50    3.35
   0   2   8   11.69    3.76
   0  -2  -8   13.26    4.80
   0  -2   8   13.12    4.05
   0   2  -8   11.41    3.68
   0   2   8    6.74    1.70
   0   2  -8    8.10    2.17
   0   2  -8   11.70    3.73
   0   2   9   79.44    8.98
   0  -2  -9  123.74   14.73
   0   2  -9  151.22   18.16
   0   2  -9  110.78   13.61
   0  -2   9  133.06   15.32
   0   2  -9   71.92    9.55
   0   2  -9   76.61    9.53
   0  -2  -9  142.86   17.65
   0   2   9  140.99   16.26
   0   2  10  107.70   14.45
   0  -2 -10  113.04   15.93
   0  -2 -10   99.93   13.46
   0   2 -10   59.51    7.31
   0  -2  10  111.44   13.92
   0   2 -10   93.15   12.12
   0   2  10   47.93    6.19
   0   2 -10  119.61   16.33
   0   2 -10   50.63    7.27
   0  -2  11   33.36    7.93
   0  -2 -11   30.66    7.10
   0   2 -11   44.07   10.22
   0   2 -11   33.30    7.16
   0   2  11   14.14    2.33
   0   2  11   46.24    9.20
   0   2 -11   21.25    3.38
   0  -2 -11   43.73    9.97
   0   2  12   35.72    8.60
   0  -2 -12   40.54   10.82
   0   2 -12   38.48    7.93
   0   2 -12   13.28    2.61
   0  -2 -12   40.73    8.69
   0   2 -12   51.34   11.17
   0  -2  12   47.88    9.99
   0   2 -13   72.49   13.98
   0   2  13   73.09   13.04
   0   2 -13   66.07   10.90
   0  -2  13   71.24   12.44
   0  -2 -13   86.58   12.95
   0  -2 -13   83.70   15.65
   0  -2  14   31.95    9.64
   0  -2 -14   38.80   11.62
   0   2 -14   46.42   12.23
   0   2 -14   28.89    8.40
   0  -2 -14   47.23   10.50
   0   2  14   41.99   10.27
   0  -2 -15  117.71   20.93
   0   2 -15  112.95   20.51
   0   2 -15   97.53   16.83
   0  -2 -15   98.24   17.24
   0  -2  15   94.92   17.90
   0   2  15   93.61   18.31
   0  -2 -16   31.81    9.74
   0  -2  16   26.70    8.82
   0   2  16   28.72    9.47
   0   2 -16   18.76    8.54
   0   2 -16   24.23    7.63
   0  -2 -16   25.41    8.78
   0  -2 -17   56.44   15.54
   0   2  17   47.53   12.97
   0  -2 -17   50.47   13.04
   0   2 -17   48.27   13.90
   0  -2  17   55.03   13.69
   0   2 -17   50.77   12.41
   0   2 -18    0.58    1.86
   0   2 -18    7.70    4.10
   0  -2  18    5.26    5.15
   0  -2 -18    7.07    6.87
   0   2  18    0.01    2.22
   0  -2 -18    3.42    3.97
   0  -2 -19    0.53    1.72
   0  -2 -19   11.87    7.97
   0  -2  19    0.91    1.42
   0   2 -19    3.25    3.18
   0   2 -19   14.07    8.99
   0   2  19    6.38    5.99
   0   2 -20    0.01    1.95
   0  -2 -20    2.50    4.06
   0   2 -20    4.58    5.36
   0  -2  20   -0.84    2.38
   0  -2 -20   -3.38    3.48
   0   2  20    2.34    3.25
   0  -2 -21    2.11    2.77
   0   2  21   -3.92    3.46
   0  -2 -21   -4.83    4.77
   0   2 -21   -0.11    1.46
   0   2 -21    0.76    1.89
   0   2  22   -1.05    2.79
   0  -2 -22    0.49    1.58
   0   2 -22    2.11    4.63
   0  -2 -22    0.09    2.58
   0   2  23    3.05    4.07
   0  -2 -23   10.20    6.89
   0   2 -23    0.79    3.01
   0  -2 -23   -9.03    6.98
   0  -2 -24    0.60    1.65
   0  -3   0    1.10    1.35
   0  -3   0    2.36    1.77
   0   3   0    1.65    0.65
   0   3   0    0.59    0.91
   0  -3   1  347.82   34.06
   0  -3  -1  323.60   33.90
   0  -3   1  373.07   34.05
   0   3   1  405.51   33.20
   0  -3  -1  341.98   33.71
   0  -3  -2   67.31    8.88
   0  -3   2   69.77    9.15
   0  -3   2   62.59    8.79
   0   3  -2   65.28    9.84
   0   3   2   70.21    8.33
   0  -3  -2   61.47    9.00
   0   3   3   48.37    6.42
   0  -3   3   48.55    7.09
   0  -3   3   38.31    6.15
   0  -3   3   32.06    4.27
   0  -3  -3   37.98    6.21
   0   3  -3   50.53    8.61
   0  -3  -3   37.41    6.49
   0  -3   4  425.30   39.24
   0  -3  -4  364.01   38.60
   0   3  -4  396.79   40.20
   0   3   4  437.76   38.45
   0   3  -4  401.41   38.38
   0   3  -5  412.82   44.71
   0   3   5  503.85   45.57
   0   3  -5  551.41   48.52
   0  -3  -5  498.48   46.70
   0  -3   5  506.93   46.30
   0   3   6    7.87    3.03
   0  -3   6    6.34    2.95
   0  -3  -6    9.98    3.75
   0   3  -6    3.94    2.84
   0  -3  -6    4.82    2.91
   0   3  -6    8.18    2.53
   0   3  -7  311.85   33.80
   0  -3   7  322.69   32.75
   0   3  -7  274.62   30.91
   0   3   7  306.21   31.81
   0  -3  -7  338.31   34.29
   0   3  -8   80.41   12.99
   0   3   8   44.17    7.01
   0  -3  -8   94.28   13.72
   0   3  -8   62.98   10.14
   0  -3   8   73.71   11.32
   0   3   8   76.18   11.48
   0   3  -8   55.57    7.87
   0   3   9   77.49   11.98
   0   3  -9   45.16    7.13
   0  -3   9   67.40   11.58
   0   3  -9   89.69   14.59
   0  -3  -9   85.59   13.51
   0   3   9   47.53    6.78
   0   3  -9   42.43    8.57
   0  -3  10  104.41   14.23
   0   3 -10  105.66   16.44
   0   3 -10   53.25    8.39
   0   3  10   63.51    8.16
   0  -3 -10  114.92   16.66
   0   3 -10   57.95    8.61
   0  -3 -10  106.39   14.23
   0   3 -10   56.15   10.62
   0   3  10   97.55   14.21
   0   3 -11    3.00    1.27
   0   3 -11    5.53    3.03
   0  -3 -11    4.15    3.22
   0   3 -11    4.76    2.09
   0   3  11    3.32    1.36
   0  -3 -11    5.57    2.91
   0   3 -11    8.66    5.31
   0   3  11    7.22    3.95
   0  -3  11    7.72    3.80
   0  -3 -12    0.13    1.79
   0   3 -12   -0.06    3.40
   0  -3  12    0.57    1.52
   0   3 -12    1.03    1.17
   0  -3 -12    6.10    5.53
   0   3 -12    0.41    0.28
   0   3  12   -0.61    0.65
   0   3  12    3.21    3.40
   0   3 -12   -0.43    0.96
   0  -3  13    4.99    3.70
   0   3  13    4.48    3.69
   0  -3 -13    4.22    3.67
   0   3 -13    0.67    0.86
   0  -3 -13    3.93    3.57
   0   3 -13    6.81    3.93
   0   3 -13    3.35    3.96
   0   3 -13    1.77    1.13
   0   3 -14    9.95    4.74
   0  -3  14   17.66    6.70
   0   3  14   15.47    6.06
   0  -3 -14   12.24    6.36
   0   3 -14   22.61    9.85
   0  -3 -14   24.84    7.78
   0  -3 -15  128.74   23.38
   0  -3 -15  125.12   21.04
   0  -3  15  136.04   22.00
   0   3 -15  114.16   19.45
   0   3  15  157.82   23.75
   0   3 -15  139.03   23.70
   0  -3 -16   18.34    7.67
   0   3 -16   18.48    7.09
   0   3  16   19.23    7.12
   0  -3 -16   21.72    7.81
   0   3 -16   14.33    5.26
   0  -3 -17   10.72    6.75
   0   3 -17   17.72    7.07
   0   3 -17   16.97    8.33
   0   3  17   20.22    8.21
   0  -3 -17   21.32    8.58
   0   3 -18    2.59    1.05
   0  -3 -18    8.67    5.33
   0  -3 -18   -3.29    3.10
   0   3 -18    1.92    2.11
   0   3  18    7.54    5.17
   0   3 -19    5.18    3.89
   0   3  19    2.93    3.86
   0   3 -19    2.04    2.28
   0  -3 -19   -5.23    4.11
   0  -3 -19    5.12    6.98
   0  -3 -20    0.22    1.51
   0   3  20   -0.09    3.63
   0  -3 -20    4.50    4.37
   0   3 -20   -1.07    2.65
   0  -3 -21    0.00    0.30
   0  -3 -21    0.59    1.71
   0   3  21    1.31    3.51
   0  -3 -22    0.22    0.95
   0  -3 -22    3.57    3.93
   0   3  22    0.27    3.99
   0   3 -22    2.61    6.49
   0  -3 -23    1.64    2.55
   0   3 -23    3.62    5.55
   0   3  23    0.42    3.52
   0  -3 -24   -5.28    4.97
   0  -4   0    8.67    3.15
   0  -4   0    8.42    2.59
   0   4   0    4.94    1.38
   0   4   0    3.95    1.40
   0  -4   1  393.49   35.21
   0   4   1  378.73   33.23
   0  -4  -1  371.96   34.67
   0  -4  -1  320.12   34.62
   0  -4   1  311.01   34.48
   0  -4   2  220.50   21.59
   0  -4  -2  176.92   21.01
   0   4  -2  235.99   24.01
   0  -4  -2  199.52   21.10
   0   4   2  186.56   19.50
   0  -4   2  168.79   20.74
   0  -4   3   73.73    8.64
   0   4  -3  134.84   16.00
   0   4   3  120.51   12.05
   0  -4  -3  105.78   13.02
   0  -4  -3  123.21   13.06
   0  -4   3  135.66   14.02
   0   4   4   37.16    6.31
   0  -4  -4   41.51    7.32
   0   4  -4   53.09    9.37
   0  -4   4   28.28    4.16
   0  -4   4   48.24    7.72
   0  -4   5    8.45    2.09
   0  -4   5   16.93    4.45
   0   4   5   16.35    4.29
   0   4  -5   16.34    4.21
   0   4  -5   10.50    4.94
   0  -4  -5   16.86    4.62
   0  -4   6  498.76   45.69
   0   4  -6  485.96   47.60
   0  -4  -6  456.20   45.44
   0   4   6  439.25   44.14
   0   4  -6  425.89   44.04
   0  -4  -7  165.91   21.72
   0  -4   7  196.46   22.32
   0   4  -7  157.35   20.42
   0   4   7  175.60   20.93
   0   4  -7  206.02   24.50
   0  -4   8  155.76   19.42
   0   4  -8  125.14   17.59
   0   4  -8  174.70   22.22
   0   4   8  127.04   17.93
   0  -4  -8  152.19   20.97
   0  -4   9    7.31    2.91
   0   4  -9    2.76    1.77
   0  -4  -9    1.83    1.62
   0   4  -9    0.91    0.95
   0   4   9    3.66    2.34
   0   4   9    1.34    1.38
   0   4  -9    2.14    1.92
   0   4  10   17.18    4.13
   0   4 -10   41.00    9.93
   0   4 -10   18.51    5.59
   0   4 -10   13.32    4.06
   0  -4  10   30.07    7.99
   0   4  10   29.13    7.35
   0   4 -10   19.90    4.57
   0  -4 -10   24.54    7.14
   0  -4  11    3.15    1.96
   0   4  11    0.57    0.41
   0   4 -11    3.18    1.92
   0  -4 -11    4.67    3.37
   0   4 -11    1.41    0.28
   0   4  11    3.08    2.71
   0   4 -11   -0.57    0.83
   0   4 -11   -0.30    0.93
   0  -4 -11    2.94    2.33
   0  -4 -12    2.17    2.06
   0   4  12    2.60    1.47
   0  -4  12    4.34    3.61
   0   4 -12    2.22    2.73
   0   4  12    4.75    4.22
   0  -4 -12    3.53    2.62
   0   4 -12    2.36    1.68
   0   4 -12    2.75    1.79
   0   4 -12    6.95    4.69
   0   4 -13   -0.65    4.29
   0   4  13   -1.07    2.43
   0   4 -13    1.08    1.52
   0  -4  13   -0.65    1.04
   0  -4 -13    1.24    1.79
   0   4 -13    0.51    1.19
   0  -4 -13    3.30    5.23
   0   4 -13    0.14    0.50
   0  -4 -14   17.51    6.90
   0  -4  14   11.23    6.61
   0   4  14   16.64    6.58
   0   4 -14   10.41    5.07
   0   4 -14   28.41   10.30
   0  -4 -14   17.54    8.13
   0  -4 -15    8.22    5.89
   0   4  15    2.90    2.34
   0   4 -15    6.87    3.85
   0   4 -15    6.08    3.87
   0  -4  15    4.23    4.49
   0  -4 -15    5.49    4.08
   0   4 -16   19.39    7.58
   0   4 -16   25.35    9.40
   0  -4 -16   25.46    8.80
   0   4  16   21.27    8.74
   0  -4  16   19.72    7.21
   0  -4 -16   25.77    9.87
   0  -4  17    4.51    3.00
   0  -4 -17   10.43    6.33
   0   4 -17    3.12    3.02
   0  -4 -17   -0.57    1.50
   0   4  17    0.16    3.80
   0   4 -17    3.51    4.16
   0   4 -18    2.41    2.83
   0   4  18   -2.37    2.79
   0  -4 -18    3.62    5.78
   0  -4  18    5.93    4.69
   0  -4 -18    3.22    2.69
   0  -4 -19    0.33    2.37
   0   4 -19    8.52    6.96
   0  -4  19    2.64    2.41
   0   4  19    6.53    4.45
   0  -4 -19   15.26    7.08
   0   4 -20    5.41    5.52
   0   4  20   -0.09    3.77
   0  -4 -20   -4.43    4.01
   0  -4 -20    4.61    5.63
   0  -4 -21   -3.49    4.12
   0  -4 -21    2.78    4.54
   0   4  21    0.89    1.58
   0   4 -21   10.18    8.58
   0   4  22   10.02    6.64
   0  -4 -22   -2.61    3.69
   0   4 -22    1.11    3.75
   0  -4 -22    5.27    5.98
   0  -4 -23   -2.14    3.10
   0   5   0  165.55   20.19
   0  -5   0  314.20   27.39
   0   5   0  315.18   23.59
   0  -5   0  338.94   26.83
   0  -5   1  786.25   61.68
   0  -5  -1  774.13   61.48
   0  -5   1  803.64   60.75
   0  -5  -1  848.01   61.03
   0   5  -1  630.87   57.18
   0   5   1  766.33   57.78
   0   5   2  539.85   49.58
   0  -5   2  611.86   52.39
   0  -5  -2  515.59   51.95
   0  -5   2  493.96   51.79
   0  -5  -2  569.91   52.23
   0   5   3   47.09    7.35
   0  -5  -3   40.84    8.33
   0   5  -3   62.04   11.12
   0  -5  -3   50.60    8.99
   0  -5   3   50.79    9.46
   0  -5   3   53.02    8.93
   0  -5  -4   85.59   11.55
   0   5  -4   98.79   14.31
   0  -5   4   99.51   12.22
   0   5   4   82.43   10.05
   0  -5   4   46.98    5.98
   0  -5  -4   85.24   11.78
   0   5  -5   12.96    5.24
   0  -5   5    6.95    3.14
   0   5   5    8.26    2.97
   0  -5  -5    6.30    2.72
   0  -5   5    5.32    1.43
   0   5  -6   22.53    6.83
   0  -5   6   10.45    2.63
   0  -5  -6   22.60    5.77
   0   5   6   17.53    4.94
   0  -5   6   23.47    6.07
   0   5   7   25.36    6.14
   0  -5  -7   25.89    6.98
   0  -5   7   14.32    3.35
   0   5  -7   27.74    8.89
   0  -5   7   26.22    6.59
   0   5   8   21.63    5.72
   0  -5   8   24.55    6.62
   0  -5   8   10.56    3.17
   0  -5  -8   19.07    6.48
   0   5  -8   24.69    7.25
   0   5  -8   13.88    4.51
   0   5   9    6.40    3.10
   0  -5  -9   18.42    6.55
   0   5   9   15.20    4.81
   0  -5   9   20.26    6.28
   0   5  -9   18.07    5.73
   0   5  -9   19.60    6.80
   0   5 -10   98.99   14.70
   0  -5 -10  182.92   23.81
   0   5  10   91.45   13.93
   0   5 -10  163.62   23.14
   0  -5  10  167.39   20.66
   0   5 -10  137.80   18.35
   0   5  10  130.40   18.74
   0  -5 -11   24.08    7.56
   0  -5  11   23.66    7.39
   0   5 -11   11.73    4.11
   0   5  11   11.23    3.55
   0   5 -11   23.46    7.58
   0   5 -11   15.65    4.31
   0   5  11   19.04    6.07
   0   5 -11   17.78    5.98
   0   5 -12   39.30    9.16
   0   5  12   29.72    6.22
   0   5 -12   59.97   13.20
   0   5  12   42.53   10.37
   0   5 -12   34.80    7.17
   0  -5 -12   54.10   11.88
   0   5 -12   26.83    6.37
   0  -5 -12   55.46   13.16
   0  -5  12   44.24   10.31
   0  -5 -13    6.24    5.20
   0   5 -13    2.51    2.16
   0   5  13   -0.74    4.23
   0   5 -13    5.57    2.76
   0  -5  13    2.46    3.30
   0   5 -13    3.29    1.48
   0  -5 -13    2.44    3.07
   0   5 -13    1.98    2.07
   0  -5 -14   11.96    6.27
   0  -5 -14    8.55    4.09
   0  -5  14    8.83    4.82
   0   5 -14   25.20   10.23
   0   5  14   18.40    7.82
   0   5 -14    7.26    4.23
   0  -5  15    2.20    1.92
   0  -5 -15    7.43    5.61
   0   5 -15    7.91    4.66
   0   5 -15   15.41    7.76
   0   5  15   12.02    5.57
   0  -5 -15    6.53    4.18
   0  -5 -16   -0.24    3.09
   0   5 -16    7.88    3.63
   0  -5 -16   -1.42    0.53
   0   5  16    3.59    3.28
   0  -5  16   -0.56    1.47
   0   5  17   11.47    6.33
   0  -5 -17    4.61    4.21
   0  -5  17    4.08    4.41
   0  -5 -17    8.20    5.05
   0   5 -17    2.16    1.65
   0  -5 -18    4.70    3.64
   0   5 -18    7.73    5.53
   0  -5  18    1.07    2.10
   0   5  18    1.31    2.48
   0  -5 -18    1.00    2.72
   0  -5 -19    4.77    5.29
   0   5  19   -1.03    1.42
   0  -5 -19    4.10    3.30
   0   5 -19    1.99    2.24
   0  -5 -20   19.44   10.21
   0  -5 -20    5.97    5.79
   0   5 -20   18.41   10.74
   0   5  20   14.74    8.35
   0  -5 -21   -4.60    4.84
   0   5  21    0.99    2.30
   0   5 -21    2.94    4.39
   0  -5 -21    1.07    3.91
   0   5 -22    3.59    7.12
   0   5  22    0.22    0.74
   0  -5 -22   -0.08    0.60
   0  -5 -22   -1.45    2.79
   0   6   0   55.83    7.45
   0  -6   0   77.09   11.50
   0   6   0   32.83    5.29
   0  -6   0   82.94   11.36
   0   6  -1   19.86    4.16
   0   6   1   17.93    3.94
   0  -6   1   23.48    6.15
   0  -6  -1   24.52    6.63
   0  -6   1   18.36    5.98
   0  -6  -1   14.61    4.92
   0  -6   2   39.32    8.56
   0  -6  -2   39.43    8.23
   0  -6   2   50.77    8.87
   0   6   2   34.54    6.09
   0  -6  -2   47.90    8.78
   0   6  -2   27.78    5.59
   0  -6  -3   13.81    4.46
   0   6   3    9.56    2.90
   0  -6   3   11.41    4.46
   0  -6  -3    6.76    3.47
   0  -6   3   13.21    4.37
   0   6   4    6.19    2.68
   0  -6  -4   11.80    4.47
   0  -6   4    9.15    4.04
   0  -6  -4   11.46    4.55
   0  -6   4    7.56    3.97
   0   6  -4   10.14    5.82
   0   6  -5   55.11   11.91
   0   6   5   38.61    7.76
   0  -6   5   70.57   11.24
   0  -6  -5   45.95    9.99
   0  -6   6   90.87   13.14
   0  -6  -6   57.54   10.73
   0   6  -6   77.69   14.09
   0   6   6   50.66    9.03
   0  -6   6   37.37    5.46
   0   6  -7   44.13   10.14
   0  -6   7   19.35    3.94
   0   6   7   32.10    7.20
   0  -6   7   44.07    9.13
   0  -6  -7   34.69    8.42
   0   6   8   26.95    6.87
   0  -6   8   18.90    4.11
   0   6  -8   34.77    9.73
   0  -6  -8   39.25    9.39
   0  -6   8   29.38    7.44
   0   6  -9  127.77   20.35
   0  -6   9  137.22   17.76
   0   6   9   62.03   11.25
   0   6   9   94.73   14.68
   0  -6  -9  109.59   16.99
   0  -6   9   62.37    9.85
   0  -6  10  202.97   22.15
   0   6  10  136.31   18.36
   0   6 -10  113.56   16.58
   0  -6 -10  202.02   25.79
   0   6  10   64.03   12.50
   0   6 -10  192.93   25.00
   0  -6  10   85.14   12.47
   0   6 -10   92.46   14.43
   0   6 -11  224.80   28.37
   0   6 -11  141.40   19.39
   0   6 -11  120.24   16.80
   0  -6  11  197.52   23.59
   0   6 -11  101.53   15.98
   0  -6 -11  197.60   26.86
   0  -6  11   97.44   14.69
   0   6  11  158.38   21.26
   0   6  11  103.01   15.63
   0  -6 -12   25.27   10.26
   0  -6  12   16.41    4.95
   0  -6 -12   27.99    8.86
   0   6 -12   35.22   10.77
   0  -6  12   31.13    8.64
   0   6  12   13.93    4.46
   0   6 -12   18.72    6.42
   0   6  12   23.63    7.36
   0   6 -12   17.22    5.45
   0   6 -12   13.84    4.82
   0   6 -13   11.71    5.00
   0  -6  13    6.82    3.46
   0  -6 -13   21.85    9.10
   0   6 -13    9.54    3.87
   0   6 -13    7.17    3.62
   0  -6 -13   12.63    5.69
   0   6 -13   12.42    7.26
   0   6  13    8.84    4.80
   0  -6  13   13.68    5.73
   0   6  14   19.24    7.69
   0   6 -14   24.68    9.58
   0  -6 -14   20.47    8.22
   0  -6 -14   19.83    7.18
   0  -6  14   24.99    8.53
   0  -6  14    5.53    3.38
   0   6  15    2.15    3.40
   0   6 -15    0.40    3.18
   0  -6 -15    4.97    7.95
   0  -6  15    0.94    1.31
   0  -6 -15    1.47    4.11
   0  -6  15    3.38    3.42
   0  -6 -16   -1.28    2.69
   0  -6 -16    2.61    4.72
   0   6  16    1.69    3.31
   0   6 -16   -0.13    1.55
   0  -6  16   -0.17    2.53
   0  -6 -17    0.42    2.69
   0  -6 -17   -3.15    3.19
   0  -6  17   -4.39    3.61
   0   6  17    1.58    0.86
   0   6 -17    0.84    1.47
   0  -6  18    0.16    1.94
   0  -6 -18    0.87    1.75
   0   6 -18    7.83    4.48
   0  -6 -18    1.66    4.03
   0   6  18    4.19    2.92
   0   6 -19    0.76    4.15
   0  -6 -19    0.36    1.21
   0   6  19   -0.42    1.77
   0  -6 -19    7.32    8.00
   0   6  20    2.81    5.13
   0  -6 -20   -0.34    1.18
   0   6 -20    3.07    6.20
   0  -6 -20    2.46    4.74
   0  -6 -21   -1.64    2.71
   0   6 -21    1.61    3.79
   0   6  21    7.08    5.83
   0  -7   0  185.72   18.49
   0   7   0  114.99   11.88
   0  -7   0  149.99   17.97
   0  -7  -1   11.10    4.62
   0  -7  -1    7.89    4.25
   0   7   1    8.96    2.83
   0  -7   1   11.45    4.66
   0  -7   1    5.60    2.27
   0   7  -1    7.67    2.52
   0  -7   2   33.18    7.47
   0  -7  -2   38.09    8.36
   0   7   2   21.44    4.86
   0  -7  -2   24.71    7.30
   0   7  -2   20.20    4.47
   0  -7   2   34.13    8.53
   0  -7  -3   50.00   10.43
   0  -7   3   74.74   12.05
   0  -7  -3   63.73   11.39
   0   7   3   41.61    7.68
   0  -7   3   57.73   11.37
   0   7  -3   42.71    7.24
   0  -7   4  236.34   26.41
   0  -7  -4  199.82   25.29
   0  -7  -4  212.11   25.35
   0   7   4  161.64   21.49
   0  -7   4  246.17   27.75
   0  -7   5   14.17    5.33
   0  -7  -5   13.51    4.98
   0   7   5    8.76    3.24
   0  -7   5   18.07    5.33
   0  -7   6   13.04    5.38
   0  -7  -6   15.13    5.50
   0   7   6   13.16    4.46
   0   7  -6   14.31    5.41
   0  -7   6   16.31    6.87
   0  -7   7   12.68    5.91
   0  -7  -7   13.73    5.89
   0   7  -7    5.38    3.55
   0   7   7   12.72    4.92
   0   7   8   91.09   15.95
   0   7  -8  139.80   22.23
   0  -7   8  156.15   20.19
   0  -7  -8  121.52   19.26
   0  -7  -9   74.00   14.40
   0   7   9   41.29    9.43
   0   7  -9   89.30   17.09
   0   7   9   53.67   11.11
   0  -7   9   69.16   12.79
   0  -7  10   10.93    5.08
   0   7 -10   10.24    4.45
   0  -7 -10   17.51    8.71
   0   7 -10    5.41    2.72
   0   7  10    4.39    2.83
   0  -7 -10   11.08    5.72
   0   7  10    4.77    3.10
   0   7 -10    2.02    1.75
   0  -7 -11    9.15    5.75
   0   7  11    3.61    2.90
   0   7 -11    5.29    2.94
   0   7  11    8.61    5.06
   0   7 -11    4.02    2.94
   0  -7  11   13.74    6.11
   0   7 -11   17.61    7.82
   0   7  12    5.52    4.26
   0   7 -12    5.92    3.22
   0  -7 -12   11.26    5.33
   0   7 -12   -0.39    2.13
   0  -7  12    9.68    4.67
   0   7  12    4.01    2.65
   0   7 -12    1.57    0.56
   0  -7 -13   17.07    8.88
   0   7 -13   16.66    7.96
   0  -7 -13   15.88    7.17
   0   7  13   13.42    5.91
   0  -7  13   24.55    8.14
   0   7 -13   12.76    4.99
   0   7 -13    9.64    4.73
   0   7  14   11.90    6.30
   0  -7 -14    7.48    6.07
   0   7 -14    7.08    5.36
   0  -7  14   14.21    5.89
   0  -7 -14   16.73    9.29
   0   7  15   15.71    7.71
   0  -7 -15   11.03    7.60
   0   7 -15   25.01   10.36
   0  -7 -15   20.04    8.35
   0  -7  15   21.90    7.94
   0  -7  16   -1.36    1.98
   0   7  16   -0.49    1.96
   0  -7 -16    0.92    3.37
   0  -7 -16    3.24    4.51
   0   7 -16    5.67    5.56
   0   7 -17   -0.66    1.71
   0   7  17    4.46    4.35
   0  -7 -17   -0.24    3.46
   0  -7 -17   -2.09    3.07
   0  -7  17    2.63    3.23
   0  -7 -18    0.50    4.54
   0  -7 -18   -1.88    2.63
   0   7  18   -0.12    3.94
   0   7 -18    0.07    0.59
   0  -7 -19   -4.00    3.98
   0   7 -19   -6.78    5.80
   0  -7 -19   -1.76    5.26
   0   7  19    0.78    3.11
   0   7  20   -1.43    2.29
   0   7 -20    0.34    3.02
   0  -7 -20    5.58    6.55
   0  -7 -20    1.11    3.22
   0   8   0    3.75    1.73
   0  -8   0   14.94    6.05
   0  -8   0   11.30    4.56
   0  -8  -1   18.27    5.89
   0  -8   1   20.14    6.41
   0   8  -1    8.82    2.99
   0   8   1   11.94    3.54
   0  -8  -1   25.24    7.28
   0  -8  -2   36.09    8.48
   0  -8  -2   29.00    7.76
   0   8   2   20.84    4.73
   0  -8   2   42.39    9.69
   0   8  -2   12.26    3.64
   0  -8   2   36.34    8.57
   0  -8   3  110.92   17.33
   0  -8  -3  109.64   16.19
   0  -8   3  134.21   16.84
   0  -8  -3  122.86   16.19
   0   8  -3   37.68    8.13
   0   8   3   81.10   11.03
   0  -8   4   41.17    8.95
   0   8   4   20.33    5.19
   0  -8   4   29.35    7.94
   0   8  -4    8.35    3.51
   0  -8  -4   15.34    6.78
   0  -8  -4   25.23    7.30
   0  -8   5  299.44   30.87
   0   8   5  174.58   24.25
   0  -8  -5  216.02   28.36
   0  -8   5  279.55   32.05
   0  -8   6  147.12   21.90
   0  -8   6  132.38   19.61
   0   8   6  101.31   16.22
   0  -8  -6  132.62   20.09
   0  -8   7    4.99    3.21
   0   8   7    3.54    2.68
   0  -8   7    4.35    2.13
   0   8  -7   -0.01    0.62
   0  -8  -7    1.23    1.78
   0  -8  -8    8.93    4.34
   0   8   8    5.58    3.71
   0  -8   8    9.71    5.02
   0   8  -8   13.02    7.37
   0  -8   8    8.85    5.53
   0   8   8    1.02    2.20
   0  -8  -9    4.04    3.60
   0  -8   9   -5.37    3.46
   0   8   9    1.56    1.21
   0   8   9   -0.39    1.67
   0   8  -9    3.43    3.41
   0   8 -10   12.21    5.16
   0  -8  10   21.03    6.91
   0   8 -10   33.05   11.11
   0   8  10   24.21    7.27
   0  -8 -10   25.86    8.83
   0   8 -10   11.75    5.04
   0   8  10   12.36    5.03
   0  -8  11    3.09    2.97
   0   8 -11    6.99    4.96
   0   8 -11    4.57    3.44
   0   8 -11    0.82    2.68
   0   8  11    1.90    2.04
   0   8  11    5.11    3.45
   0  -8 -11    3.03    3.23
   0   8 -12   19.59    8.36
   0   8 -12    6.00    3.56
   0  -8  12   18.44    6.79
   0  -8 -12   10.71    6.43
   0   8 -12    8.43    4.70
   0   8  12   14.65    6.49
   0   8  12    3.61    2.95
   0   8  13   -0.11    0.69
   0   8 -13    2.87    2.59
   0  -8 -13    0.28    1.24
   0  -8  13    0.98    1.46
   0   8 -13    1.46    0.87
   0   8 -13    4.04    3.98
   0  -8 -13    5.67    5.12
   0  -8 -14   -0.94    1.71
   0  -8 -14    7.52    5.67
   0   8 -14    1.25    3.58
   0   8  14    2.13    2.70
   0  -8  14    0.65    1.23
   0  -8  15    2.34    3.02
   0   8  15    3.53    3.24
   0  -8 -15    0.85    3.26
   0  -8 -15    4.44    4.40
   0   8 -15   -0.99    3.95
   0  -8 -16    4.97    2.83
   0  -8 -16   -0.08    2.20
   0   8 -16   -0.23    3.10
   0  -8  16    4.17    4.82
   0   8  16    5.47    5.12
   0   8 -17    0.31    1.69
   0  -8 -17    3.97    3.79
   0  -8 -17    6.65    3.66
   0   8  17    5.38    5.50
   0  -8 -18    0.62    1.56
   0  -8 -18   -1.45    2.71
   0   8 -18   -3.48    4.17
   0   8  18    2.59    3.39
   0  -8 -19   -3.65    4.47
   0   8  19    2.22    3.77
   0  -8 -19    2.93    3.75
   0   8 -19   -0.67    2.82
   0  -9   0    6.16    4.07
   0  -9   0    4.81    2.33
   0  -9  -1   12.72    5.03
   0  -9   1   14.21    5.35
   0  -9  -1   13.85    5.39
   0  -9   1    7.49    4.48
   0   9   1    5.77    2.37
   0   9   2   15.74    4.55
   0  -9  -2   28.12    8.47
   0  -9  -2   25.76    7.86
   0  -9   2   21.46    8.11
   0  -9   2   25.10    7.67
   0  -9  -3   45.88   10.92
   0  -9   3   44.04   11.36
   0  -9   3   44.44   10.12
   0  -9  -3   56.22   12.10
   0   9   3   34.56    7.38
   0  -9   4   90.62   15.54
   0  -9  -4   95.63   16.18
   0   9   4   65.16   11.54
   0  -9   4   89.68   17.13
   0  -9  -4   91.64   16.07
   0  -9  -5   14.18    5.57
   0  -9   5    9.88    5.63
   0  -9   5   14.45    6.38
   0   9   5    8.89    3.89
   0  -9  -6  107.54   17.92
   0  -9   6  101.31   18.57
   0  -9   6  105.39   16.81
   0   9   6   64.26   12.69
   0  -9   7   13.55    6.26
   0  -9  -7    8.85    4.60
   0   9   7    9.23    4.35
   0   9   7    9.57    4.35
   0  -9   7   15.10    6.50
   0   9   8   12.37    5.20
   0  -9  -8   18.53    7.19
   0  -9   8   18.90    7.22
   0   9   8   23.34    7.07
   0   9  -8   18.36    6.55
   0  -9   8   23.00    8.91
   0  -9  -9    7.45    4.61
   0   9  -9   13.18    6.55
   0  -9   9   14.93    8.53
   0   9   9    6.78    3.80
   0   9   9    4.03    3.33
   0  -9   9    6.16    5.76
   0   9  -9    7.20    4.62
   0  -9  10   -2.06    2.75
   0   9 -10   -0.92    1.40
   0  -9  10    4.77    5.11
   0   9  10    0.52    1.44
   0  -9 -10    0.10    0.59
   0   9 -10    7.34    6.28
   0   9 -10    7.61    8.71
   0   9  10    0.19    1.09
   0  -9 -11    5.24    6.16
   0   9 -11    2.93    2.91
   0  -9  11   13.85    7.06
   0   9 -11   15.81    9.64
   0  -9  11    5.60    3.85
   0   9 -11    2.98    3.27
   0   9  11    6.42    4.26
   0   9  11    3.96    3.31
   0  -9  12    1.23    1.67
   0   9 -12    0.69    2.62
   0   9  12    4.88    3.77
   0   9 -12   -0.71    2.08
   0   9 -12    3.73    4.46
   0   9  12   -3.08    2.57
   0  -9 -12    2.47    3.34
   0  -9 -13    6.19    3.72
   0  -9 -13    4.98    5.41
   0   9 -13    0.20    3.34
   0   9  13    9.44    5.41
   0  -9  13    8.35    5.49
   0   9 -13    3.57    4.22
   0   9 -13    5.37    4.11
   0   9 -14    1.56    2.34
   0  -9 -14   -9.74    6.61
   0   9  14    0.07    2.04
   0  -9  14    9.34    5.63
   0   9 -15   -1.67    2.81
   0   9  15    8.10    5.79
   0  -9 -15    2.71    4.03
   0  -9  15    1.14    1.64
   0  -9 -15    4.46    5.89
   0  -9 -16   -1.84    2.65
   0   9 -16  -11.98    7.67
   0   9  16   -1.68    2.56
   0  -9 -16   -5.92    5.37
   0   9  17    2.36    4.47
   0  -9 -17    6.58    6.77
   0   9 -17    1.83    4.80
   0  -9 -17    0.13    0.75
   0   9  18   -3.64    4.00
   0   9 -18   -3.00    4.02
   0  -9 -18   -0.85    1.90
   0  -9 -18    0.58    3.90
   0   9  19   11.68    7.91
   0 -10   0    9.66    5.19
   0 -10   0   14.15    6.18
   0 -10   1   14.92    7.04
   0 -10   1   19.04    7.82
   0 -10  -1   21.31    8.39
   0 -10  -1   16.14    6.49
   0 -10   2    1.63    3.39
   0 -10  -2    4.08    4.17
   0 -10  -3   10.90    5.51
   0 -10   3    4.39    3.99
   0 -10   3   22.73   11.95
   0 -10  -3   12.42    6.57
   0 -10  -4    8.03    5.89
   0 -10   4    7.86    3.99
   0 -10   4    6.73    5.49
   0  10   5    1.95    1.50
   0 -10   5    4.72    4.87
   0 -10  -5    2.24    2.80
   0 -10   5    4.04    3.27
   0 -10   6    7.85    6.11
   0 -10  -6    4.96    4.43
   0  10   6    5.21    3.06
   0 -10   6    3.24    1.99
   0  10   6    5.56    3.48
   0  10   7    2.04    2.04
   0  10  -7    3.69    2.38
   0 -10  -7    1.69    2.71
   0 -10   7    4.11    3.85
   0  10   7    0.27    1.70
   0 -10   7    6.83    4.46
   0 -10   8    2.72    2.99
   0  10   8    1.15    2.55
   0 -10  -8    0.00    1.87
   0 -10   8   -1.48    2.19
   0  10   8    0.49    0.50
   0  10  -8   -0.21    0.59
   0  10   9    0.02    1.47
   0 -10   9   -2.07    2.63
   0 -10  -9    0.00    1.49
   0 -10   9    0.43    2.18
   0  10   9    1.42    1.83
   0  10  -9    0.36    2.01
   0  10  -9    0.49    1.82
   0  10 -10    0.67    1.34
   0 -10  10    0.78    2.81
   0  10  10    2.11    2.74
   0 -10 -10    1.27    0.91
   0  10 -10    3.31    1.70
   0  10  10    3.41    2.67
   0 -10  10    5.09    4.22
   0 -10 -11   16.85    8.38
   0  10 -11   33.64   12.34
   0 -10  11    8.67    6.72
   0 -10 -11   16.09    7.47
   0  10  11    7.47    4.47
   0  10  11   12.19    6.05
   0  10 -11    3.12    3.89
   0 -10  11   10.47    5.95
   0  10 -11    7.33    4.50
   0 -10  12    2.24    4.08
   0  10 -12    2.50    2.91
   0  10  12    0.70    0.79
   0  10  12    2.73    1.61
   0  10 -12    2.05    2.35
   0 -10  12    5.98    4.46
   0  10 -12   13.04    7.73
   0 -10 -12   -7.12    5.65
   0 -10 -12    6.81    5.76
   0  10  13    1.13    1.33
   0 -10  13    0.54    1.13
   0 -10 -13   -0.24    0.24
   0 -10  13   -0.16    1.58
   0  10 -13    0.27    0.57
   0  10 -13    2.64    2.84
   0  10 -13   -1.02    6.17
   0 -10 -13   -1.96    3.02
   0 -10 -14   -2.78    3.18
   0  10 -14   -0.54    2.71
   0 -10  14    1.21    2.05
   0 -10 -14   -2.01    3.12
   0 -10  14    0.21    1.94
   0  10  14    0.47    2.07
   0  10  15   -0.67    1.58
   0 -10  15    4.25    4.95
   0 -10 -15    3.03    4.25
   0  10 -15  -10.80    7.42
   0 -10 -15   -5.42    5.24
   0 -10 -16   -2.34    3.09
   0 -10 -16    0.69    4.48
   0  10 -16    1.11    3.35
   0  10  16   -4.30    4.15
   0  10  17   -2.64    3.36
   0  10  18    5.95    5.52
   0 -11   0    3.82    3.91
   0 -11   0    1.05    1.31
   0 -11   1    1.47    3.14
   0  11   1    2.20    2.93
   0 -11  -1    1.10    3.41
   0 -11   1    0.00    2.43
   0 -11  -1   -4.20    3.35
   0  11  -2   -0.81    2.42
   0 -11  -2    0.69    1.31
   0 -11   2    2.07    3.25
   0 -11   2    3.32    3.65
   0  11   2    0.66    0.97
   0 -11  -2   -1.67    2.78
   0 -11  -3    4.64    4.67
   0 -11   3    6.34    4.90
   0 -11   3    0.83    1.95
   0  11  -3   13.38    6.58
   0 -11  -3    9.75    6.16
   0  11   3    6.09    3.89
   0 -11  -4    1.37    1.63
   0 -11   4    7.66    5.79
   0  11  -4    3.44    3.56
   0 -11   4    1.77    3.07
   0  11   4   -0.47    1.05
   0  11   5    1.08    1.25
   0 -11   5   -0.02    2.57
   0 -11  -5    3.31    2.98
   0 -11   5    2.73    3.47
   0  11  -5    3.25    3.17
   0 -11   6    2.85    3.74
   0  11   6   -0.80    1.47
   0 -11   6    0.79    2.17
   0 -11  -6    2.67    3.71
   0  11  -6    2.85    3.16
   0 -11   7    2.86    3.64
   0  11  -7    4.15    3.69
   0  11   7    0.36    1.87
   0 -11   7    0.51    1.93
   0 -11  -7    2.04    3.33
   0  11   8    3.72    3.39
   0  11  -8   11.52    6.12
   0 -11  -8    4.73    4.56
   0  11  -8    6.63    4.50
   0 -11   8    4.72    4.17
   0 -11   8    5.72    5.60
   0 -11   9    9.03    5.07
   0  11  -9    3.28    3.53
   0  11   9    4.16    4.27
   0 -11  -9    6.30    4.96
   0  11  -9    9.97    4.27
   0 -11   9    9.33    6.76
   0  11 -10    3.83    3.77
   0  11 -10    4.33    3.20
   0 -11  10    0.26    2.42
   0  11  10    3.55    3.09
   0 -11 -10    1.53    1.87
   0 -11  10    8.90    6.68
   0  11 -11    2.33    3.23
   0  11 -11   -0.43    1.12
   0 -11  11    1.79    3.89
   0  11  11   -2.41    2.60
   0 -11  11    1.77    2.31
   0  11 -12    1.47    2.60
   0 -11 -12    4.17    5.01
   0 -11 -12   -1.11    1.99
   0  11 -12    0.08    1.81
   0 -11  12    0.00    0.75
   0 -11  12    1.50    3.28
   0 -11 -13    1.13    1.64
   0 -11  13    1.12    2.95
   0  11 -13   -1.54    2.17
   0 -11 -13    3.57    7.11
   0 -11  13    2.06    4.33
   0  11 -13    1.76    3.00
   0 -11 -14   -7.13    6.14
   0  11 -14   -1.30    2.64
   0 -11 -14   -1.78    2.65
   0 -11  14    0.16    3.42
   0 -11 -15   -7.41    5.55
   0 -11  15   -2.56    3.50
   0  11  15    0.43    1.90
   0  11  16    0.43    2.22
   0 -11  16    1.15    3.35
   0  12   0   -1.86    2.78
   0 -12   0   -0.04    2.11
   0 -12   0    1.71    3.09
   0 -12   1    1.11    2.53
   0 -12  -1    6.98    5.34
   0  12   1    3.37    3.45
   0  12  -1   -0.22    1.43
   0 -12  -1    1.00    1.69
   0 -12   1   -4.71    3.76
   0 -12   2    0.71    3.26
   0 -12  -2    1.83    3.69
   0 -12   2    0.02    2.13
   0 -12  -2    0.60    1.68
   0  12   2    0.17    1.64
   0  12  -2   -1.41    3.01
   0 -12  -3    0.66    2.80
   0  12  -3    3.57    2.85
   0 -12   3    0.21    2.28
   0  12   3    2.71    3.52
   0 -12   3    0.05    1.54
   0  12   4   -2.33    2.64
   0 -12  -4    4.58    4.42
   0  12  -4   -2.99    4.17
   0 -12   4   -0.02    1.91
   0 -12   4    2.40    3.77
   0 -12   5    0.00    2.41
   0  12  -5    0.51    2.76
   0 -12   5    3.04    3.32
   0 -12  -5    2.06    3.38
   0  12   5    0.55    1.00
   0 -12   6   -3.50    3.25
   0  12   6    0.78    1.03
   0 -12   6    1.33    1.09
   0  12  -6    1.40    1.72
   0  12  -7    4.69    4.83
   0 -12   7    0.17    1.88
   0  12  -7    0.37    1.54
   0  12   7    1.51    2.45
   0 -12   7    3.58    4.23
   0  12   8    1.00    2.16
   0  12  -8   -0.60    1.53
   0 -12   8    0.92    2.41
   0  12  -8    0.36    1.06
   0 -12   8   -2.05    2.93
   0 -12   9    1.28    2.30
   0 -12   9    0.81    1.60
   0  12  -9    0.18    1.98
   0  12   9    0.12    1.09
   0  12  -9    1.67    1.80
   0 -12  10    0.46    0.96
   0  12 -10    1.48    3.43
   0  12 -10    0.99    1.84
   0 -12  10    1.05    4.05
   0  12  10   -2.26    2.67
   0  12 -11    1.69    2.54
   0 -12 -11    5.75    6.08
   0  12 -11    2.75    3.53
   0  12  11    1.76    3.49
   0 -12  11    2.06    2.31
   0 -12  11   -0.03    2.50
   0  12  11    1.36    2.72
   0 -12  12    0.06    0.50
   0  12 -12   -2.85    3.09
   0 -12  12    2.12    2.75
   0  12 -12    0.53    3.13
   0 -12 -12   -0.03    0.36
   0 -12 -12    0.98    4.98
   0 -12  13    0.07    1.59
   0 -12 -13    0.00    1.04
   0  12 -13    1.73    3.09
   0 -12  14   -4.12    4.52
   0  13   0    0.08    1.18
   0 -13   0   16.87   11.46
   0  13   1   -0.53    2.15
   0  13  -1   -0.18    1.47
   0 -13  -1    7.51    4.03
   0 -13   1    3.95    4.46
   0  13   2    1.17    2.94
   0  13  -2   -0.89    2.42
   0 -13   2   -1.51    2.24
   0 -13   3    9.05    6.11
   0  13  -3   10.85    6.16
   0 -13   3    9.25    7.27
   0  13   3    4.92    4.68
   0 -13   4    1.30    4.10
   0  13   4    5.18    4.53
   0  13  -4    2.87    3.94
   0 -13   4    0.00    0.70
   0  13  -5   -1.32    2.11
   0 -13   5    4.49    5.10
   0  13  -5    1.68    2.19
   0 -13   5   -3.85    3.60
   0  13   5    2.66    3.95
   0  13   6   -1.03    1.90
   0  13  -6    0.20    2.48
   0 -13   6    2.76    4.47
   0  13  -6    5.30    5.11
   0 -13   6   -0.48    1.42
   0  13  -7    1.13    3.07
   0 -13   7    0.00    2.21
   0  13  -7    0.88    1.75
   0  13   7   -0.21    0.85
   0 -13   7   -0.98    1.82
   0  13  -8    1.32    3.53
   0 -13   8    2.56    5.17
   0  13   8   -1.25    2.10
   0 -13   8    0.42    1.19
   0  13  -8    0.98    2.54
   0 -13   9   -1.23    2.06
   0  13  -9   -0.70    1.59
   0  13  -9    1.58    4.74
   0 -13   9   -0.34    1.27
   0  13   9   -1.82    2.46
   0  13   9   -2.37    2.90
   0  13 -10   -1.86    2.61
   0 -13  10   -3.75    3.61
   0 -13 -10    4.10    4.89
   0  13 -10    0.51    1.36
   0 -13  10   -4.56    4.71
   0  13  10    1.92    3.35
   0  13  10    1.00    3.16
   0  13 -11   -2.27    2.92
   0  13  11   -4.34    3.85
   0 -13 -11    4.28    4.19
   0 -13  11   -0.80    2.02
   0  13 -11   -7.81    5.37
   0  13  11   -2.18    2.82
   0 -13  12   -3.21    4.01
   0  13 -12    1.21    2.96
   0  14   0    3.22    2.98
   0  14   0    1.91    2.32
   0 -14   0    2.94    4.34
   0  14  -1   12.36    6.97
   0 -14   1    2.14    2.85
   0  14  -1    1.05    2.06
   0  14   1    0.19    2.24
   0 -14   2   -1.45    2.32
   0  14  -2   -0.62    2.83
   0  14   2    4.52    4.65
   0  14  -2    0.33    0.86
   0  14  -3    1.59    2.80
   0 -14   3    4.51    5.05
   0  14   3    1.39    2.94
   0  14  -4   -1.45    0.94
   0  14   4   -2.43    3.07
   0 -14   4    0.00    1.47
   0  14   5    7.77    6.31
   0  14   5   12.27    7.22
   0 -14   5    9.21    6.20
   0  14   6    2.41    4.26
   0 -14   6    1.27    3.74
   0  14   7   -0.02    0.27
   0 -14   7    1.75    3.71
  -1   0  24   -4.19    4.61
   1   0 -24    0.55    0.79
   1   0 -23    2.11    2.11
   1   0 -23    7.22    5.49
  -1   0  23    4.60    5.43
   1   0 -22   -1.48    2.49
   1   0 -22   -2.42    3.34
  -1   0  22   -1.61    2.70
   1   0 -21    4.83    5.22
   1   0 -21    8.29    6.99
  -1   0  21   10.13    7.84
   1   0 -20    2.81    3.39
  -1   0  20    1.05    4.81
   1   0 -20    1.15    0.84
   1   0 -19   21.37    9.15
   1   0 -19   23.39    9.35
  -1   0  19    5.24    5.05
   1   0 -18   -0.94    2.62
  -1   0  18   -3.56    3.49
   1   0 -18    2.47    3.34
   1   0 -17    9.40    6.40
   1   0 -17    5.11    5.00
  -1   0  17    9.40    4.83
   1   0 -16   -0.03    3.32
  -1   0  16   12.05   10.35
   1   0 -16    0.13    1.25
   1   0 -15  164.27   25.18
   1   0 -15  151.63   23.23
  -1   0  15  143.82   22.99
   1   0 -14    7.68    5.05
  -1   0  14    1.14    2.31
   1   0 -14   -1.78    3.35
   1   0 -13  152.09   21.68
  -1   0  13  128.21   20.48
   1   0 -13  145.45   22.32
  -1   0  12    2.37    2.29
   1   0 -12   -0.04    1.23
   1   0 -12    1.84    3.26
   1   0 -11  109.94   17.08
   1   0 -11  123.35   18.20
  -1   0  11  108.04   16.63
   1   0 -10    2.90    3.19
   1   0 -10    0.41    0.68
  -1   0  10    0.88    2.16
  -1   0   9   24.58    6.21
   1   0  -9   31.87    6.77
   1   0  -9   39.40    8.58
   1   0  -9   14.71    3.68
   1   0  -8    2.08    1.42
  -1   0   8   -1.71    2.15
   1   0  -8    0.98    2.17
   1   0  -8    0.62    0.86
   1   0  -7  138.08   18.80
   1   0  -7  221.22   22.03
   1   0  -7  240.06   23.59
  -1   0   7  216.09   21.89
   1   0  -6    0.02    2.57
   1   0  -6    0.01    1.04
  -1   0   6    0.23    1.34
   1   0  -6    1.11    1.59
   1   0  -5  164.53   18.24
  -1   0   5  202.38   20.26
   1   0  -5  211.01   21.09
   1   0  -5  142.86   18.05
   1   0  -4   -4.70    2.08
   1   0  -4    0.71    1.26
   1   0  -4   -1.18    1.38
   1   0  -4    2.48    2.45
  -1   0   4    0.25    0.44
  -1   0   4   -3.29    2.03
  -1   0   3   64.49   10.95
   1   0  -3  188.53   16.53
   1   0  -3  131.85   14.41
   1   0  -3  150.09   12.33
   1   0  -3  153.97   15.23
   1   0  -3  172.02   15.40
   1   0  -2    0.65    0.83
   1   0  -2    3.03    1.62
  -1   0   2   -2.89    0.90
   1   0  -2    0.09    0.34
   1   0  -2   -1.30    1.32
   1   0  -2    1.56    1.21
   1   0  -1 6738.06  596.90
   1   0  -1 7391.63  595.60
  -1   0   1 6225.66  595.18
   1   0  -1 7631.47  597.41
   1   0  -1 8427.70  598.50
   1   0   0    2.11    1.81
  -1   0   0   -0.36    0.21
   1   0   0    1.42    1.22
   1   0   0    0.88    0.48
   1   0   0   -1.88    1.21
   1   0   1 3015.73  282.91
   1   0   1 3308.60  286.36
   1   0   1 3398.23  286.14
  -1   0  -1 3416.62  283.22
   1   0   1 3448.34  284.37
  -1   0  -1 3667.89  284.08
  -1   0  -2    0.07    0.33
   1   0   2   -3.05    1.97
   1   0   2    0.10    1.39
  -1   0  -2    0.94    0.51
   1   0   2   -1.31    0.77
   1   0   3  877.14   69.74
  -1   0  -3  751.89   65.67
  -1   0  -3  885.31   68.95
   1   0   3  761.85   65.88
   1   0   3  773.23   69.55
  -1   0  -4    1.18    1.32
   1   0   4   -1.05    0.64
   1   0   4    2.17    1.85
   1   0   5  582.88   55.46
  -1   0  -5  888.88   61.85
   1   0   5  772.48   60.03
   1   0   5  690.77   59.10
  -1   0  -6    1.39    1.76
   1   0   6   -1.89    1.37
   1   0   6   -0.15    0.65
   1   0   6    0.40    0.36
  -1   0  -7   25.22    6.22
  -1   0  -7    5.45    2.12
  -1   0  -8    0.27    0.39
  -1   0  -8    2.75    2.08
  -1   0  -9   12.95    3.09
  -1   0  -9   93.75   13.15
  -1   0 -10    0.00    0.18
  -1   0 -10    1.94    1.28
  -1   0 -11  359.04   38.84
  -1   0 -11  444.73   45.18
  -1   0 -12   -0.55    1.62
  -1   0 -12   -1.14    1.66
  -1   0 -13   59.07   13.14
  -1   0 -13   39.52    8.85
  -1   0 -14   -1.25    3.32
  -1   0 -14   -1.26    1.49
  -1   0 -15   72.38   13.82
  -1   0 -15   92.07   18.92
  -1   0 -16    2.24    3.02
  -1   0 -16    0.21    0.77
  -1   0 -17  116.51   22.06
  -1   0 -17   71.14   15.15
  -1   0 -18   -2.34    2.48
  -1   0 -18   -8.52    5.87
  -1   0 -19   11.25    7.36
  -1   0 -19    7.68    5.30
  -1   0 -20    2.55    3.27
  -1   0 -20    0.49    1.71
  -1   0 -21    6.16    6.14
  -1   0 -22    0.35    1.36
  -1   0 -23   -2.43    3.69
   1   1 -25   -0.59    1.76
   1  -1 -24    0.01    0.47
  -1  -1  24   -0.18    1.74
  -1   1  24   -1.45    2.36
   1   1 -24    6.34    6.26
   1  -1 -23    0.01    4.17
  -1   1  23    0.02    1.91
   1   1 -23    1.19    2.14
  -1  -1  23    4.17    5.22
   1  -1 -23   -6.06    5.19
   1   1 -23    1.24    4.00
  -1  -1  22   -0.54    5.17
   1   1 -22    4.17    5.48
  -1   1  22   -0.81    1.67
   1  -1 -22    1.10    0.58
   1   1 -22    1.31    2.57
   1  -1 -22    6.50    5.34
   1   1 -21   -0.47    2.48
   1  -1 -21    0.15    1.70
  -1   1  21    2.81    3.97
  -1  -1  21   -4.64    4.37
   1  -1 -21   -1.48    2.39
   1   1 -21   -3.16    3.54
   1   1 -20   -4.08    4.05
   1   1 -20   -0.57    1.01
  -1  -1  20   -3.16    3.47
  -1   1  20   -1.43    3.62
   1  -1 -20    1.39    1.98
   1  -1 -20   -3.58    3.80
  -1  -1  19    1.68    3.07
   1   1 -19   -6.59    4.96
  -1   1  19    0.79    2.67
   1  -1 -19    0.50    1.81
   1   1 -19   -0.23    1.74
   1  -1 -19    4.62    4.34
   1  -1 -18   -1.25    1.98
  -1  -1  18    2.91    4.12
   1   1 -18    1.98    3.21
   1  -1 -18    8.05    4.35
   1   1 -18    7.97    6.44
  -1   1  18    6.30    4.91
  -1  -1  17   -1.37    1.45
   1  -1 -17    2.52    3.69
   1   1 -17    1.00    1.91
  -1   1  17    0.20    0.68
   1  -1 -17    2.20    1.79
   1   1 -17    2.52    2.86
  -1  -1  16    6.86    4.48
   1  -1 -16   -4.55    3.44
   1  -1 -16   -1.04    1.74
   1   1 -16   -3.68    2.94
  -1   1  16   -1.33    1.28
   1   1 -16    0.35    1.65
  -1   1  15   72.51   15.04
   1   1 -15   84.40   16.67
   1   1 -15   72.48   15.66
   1  -1 -15   71.78   14.68
   1  -1 -15   67.20   14.90
  -1  -1  15   69.94   14.50
   1   1 -14   58.89   12.79
   1   1 -14   49.39   11.72
   1  -1 -14   45.62   11.31
  -1  -1  14   47.16   11.27
   1  -1 -14   42.72   11.27
  -1   1  14   43.73   11.04
  -1   1  13  106.98   17.85
   1   1 -13  122.67   20.11
   1   1 -13  112.35   18.48
   1  -1 -13   92.16   17.07
  -1  -1  13  105.62   17.31
   1  -1 -13  111.60   17.96
   1   1 -12  253.23   25.26
  -1  -1  12  196.35   21.72
   1  -1 -12  244.64   25.03
   1  -1 -12  246.76   24.30
  -1   1  12  212.58   23.18
   1   1 -12  254.41   25.39
   1   1 -11    7.79    2.99
  -1  -1  11   17.42    5.78
   1   1 -11   10.34    5.06
   1   1 -11    7.87    3.58
  -1   1  11   19.33    6.20
   1  -1 -11   16.19    6.00
   1  -1 -11   12.42    5.00
   1  -1 -10   29.87    7.72
  -1   1  10   39.10    8.41
  -1  -1  10   36.03    7.61
   1   1 -10   17.84    4.61
   1   1 -10   36.19    8.74
   1   1 -10   33.10    7.75
   1  -1 -10   36.92    8.11
   1   1  -9   79.80   17.04
   1   1  -9  130.54   17.64
   1  -1  -9  235.72   23.67
   1   1  -9  236.16   24.04
  -1  -1   9  212.43   21.71
   1  -1  -9  235.43   23.64
  -1   1   9  235.89   23.40
   1   1  -9  222.04   24.22
   1  -1  -8    6.50    2.65
   1   1  -8    8.80    4.37
  -1   1   8    9.44    4.04
  -1  -1   8    7.15    2.85
   1   1  -8    8.54    3.46
   1   1  -8    6.57    2.71
   1  -1  -8   14.53    4.67
   1   1  -8    1.05    1.46
   1   1  -7  161.46   20.29
   1   1  -7  247.00   25.05
  -1   1   7  245.02   24.10
  -1  -1   7  217.28   21.92
   1  -1  -7  210.70   22.54
   1   1  -7  247.87   23.67
   1   1  -7  105.30   19.55
   1  -1  -7  260.96   24.33
   1  -1  -6  149.65   17.03
  -1   1   6  152.18   17.47
   1   1  -6  162.37   18.71
   1  -1  -6  136.57   16.17
   1   1  -6   88.17   14.63
   1  -1  -6  177.21   19.26
   1   1  -6  143.89   16.38
   1   1  -6  111.17   14.86
  -1  -1   6  132.58   15.44
   1   1  -5  116.53   14.41
   1   1  -5  145.73   17.34
   1   1  -5  135.91   14.80
   1  -1  -5  135.58   15.46
  -1   1   5  130.50   15.93
   1  -1  -5  105.01   13.74
  -1  -1   5  114.14   13.94
   1   1  -5  105.01   14.47
   1  -1  -5  159.22   17.85
   1   1  -4  261.74   29.72
   1  -1  -4  342.46   31.92
  -1  -1   4  322.21   30.04
  -1   1   4  361.53   33.09
   1  -1  -4  339.57   30.87
   1   1  -4  285.12   28.96
   1   1  -4  292.15   30.57
   1   1  -4  360.92   33.32
   1  -1  -4  277.24   28.76
   1   1  -3  568.05   44.34
   1  -1  -3  479.79   42.16
   1  -1  -3  560.62   45.35
  -1  -1   3  234.65   40.99
   1  -1  -3  600.65   44.96
   1   1  -3  607.24   47.53
   1   1  -3  503.75   44.58
   1   1  -3  468.79   44.59
  -1  -1   3  544.40   44.86
   1   1  -3  564.55   42.80
   1  -1  -3  610.35   45.87
  -1  -1   2  105.09   13.69
   1  -1  -2  200.57   16.72
  -1  -1   2   79.71   13.00
   1  -1  -2  172.31   16.97
   1   1  -2  156.26   16.54
   1  -1  -2  184.09   17.26
   1   1  -2  178.72   14.27
   1   1  -2  179.47   16.47
   1   1  -2  203.32   17.87
   1   1  -2  226.67   19.91
   1  -1  -1  129.20   13.43
   1   1  -1  162.36   11.65
  -1  -1   1   69.96   10.08
   1   1  -1  130.64   13.82
   1   1  -1  156.37   14.35
   1  -1  -1  149.62   13.37
   1  -1  -1  128.83   14.03
  -1  -1   1   72.25   10.02
   1   1  -1  118.01   12.77
   1   1  -1  166.90   16.31
  -1  -1   1  136.30   13.72
   1  -1   0  604.68   48.99
   1   1   0  615.42   45.92
  -1   1   0  529.40   47.70
  -1  -1   0  692.00   49.08
   1   1   0  580.97   48.62
   1   1   0  622.19   49.85
   1  -1   0  665.54   48.81
   1  -1   0  530.78   45.97
   1   1   0  685.78   50.26
  -1  -1   0  342.07   45.24
   1  -1   0  611.48   49.73
   1   1   1 8426.76  684.55
  -1  -1  -1 9809.75  686.85
   1   1   1 8490.07  687.34
   1  -1   1 8561.11  688.24
   1   1   1 8625.04  686.55
   1  -1   1 9999.00  687.54
   1  -1   1 8685.35  687.51
   1   1   1 9835.23  689.02
  -1   1  -1 8493.93  685.55
   1   1   1 9250.48  688.81
   1  -1   1 7578.00  685.20
  -1   1  -2 8320.84  609.63
   1   1   2 8020.35  610.49
   1   1   2 8589.84  611.72
  -1  -1  -2 7970.44  609.33
   1  -1   2 7694.22  611.13
   1   1   2 8516.19  611.85
  -1  -1  -2 8712.08  609.06
   1  -1   2 8236.46  610.70
   1  -1   2 6389.53  608.80
   1   1   2 7536.36  608.71
  -1  -1  -3 2356.52  183.05
   1   1   3 2158.34  183.07
  -1  -1  -3 2156.95  181.08
   1   1   3 2147.33  183.41
   1   1   3 2136.54  184.25
   1   1   3 1973.84  180.95
  -1   1  -3 2313.17  183.21
   1  -1   3 2109.15  183.47
  -1  -1  -4  185.59   17.62
   1   1   4  149.91   16.36
  -1  -1  -4  150.81   14.67
   1   1   4  125.15   14.14
   1   1   4  145.15   16.39
   1   1   4  150.08   16.83
   1  -1   4  161.84   17.07
  -1   1  -4  174.21   17.58
   1  -1   5  103.27   12.68
   1   1   5   88.67   11.95
   1   1   5   90.76   11.89
   1   1   5   80.75   11.34
  -1   1  -5  122.17   14.01
  -1  -1  -5  120.49   13.78
   1   1   6  115.53   13.40
   1  -1   6  135.46   14.50
  -1   1  -6  159.35   16.88
  -1  -1  -6  165.63   16.88
   1   1   6   59.81   11.22
   1   1   7    2.40    1.34
  -1  -1  -7    2.09    1.87
  -1   1  -7    4.29    2.17
   1  -1   7    1.35    1.75
   1   1   8  104.94   13.60
  -1   1  -8   83.85   12.78
   1   1   8   54.67    7.63
   1  -1   8   74.66    9.76
  -1  -1  -8  103.62   13.40
   1   1   9   82.18   12.44
   1   1   9   38.39    5.96
  -1   1  -9   87.43   13.44
  -1   1  -9   35.26    6.20
  -1  -1  -9   93.26   13.50
  -1   1 -10   70.96   12.61
   1   1  10   38.14    5.65
  -1  -1 -10   74.60   12.22
   1   1  10   82.87   12.78
  -1   1 -10   34.95    6.39
  -1   1 -11   54.67   12.70
  -1  -1 -11   61.76   11.97
  -1   1 -11   26.22    5.65
   1   1  11   59.89   10.87
   1   1  12   28.52    8.25
  -1  -1 -12   10.72    5.08
  -1  -1 -12   21.44    6.17
  -1   1 -12   21.05    6.44
  -1   1 -12    6.59    2.85
  -1   1 -13    4.69    4.12
   1   1  13    5.74    5.52
  -1  -1 -13    7.84    4.44
  -1  -1 -13    4.76    3.23
   1   1  14   23.86    7.74
  -1  -1 -14   26.57    9.73
  -1  -1 -14   19.67    6.97
  -1   1 -14   29.14    8.38
  -1   1 -14   13.89    5.13
  -1  -1 -15    1.47    3.03
  -1  -1 -15   13.80    8.09
  -1   1 -15    7.57    5.63
   1   1  15   12.62    6.28
  -1   1 -15    3.11    2.92
  -1  -1 -16   10.05    5.94
   1   1  16    6.72    3.94
  -1   1 -16    8.66    6.49
  -1  -1 -16    4.60    3.18
  -1   1 -16    4.38    3.76
   1   1  17   50.43   13.33
  -1   1 -17   21.91    8.18
  -1  -1 -17   51.47   15.05
  -1   1 -17   50.12   14.66
  -1  -1 -17   40.86   10.85
  -1  -1 -18    3.86    5.10
  -1  -1 -18   -0.40    1.08
  -1   1 -18    5.88    4.50
  -1   1 -18    6.14    5.96
  -1  -1 -19    0.11    4.95
  -1   1 -19    4.23    3.28
  -1   1 -19    4.22    4.91
  -1  -1 -19   -0.04    1.29
  -1   1 -20    2.57    3.94
  -1  -1 -20    1.31    4.03
  -1  -1 -20    3.50    4.04
  -1  -1 -21    5.64    6.34
  -1  -1 -21    0.80    1.68
  -1   1 -21    5.86    6.96
  -1  -1 -22   -3.44    4.30
  -1   1 -22   -0.13    2.21
  -1  -1 -22    5.22    5.39
   1  -1  22   -4.21    3.70
   1  -1  23   -1.91    2.59
  -1   1 -23   -1.45    2.84
  -1  -1 -23   -6.14    5.93
   1  -2 -24    3.53    5.10
  -1  -2  24   -0.24    4.03
   1   2 -24   -1.19    2.45
   1  -2 -23   -0.31    3.62
  -1   2  23   -1.36    4.24
   1  -2 -23    1.33    1.62
  -1  -2  23    0.23    3.13
   1   2 -23   -2.57    3.48
   1   2 -23   -4.70    4.78
  -1   2  22    2.69    5.94
   1  -2 -22    1.75    5.29
   1  -2 -22   -2.42    3.17
   1   2 -22   11.04    8.03
   1   2 -22    2.23    3.54
  -1  -2  22   -2.84    3.49
  -1   2  21    5.99    7.01
   1  -2 -21    0.29    2.38
   1   2 -21   -0.06    2.74
   1   2 -21    3.28    4.39
   1  -2 -21    3.71    6.38
  -1  -2  20    0.86    0.76
   1  -2 -20    0.85    3.38
   1  -2 -20    0.31    1.13
   1   2 -20   -0.47    1.37
   1   2 -20    1.36    1.40
  -1   2  20    3.07    3.45
   1   2 -19   -4.61    4.16
   1   2 -19    0.40    1.29
  -1   2  19   -2.90    0.90
   1  -2 -19   -0.42    1.47
  -1  -2  19   -0.07    1.00
   1  -2 -19   -8.51    5.65
   1   2 -18    8.46    5.10
   1  -2 -18    3.37    3.90
   1   2 -18    4.01    3.96
   1  -2 -18    7.13    5.91
  -1   2  18    2.25    2.65
  -1  -2  18   10.58    6.82
   1  -2 -17   -0.27    0.94
   1  -2 -17   -4.81    3.70
  -1  -2  17   -1.32    1.62
   1   2 -17   -7.59    4.86
  -1   2  17    0.71    2.15
   1   2 -17    1.53    2.73
   1  -2 -16   25.57    8.69
   1   2 -16   20.85    8.22
   1   2 -16   32.31   10.10
  -1   2  16   27.67    9.19
  -1  -2  16   31.08    9.51
   1  -2 -16   32.19    9.64
   1   2 -15   21.96    8.36
  -1   2  15    9.26    4.86
   1  -2 -15   20.95    7.44
   1   2 -15   15.68    7.37
  -1  -2  15   11.77    6.53
   1  -2 -15   29.24    8.67
   1  -2 -14  311.89   36.66
   1   2 -14  310.51   37.62
  -1   2  14  280.03   36.32
   1   2 -14  292.97   36.87
  -1  -2  14  291.32   35.70
   1  -2 -14  278.21   36.40
  -1   2  13  197.70   23.01
  -1  -2  13  180.50   20.81
   1  -2 -13  202.17   22.30
   1   2 -13  197.82   23.53
   1   2 -13  217.52   24.27
   1  -2 -13  206.08   23.59
   1   2 -12   13.73    6.22
  -1  -2  12   14.07    5.04
   1   2 -12    7.65    2.76
   1  -2 -12   16.70    6.29
   1   2 -12   10.01    5.11
   1   2 -12    1.62    1.57
   1  -2 -12   13.57    5.84
  -1   2  12   15.15    5.83
  -1  -2  11   95.18   13.47
   1   2 -11   85.60   14.30
  -1   2  11   95.92   14.81
   1   2 -11  116.46   16.50
   1  -2 -11  100.60   15.27
   1   2 -11   20.05    7.67
   1   2 -11   59.63    9.54
   1  -2 -11  117.48   15.80
  -1  -2  10   36.68    7.59
   1  -2 -10   42.66    9.36
   1  -2 -10   43.35    9.06
   1   2 -10   43.39    9.84
   1   2 -10    9.80    3.96
  -1   2  10   37.57    8.63
   1   2 -10   47.34    9.67
   1   2 -10   26.34    5.76
   1   2  -9   10.71    4.20
   1  -2  -9   11.06    4.95
   1   2  -9   11.58    4.30
  -1  -2   9    9.35    3.45
   1   2  -9    4.00    2.69
  -1   2   9   10.77    4.62
   1  -2  -9    8.46    3.53
   1   2  -9    7.56    2.76
   1  -2  -8  893.22   68.94
  -1  -2   8  746.05   65.87
   1   2  -8  879.06   71.76
   1   2  -8  635.43   64.78
  -1   2   8  798.05   68.95
   1   2  -8  818.19   68.81
   1  -2  -8  819.10   68.60
   1   2  -7  222.35   31.46
   1   2  -7  360.36   36.87
   1  -2  -7  392.16   37.51
   1   2  -7  371.11   35.00
   1  -2  -7  393.61   34.77
   1   2  -7  288.69   31.95
  -1  -2   7  324.87   32.03
  -1   2   7  385.57   36.00
   1  -2  -7  329.92   33.67
   1  -2  -6   59.00   10.06
   1   2  -6   44.60    7.68
   1   2  -6   40.28    7.21
   1   2  -6   26.76    7.14
   1  -2  -6   42.78    7.60
  -1   2   6   40.70    8.24
   1  -2  -6   42.02    7.37
   1   2  -6   47.88    9.64
  -1  -2   6   40.47    6.38
   1  -2  -5   92.38   13.16
   1  -2  -5   96.12   11.77
   1   2  -5   79.38   11.06
   1   2  -5   62.42   10.67
  -1  -2   5   77.13    9.62
   1   2  -5   87.58   13.88
   1   2  -5   76.80   10.96
  -1   2   5   96.60   13.27
   1  -2  -5   78.65   10.98
   1   2  -4  205.30   24.03
   1   2  -4  267.68   27.69
   1  -2  -4  257.16   24.15
   1   2  -4  207.70   23.57
  -1  -2   4  223.23   22.07
   1   2  -4  212.62   23.32
  -1   2   4  261.54   27.00
   1  -2  -4  241.31   25.67
   1   2  -3  258.11   28.70
   1   2  -3  263.56   28.25
   1   2  -3  293.86   31.28
   1   2  -3  264.28   27.08
  -1  -2   3  304.95   30.52
   1  -2  -3  259.11   29.01
   1  -2  -3  305.86   27.92
   1  -2  -3  277.55   28.89
   1   2  -3  313.73   28.08
  -1  -2   3  279.85   26.71
  -1   2   3  307.11   31.42
   1   2  -2  141.96   15.19
   1  -2  -2  106.72   14.71
  -1  -2   2  132.13   15.71
   1  -2  -2  116.72   14.59
   1  -2  -2  125.41   13.32
   1   2  -2  133.25   16.82
   1   2  -2  104.65   13.02
   1   2  -2  115.79   13.28
   1   2  -2  118.47   14.38
   1   2  -1  527.24   38.22
   1  -2  -1  411.56   37.40
   1   2  -1  372.18   35.43
  -1  -2   1  584.48   39.36
   1   2  -1  472.82   37.88
   1  -2  -1  417.25   37.38
  -1  -2   1  340.04   34.90
  -1  -2   1  293.15   32.71
   1  -2  -1  463.86   35.35
   1  -2   0  220.97   21.85
   1  -2   0  216.04   21.57
  -1  -2   0  277.78   21.81
  -1   2   0  111.58   17.25
   1   2   0  201.46   19.61
   1   2   0  281.34   22.46
   1   2   0  273.02   22.08
   1  -2   0  234.00   19.03
   1   2   1  286.31   22.33
  -1   2  -1  159.73   18.97
   1  -2   1  292.31   20.87
   1  -2   1  307.13   24.43
  -1  -2  -1  392.01   24.61
   1   2   1  352.97   25.15
   1   2   1  399.15   25.55
   1  -2   1  256.06   23.59
  -1   2  -1  119.43   18.64
  -1   2  -1  302.27   22.84
   1   2   2   23.18    4.45
  -1   2  -2    4.96    1.49
   1   2   2   23.22    4.95
   1   2   2   21.75    3.72
   1  -2   2   19.94    4.71
  -1   2  -2   11.55    1.91
  -1  -2  -2   19.77    3.67
   1  -2   2   16.46    4.27
  -1   2  -2   21.47    4.09
   1  -2   3   19.90    4.31
  -1   2  -3   15.58    3.69
   1   2   3   19.70    3.93
   1   2   3   16.74    3.99
  -1   2  -3    3.23    1.35
  -1  -2  -3   16.09    3.42
   1   2   3   15.71    3.28
   1  -2   3   12.46    3.63
  -1   2  -4  407.04   37.85
   1   2   4  445.63   37.25
   1  -2   4  368.07   32.65
  -1  -2  -4  428.78   38.01
   1   2   4  432.76   37.77
   1  -2   4  340.84   36.33
  -1  -2  -4  378.26   35.38
   1   2   4  350.75   35.69
  -1  -2  -5   80.10   11.10
   1   2   5   68.08    9.80
   1  -2   5   67.11    9.90
   1  -2   5   76.40    7.27
  -1  -2  -5   67.36    8.93
   1   2   5   83.50   11.39
  -1   2  -5   84.60   11.57
   1   2   5   82.96   10.65
  -1   2  -5   55.74    7.03
  -1   2  -6    4.89    1.51
  -1  -2  -6    6.61    2.74
   1   2   6    9.48    3.72
   1   2   6   12.96    3.56
   1   2   6    8.59    2.74
   1  -2   6    6.10    1.71
   1  -2   6    7.73    3.30
  -1   2  -6    5.66    1.69
   1   2   7   34.43    7.09
   1   2   7   29.66    5.61
  -1  -2  -7   36.02    7.82
   1   2   7   31.17    5.96
   1  -2   7   34.32    6.40
  -1   2  -7   47.68    9.25
  -1   2  -7   21.42    4.00
   1  -2   7   22.80    4.46
   1   2   8   43.11    7.69
   1   2   8   57.96    8.77
   1  -2   8   66.37    9.88
   1   2   8   80.10   12.22
  -1  -2  -8   71.57   11.75
   1  -2   8   46.14    7.73
  -1   2  -8   67.83   12.30
  -1   2  -8   47.74    7.13
  -1   2  -9   28.58    5.29
   1   2   9   29.80    5.87
   1   2   9   41.31    8.37
   1  -2   9   38.37    7.45
   1   2   9   12.86    4.00
  -1  -2  -9   44.41    9.48
  -1   2  -9   35.42    8.21
   1  -2  10   92.76   13.14
   1   2  10   43.92    8.45
   1   2  10  140.49   17.33
  -1   2 -10  152.77   20.38
   1   2  10   82.16   10.97
  -1   2 -10   95.52   11.50
  -1  -2 -10  159.04   19.36
   1   2  11    4.56    3.43
   1  -2  11    0.98    0.81
  -1   2 -11    2.27    2.73
  -1   2 -11    4.12    2.43
  -1  -2 -11    4.71    2.97
   1   2  11    1.29    0.91
  -1   2 -12   -0.19    1.32
  -1  -2 -12   -2.63    3.58
   1   2  12    3.43    4.08
   1   2  12    0.99    0.85
  -1   2 -13    1.18    3.16
   1   2  13    0.87    1.78
  -1  -2 -13    0.73    1.30
  -1   2 -13    3.58    2.57
  -1  -2 -14   18.89    8.19
  -1   2 -14   17.40    6.94
  -1  -2 -14   16.90    6.58
   1   2  14   22.61    7.11
  -1   2 -14   12.79    4.85
  -1  -2 -15   36.63    9.85
  -1   2 -15   25.77    7.49
   1   2  15   45.67   11.68
  -1   2 -15   50.68   14.12
  -1  -2 -15   41.00   12.20
  -1  -2 -16   27.27   10.14
   1   2  16   24.95    8.86
  -1   2 -16   12.47    5.48
  -1   2 -16   34.26   10.52
  -1  -2 -16   16.69    7.42
  -1  -2 -17    4.06    4.30
  -1   2 -17   13.94    7.73
  -1   2 -17    8.15    4.10
   1   2  17    5.18    5.74
  -1  -2 -17    6.19    5.43
  -1  -2 -18    2.65    3.31
   1   2  18    2.21    2.82
  -1   2 -18    9.95    8.39
  -1  -2 -18    2.02    2.73
   1   2  19    1.12    3.07
   1  -2  19    0.09    2.00
  -1  -2 -19    4.19    6.81
  -1  -2 -19    2.71    2.49
  -1   2 -19   10.51    7.46
  -1  -2 -20    0.42    1.50
  -1  -2 -20    1.60    6.20
  -1   2 -20   -0.24    3.85
   1  -2  20    0.95    2.83
  -1   2 -21    0.08    1.36
  -1  -2 -21    3.00    4.47
   1  -2  21   -0.23    0.59
  -1  -2 -21    2.58    3.39
  -1  -2 -22    7.95    7.40
  -1   2 -22    4.72    6.51
  -1  -2 -22    1.81    3.38
   1  -2  22    6.18    5.07
  -1   2 -23    1.66    4.15
   1  -2  23   -2.32    2.86
  -1  -2 -23    3.31    1.71
  -1  -2 -23    0.18    2.28
  -1  -3  24   -2.94    3.91
   1   3 -23   -5.73    5.32
   1  -3 -23   -1.49    2.59
  -1   3  23   -0.58    4.13
  -1  -3  23    1.31    3.90
   1   3 -23    2.84    3.95
   1  -3 -23   -0.19    2.59
  -1  -3  23   -2.20    3.30
   1  -3 -22   -0.70    1.82
   1   3 -22    2.43    3.00
  -1  -3  22    1.88    2.14
   1   3 -22    0.98    2.12
   1  -3 -22   -0.16    2.94
  -1   3  22    2.56    4.41
   1  -3 -21   -5.50    4.93
  -1   3  21    4.80    5.85
   1   3 -21   -4.56    4.41
   1  -3 -21   -2.26    2.98
  -1  -3  21   -1.59    1.64
   1   3 -21    0.91    4.93
   1   3 -20    5.58    5.54
  -1   3  20    0.28    2.78
   1   3 -20   -5.63    4.75
   1  -3 -20   -5.40    4.72
   1  -3 -20    0.92    4.45
  -1  -3  20   -0.28    2.80
   1  -3 -19   -5.39    4.53
  -1  -3  19   -0.36    1.26
   1  -3 -19   -0.99    2.57
   1   3 -19    0.68    3.24
  -1   3  19   -4.01    5.19
   1   3 -19    3.67    4.43
   1   3 -18    7.59    5.52
   1   3 -18    6.75    6.55
   1  -3 -18    3.79    4.67
  -1  -3  18    2.90    2.95
  -1   3  18    2.30    0.78
   1  -3 -18    9.86    6.89
   1  -3 -17    8.31    5.31
  -1  -3  17    7.04    4.81
   1   3 -17    6.63    6.06
  -1   3  17    3.94    2.90
   1   3 -17    5.86    5.50
   1  -3 -17    3.57    5.03
  -1   3  16   29.77    9.89
   1   3 -16   31.96    9.75
   1  -3 -16   34.97   10.58
  -1  -3  16   30.58    9.64
   1  -3 -16   30.41   10.17
   1   3 -16   32.03   10.38
   1   3 -15   40.65   11.03
   1   3 -15   33.73   10.89
  -1   3  15   45.07   11.38
   1  -3 -15   42.30   11.65
  -1  -3  15   42.29   10.54
   1  -3 -15   32.66   10.54
  -1   3  14   12.46    5.71
   1   3 -14   10.14    6.12
   1   3 -14   23.37    8.43
   1  -3 -14   14.93    7.01
  -1  -3  14   13.64    5.45
   1  -3 -14   16.42    6.92
   1   3 -13   54.34   12.25
   1   3 -13   37.40   10.36
   1   3 -13   18.63    5.09
  -1  -3  13   34.97    8.63
   1  -3 -13   40.67    9.70
   1  -3 -13   42.05   10.62
  -1   3  13   42.53   10.28
  -1  -3  12    6.31    3.46
   1   3 -12    8.79    3.18
  -1   3  12    5.61    2.56
   1  -3 -12   10.94    5.23
   1   3 -12   10.25    5.88
   1   3 -12   12.27    5.40
   1  -3 -12   11.28    5.50
   1   3 -12    3.74    2.70
   1   3 -11   19.26    6.22
   1   3 -11   23.97    8.01
   1   3 -11    4.92    2.95
   1  -3 -11   21.27    7.08
   1   3 -11   13.77    4.08
  -1  -3  11   18.09    5.44
  -1   3  11   16.10    5.46
   1  -3 -11   19.39    6.13
   1   3 -10   46.99   10.37
   1  -3 -10   48.58   10.04
   1   3 -10   41.56    7.58
   1   3 -10   26.53    7.87
  -1   3  10   47.05   10.39
   1   3 -10   51.02   11.36
  -1  -3  10   27.55    6.89
   1  -3 -10   66.65   11.22
  -1  -3   9    1.98    1.41
   1  -3  -9    3.08    2.72
   1  -3  -9    2.24    1.45
   1  -3  -9    3.23    0.85
  -1   3   9    1.71    1.33
   1   3  -9    0.53    0.82
   1   3  -9    2.31    1.81
   1   3  -9    0.01    1.37
   1   3  -9    0.04    0.71
   1  -3  -8    6.88    4.26
   1  -3  -8    7.34    3.59
   1   3  -8   15.80    5.20
  -1  -3   8    7.98    3.06
   1   3  -8   13.43    5.37
   1   3  -8    7.85    3.57
   1  -3  -8   10.32    4.41
   1   3  -8    4.39    2.35
  -1   3   8   13.27    5.04
   1  -3  -7   51.79    8.68
   1  -3  -7   60.47   11.05
  -1   3   7   53.91   10.03
  -1  -3   7   25.11    5.68
   1   3  -7   35.15    7.85
  -1  -3   7   54.58   10.58
   1   3  -7   51.27    8.24
   1   3  -7   53.28   10.96
   1   3  -7   43.34    9.24
   1  -3  -7   46.33    8.79
   1  -3  -6  128.14   16.72
   1   3  -6   99.46   14.89
   1  -3  -6  154.36   19.45
  -1  -3   6  109.17   13.38
   1   3  -6  140.84   19.69
  -1   3   6  139.67   18.28
   1   3  -6  119.91   15.41
   1  -3  -6  135.24   16.05
   1   3  -6  137.08   17.08
  -1  -3   6  168.78   20.15
   1   3  -5 1436.30  123.91
  -1  -3   5 1223.49  119.85
   1  -3  -5 1485.74  126.84
   1   3  -5 1466.05  124.50
  -1  -3   5 1758.29  128.95
   1   3  -5 1389.79  123.42
  -1   3   5 1572.98  126.88
   1   3  -5 1462.84  128.08
   1  -3  -5 1470.10  123.32
  -1   3   4  258.67   27.06
  -1  -3   4  186.82   19.60
   1  -3  -4  222.05   22.55
   1  -3  -4  213.93   24.98
   1   3  -4  209.22   23.29
   1   3  -4  215.87   23.29
  -1  -3   4  272.77   27.01
   1   3  -4  253.16   27.92
   1   3  -4  261.27   24.69
  -1   3   3  145.74   18.53
   1   3  -3  135.39   15.88
   1   3  -3  116.08   13.45
   1   3  -3  157.97   19.73
   1   3  -3  122.69   15.51
   1   3  -3  137.97   15.87
   1  -3  -3  123.38   16.71
   1  -3  -3  142.48   14.72
  -1  -3   3  165.81   18.42
  -1  -3   3  115.59   11.92
   1   3  -2   48.39    7.60
   1  -3  -2   38.80    7.38
   1   3  -2   34.96    5.71
   1  -3  -2   52.19    6.67
   1  -3  -2   39.83    7.81
  -1  -3   2   37.90    7.73
   1   3  -2   39.48    7.35
  -1  -3   1   36.20    6.61
   1  -3  -1   29.83    4.66
   1   3  -1   21.94    4.34
   1  -3  -1   26.48    6.33
   1   3  -1   36.19    6.51
   1   3  -1   32.87    6.45
   1  -3  -1   22.72    5.17
   1  -3   0   16.84    2.91
   1   3   0   20.23    4.69
  -1  -3   0    8.54    2.34
   1   3   0   13.30    3.06
   1  -3   0   13.89    4.60
   1  -3   0   12.34    3.71
   1   3   0   20.30    4.44
  -1  -3   0   28.74    5.62
   1   3   1   54.76    8.40
   1   3   1   41.49    6.47
   1   3   1   58.70    8.76
   1  -3   1   57.48    9.57
  -1  -3  -1   50.02    6.90
   1  -3   1   42.18    7.49
   1  -3   1   45.52    5.55
  -1  -3  -1   64.58    8.64
  -1   3  -2   22.22    5.17
   1  -3   2   14.31    4.23
  -1  -3  -2   22.04    4.77
   1   3   2   12.57    2.03
   1   3   2   17.35    4.29
   1   3   2   15.62    4.42
   1  -3   2   15.33    2.72
   1  -3   2   15.42    4.05
   1   3   2   15.12    3.37
   1   3   3   15.60    2.90
   1   3   3   21.83    4.83
   1   3   3   23.13    4.32
   1  -3   3   17.89    4.42
   1   3   3   20.63    5.05
   1  -3   3   27.51    6.30
   1  -3   3   23.73    3.29
  -1   3  -3   12.06    2.97
  -1  -3  -3   24.81    5.08
  -1   3  -3   23.97    5.59
   1  -3   4  314.75   30.57
   1   3   4  332.85   29.55
   1   3   4  385.80   31.47
  -1   3  -4  386.13   33.22
   1   3   4  387.39   31.96
   1  -3   4  364.83   27.40
  -1  -3  -4  394.58   31.17
  -1   3  -4  156.62   26.73
   1   3   4  253.00   27.48
   1   3   4  384.38   31.46
  -1  -3  -5   53.03    8.06
  -1   3  -5   58.63   10.09
   1   3   5   52.30    8.56
   1  -3   5   37.30    7.79
   1   3   5   60.21    8.72
   1  -3   5   49.39    6.16
   1   3   5   46.13    8.15
  -1  -3  -5   51.46    9.36
   1   3   6  151.24   18.11
   1   3   6  141.91   16.60
   1  -3   6  127.45   17.55
  -1   3  -6  167.59   20.22
   1  -3   6  145.00   14.83
   1   3   6  137.12   17.33
  -1  -3  -6  184.40   20.44
   1  -3   7  275.42   30.53
   1   3   7  279.12   30.46
   1   3   7  359.38   33.19
  -1   3  -7  243.43   26.79
   1  -3   7  349.23   28.78
   1   3   7  321.39   30.32
  -1   3  -7  374.43   35.98
  -1  -3  -7  403.91   36.35
  -1   3  -8    8.98    4.99
   1   3   8    2.42    1.69
  -1  -3  -8    6.30    4.77
   1   3   8    1.98    1.37
   1  -3   8    3.39    1.78
  -1   3  -8    2.89    1.37
   1  -3   8    3.88    2.95
   1   3   8    2.51    1.48
  -1   3  -9   -0.54    2.23
   1  -3   9   -2.94    1.93
   1  -3   9    2.61    1.63
   1   3   9    3.11    1.85
   1   3   9    5.09    3.14
   1   3   9    6.11    2.95
  -1   3  -9    2.01    1.48
  -1  -3  -9   -0.72    0.93
  -1   3 -10   31.98    8.96
   1   3  10   19.94    5.03
  -1  -3 -10   30.72    9.36
   1   3  10   12.58    3.74
   1  -3  10   19.90    5.69
  -1   3 -10   15.52    4.07
   1  -3  10   18.96    4.55
   1   3  10   23.82    6.40
  -1  -3 -11   38.46   10.36
  -1   3 -11   23.46    5.33
   1   3  11   20.24    4.91
   1   3  11   15.56    4.19
  -1   3 -11   33.22    9.27
   1   3  11   24.17    7.03
   1  -3  11   19.68    5.89
   1  -3  11   26.55    5.95
   1   3  12    5.23    2.51
  -1   3 -12    3.61    3.65
  -1  -3 -12   13.35    6.04
   1   3  12    8.86    4.71
  -1   3 -12    4.56    2.19
   1   3  12    0.34    0.60
   1  -3  12    9.44    4.05
   1  -3  12    4.41    2.55
   1  -3  13    3.02    1.97
  -1   3 -13    2.75    0.68
  -1  -3 -13    1.84    2.24
   1   3  13    6.47    4.41
   1  -3  13    0.49    1.41
  -1   3 -13    1.14    1.06
  -1   3 -14    5.96    3.46
   1   3  14   19.44    7.28
   1  -3  14    8.30    4.60
   1  -3  14   10.80    4.29
  -1   3 -14   14.37    7.03
  -1  -3 -14   15.59    6.55
  -1   3 -15    9.49    6.84
  -1   3 -15    3.99    2.76
  -1  -3 -15    2.84    2.47
  -1  -3 -15    4.81    5.35
   1  -3  15    0.47    1.87
   1   3  15    2.81    2.07
  -1   3 -16   43.03   13.15
   1   3  16   44.81   12.04
   1  -3  16   26.08    8.23
  -1  -3 -16   39.96   11.73
  -1  -3 -16   47.63   14.56
  -1   3 -17    7.59    5.69
  -1  -3 -17    9.90    7.62
   1   3  17   20.10    8.23
  -1  -3 -17   12.75    6.16
   1  -3  17   10.48    5.31
  -1  -3 -18   17.71    7.96
  -1  -3 -18   23.71    9.65
   1  -3  18    7.98    5.17
  -1   3 -18   14.69    8.37
   1   3  18   19.11    9.38
   1  -3  19   -4.02    3.28
  -1   3 -19    4.50    3.65
   1   3  19   -1.63    4.23
  -1  -3 -19    1.85    4.27
  -1  -3 -19    3.35    5.18
  -1  -3 -20    0.00    0.13
  -1   3 -20   -4.56    4.62
  -1  -3 -20   -2.93    3.71
   1  -3  20    1.49    2.36
   1   3  20   -1.40    1.70
  -1  -3 -21   -4.99    5.00
   1  -3  21    0.01    1.06
  -1  -3 -21   -3.60    3.69
  -1   3 -21    1.63    4.43
  -1   3 -22    0.97    1.38
  -1  -3 -22   -4.66    4.99
   1  -3  22   -0.26    0.94
  -1  -3 -22    7.73    6.97
   1  -3  23   -3.10    3.33
  -1  -3 -23   -2.53    3.34
  -1  -3 -24   -6.11    5.36
  -1  -4  23    0.51    1.60
   1  -4 -23   -3.81    4.44
  -1   4  22    2.71    3.68
  -1  -4  22   -2.41    3.40
   1  -4 -22    3.61    4.61
   1   4 -22    3.88    4.80
   1  -4 -22    1.26    4.18
   1   4 -21    4.55    1.05
   1  -4 -21    1.38    4.40
  -1   4  21    0.92    4.79
   1   4 -21   -0.04    2.60
  -1  -4  21   -0.01    2.32
   1  -4 -21    2.43    6.05
   1  -4 -20    5.12    6.32
   1   4 -20   -5.23    4.68
  -1  -4  20    1.38    4.06
   1   4 -20    3.01    3.42
  -1   4  20    4.40    5.04
  -1  -4  20    0.53    0.77
   1  -4 -20    1.54    3.21
   1   4 -19   11.82    7.46
   1  -4 -19    5.13    3.40
  -1   4  19   21.02    9.27
   1   4 -19    7.63    6.21
   1  -4 -19   14.78    7.44
  -1  -4  19    9.56    6.53
  -1  -4  19    6.74    7.19
   1   4 -18    6.08    6.13
   1  -4 -18    0.54    2.08
   1   4 -18    0.62    1.14
   1  -4 -18    1.98    5.42
  -1  -4  18    5.06    4.85
  -1   4  18    1.93    1.47
  -1  -4  18    3.76    4.90
   1  -4 -17    7.93    5.77
  -1  -4  17    8.89    6.22
  -1   4  17    5.36    4.26
   1   4 -17    2.79    3.58
   1   4 -17   12.22    7.48
  -1  -4  17    2.31    3.74
   1  -4 -17    6.00    4.12
   1  -4 -16    3.40    3.13
  -1  -4  16    2.81    2.86
   1   4 -16    2.47    2.88
   1  -4 -16    8.70    5.25
   1   4 -16    5.22    3.21
  -1   4  16   10.18    5.70
  -1  -4  16    6.35    4.18
   1  -4 -15    5.52    3.85
  -1  -4  15    7.75    4.01
  -1   4  15    3.83    1.81
   1   4 -15    0.89    1.87
   1   4 -15    7.05    5.70
  -1  -4  15    1.78    3.66
   1  -4 -15    9.54    5.53
   1  -4 -14   38.16   10.84
  -1  -4  14   32.68    8.23
  -1   4  14   30.34    9.46
   1   4 -14   44.25   11.99
   1  -4 -14   35.04   10.17
   1   4 -14    4.00    3.66
  -1  -4  14   30.80   10.16
   1   4 -14   39.51   10.52
  -1   4  13    3.54    3.68
  -1  -4  13   -1.57    1.58
   1  -4 -13    4.30    3.38
   1   4 -13    2.52    3.40
   1   4 -13    0.09    0.45
   1   4 -13    0.65    2.13
  -1  -4  13    2.72    4.78
   1   4 -13    5.25    5.33
   1  -4 -13    6.72    5.06
   1   4 -12    9.53    4.47
  -1  -4  12    4.70    2.73
   1   4 -12    0.45    1.35
  -1   4  12   12.29    5.71
   1   4 -12   10.08    3.56
   1  -4 -12   16.05    7.40
   1  -4 -12   10.59    5.05
   1   4 -12    2.61    1.46
  -1  -4  12    4.35    4.61
   1   4 -11    5.67    3.28
  -1  -4  11    9.49    3.69
   1   4 -11    9.78    5.53
   1   4 -11   13.48    6.27
  -1  -4  11   13.30    7.47
   1   4 -11   10.42    3.60
  -1   4  11    9.85    4.11
   1  -4 -11   14.09    5.53
   1  -4 -11   12.89    5.43
   1   4 -10    9.36    4.27
   1  -4 -10    4.78    3.71
   1  -4 -10    5.25    3.59
  -1   4  10    6.33    3.94
  -1  -4  10    2.56    4.31
   1   4 -10    3.69    2.18
  -1  -4  10    5.16    2.57
   1   4 -10    4.57    3.16
   1   4 -10    5.47    2.78
   1  -4 -10    5.11    4.03
   1   4  -9   56.98   11.54
  -1   4   9   48.49   10.27
  -1  -4   9   54.69   12.24
  -1  -4   9   39.41    7.58
   1  -4  -9   53.02   10.03
   1   4  -9   39.08    8.09
   1  -4  -9   47.46   10.51
   1  -4  -9   64.52   13.70
   1   4  -9   53.22   11.89
   1   4  -9   33.27    7.90
   1   4  -8   -1.01    1.39
   1  -4  -8    0.34    3.02
   1  -4  -8    5.89    3.58
   1  -4  -8   -0.96    0.42
  -1  -4   8    0.87    1.16
  -1  -4   8    3.54    4.30
   1   4  -8    1.93    0.41
   1   4  -8   -0.25    1.31
   1   4  -8   -0.04    0.29
  -1   4   8    0.93    1.33
   1   4  -7    2.65    2.45
   1  -4  -7   -0.73    2.47
   1  -4  -7    1.36    2.53
  -1  -4   7    1.08    1.64
   1   4  -7    0.76    1.93
  -1  -4   7    0.01    0.97
   1  -4  -7    0.33    2.15
   1   4  -7    2.98    3.82
  -1   4   7    2.61    1.92
   1   4  -7   -0.24    1.04
   1  -4  -6   72.01   10.12
   1  -4  -6   68.74   12.86
   1   4  -6   69.59   12.53
   1   4  -6   64.48    9.85
   1   4  -6   29.90    5.97
   1   4  -6   72.99   10.63
  -1   4   6   68.60   11.78
  -1  -4   6   87.74   13.83
   1   4  -6   76.37   11.84
  -1  -4   6   58.39    7.08
   1   4  -5  176.01   22.26
   1   4  -5  146.00   17.61
  -1  -4   5  187.28   22.06
   1  -4  -5  158.17   20.09
   1   4  -5  138.60   17.39
  -1  -4   5  109.55   12.73
   1  -4  -5  148.19   16.77
  -1   4   5  160.20   19.99
   1   4  -5  170.20   19.33
   1   4  -4   87.57   12.36
  -1  -4   4   51.08    8.54
   1  -4  -4  100.52   11.58
   1  -4  -4  112.19   15.62
  -1   4   4  116.67   15.61
  -1  -4   4  127.31   16.02
   1   4  -4   92.47   12.50
   1   4  -4   97.72   13.44
   1   4  -3   44.67    5.96
   1  -4  -3   60.91   10.25
   1   4  -3   53.50    8.57
  -1  -4   3   27.62    5.25
   1  -4  -3   62.25    7.97
  -1   4   3   68.25   11.69
  -1  -4   3   59.64   10.24
   1   4  -3   54.40    8.67
  -1  -4   2  102.02   13.64
   1  -4  -2  192.59   20.85
   1  -4  -2  167.35   15.97
   1   4  -2  136.54   14.58
   1   4  -2  166.47   18.11
  -1  -4   2  237.25   22.03
   1  -4  -2  157.18   17.49
   1   4  -2  176.28   18.32
   1  -4  -1   61.98    9.56
   1   4  -1   62.07    7.99
  -1  -4   1   43.73    6.94
  -1  -4   1   62.51    7.88
   1   4  -1   78.28   10.72
   1   4  -1   77.97   10.74
   1  -4  -1   93.76   12.85
   1  -4  -1   79.10    8.60
  -1  -4   1  103.56   12.94
   1   4   0   51.32    8.06
   1  -4   0   57.24    9.93
   1   4   0   53.10    8.28
  -1  -4   0   43.73    5.43
   1  -4   0   40.92    7.17
  -1  -4   0   72.41   10.01
   1   4   0   35.68    5.56
  -1  -4   0   26.17    4.32
   1  -4   0   48.60    5.73
   1   4   1  386.74   34.30
   1   4   1  282.60   30.74
  -1  -4  -1  327.51   29.80
   1  -4   1  415.71   37.41
  -1  -4  -1  433.98   35.99
  -1  -4  -1  283.89   30.16
   1  -4   1  358.28   31.47
   1   4   1  392.41   34.80
   1  -4   1  318.76   33.17
   1  -4   1  339.48   29.78
   1   4   2  265.83   24.48
   1  -4   2  227.75   23.71
   1   4   2  221.92   21.69
  -1  -4  -2  224.79   20.10
   1  -4   2  287.58   27.02
  -1   4  -2  255.76   26.01
   1  -4   2  206.51   19.14
   1   4   2  264.46   24.99
  -1  -4  -2  326.25   26.18
   1   4   2  154.04   19.31
   1  -4   2  257.02   21.71
  -1   4  -3  674.19   53.63
   1   4   3  510.22   47.92
   1   4   3  389.73   45.97
   1  -4   3  725.01   54.68
   1  -4   3  462.63   49.15
   1  -4   3  570.35   47.40
   1   4   3  578.95   50.48
   1   4   3  564.56   48.89
  -1  -4  -3  653.39   51.61
   1   4   3  645.19   51.72
   1   4   4  174.30   19.33
   1  -4   4  132.19   18.11
   1   4   4  142.60   17.18
   1  -4   4  196.66   22.13
  -1  -4  -4  192.52   20.00
   1   4   4  166.32   18.56
  -1   4  -4  188.63   21.80
   1   4   4  184.13   20.16
   1  -4   4  160.84   16.63
   1   4   5   15.33    4.32
   1   4   5   11.38    3.61
   1   4   5   14.46    4.08
   1  -4   5   14.22    4.33
  -1   4  -5   17.06    5.44
  -1  -4  -5   15.14    4.79
   1  -4   5   15.21    3.13
   1   4   6  187.69   21.81
   1  -4   6  224.66   20.48
   1   4   6  205.07   22.84
  -1  -4  -6  215.01   23.12
   1   4   6  208.94   22.83
   1  -4   6  144.44   20.98
  -1   4  -6  216.39   25.83
  -1  -4  -7   35.17    8.36
   1   4   7   24.65    5.96
   1  -4   7   23.08    4.51
   1  -4   7   24.99    6.04
   1   4   7   22.67    5.68
   1   4   7   19.82    5.06
  -1   4  -7   28.97    7.88
   1  -4   8   60.86   10.24
  -1   4  -8   48.93    6.65
   1   4   8   49.13    8.66
   1  -4   8   81.34    9.47
   1   4   8   48.47    9.12
  -1  -4  -8   85.88   14.15
   1   4   8   72.12   11.53
  -1   4  -8   99.80   15.34
   1   4   9   19.22    5.61
   1  -4   9   18.75    4.36
  -1  -4  -9   23.85    7.53
   1  -4   9   18.33    5.05
  -1   4  -9    9.89    2.72
   1   4   9   13.92    4.25
  -1   4  -9   20.28    6.64
   1   4   9   13.03    3.83
  -1   4 -10    9.20    4.80
  -1  -4 -10    6.38    4.38
  -1   4 -10    4.22    1.86
   1   4  10    5.55    2.61
   1   4  10    4.10    1.91
   1   4  10    5.56    2.58
   1  -4  10    5.38    2.99
   1  -4  10    7.06    2.90
  -1   4 -11   33.66   10.06
   1   4  11   16.44    4.56
  -1  -4 -11   36.16   10.01
   1  -4  11   21.25    6.13
   1   4  11   26.31    6.00
   1   4  11   26.23    7.92
  -1   4 -11   14.32    4.10
   1  -4  11   16.54    4.66
  -1   4 -12   36.56   11.11
   1   4  12   19.26    5.12
  -1  -4 -12   46.53   11.98
   1   4  12   29.93    7.67
   1   4  12   28.48    6.36
  -1   4 -12   27.19    6.04
   1  -4  12   33.50    6.77
   1  -4  12   26.13    6.80
   1   4  13   43.96   11.05
   1  -4  13   31.45    8.01
  -1   4 -13   46.14   12.53
   1  -4  13   30.46    7.11
  -1  -4 -13   43.97   12.30
  -1  -4 -14    1.51    1.40
   1   4  14    2.07    3.12
  -1   4 -14    0.43    2.02
   1  -4  14    2.89    2.07
  -1  -4 -15    9.64    5.82
   1  -4  15    6.71    3.83
   1   4  15    5.82    3.14
  -1   4 -15   13.12    7.22
  -1  -4 -16    9.52    6.22
  -1  -4 -16   10.10    5.03
  -1   4 -16    5.68    5.39
   1   4  16   10.34    5.40
   1  -4  16    4.90    3.99
   1   4  17   16.53    8.46
  -1   4 -17   20.06    9.23
   1  -4  17    8.20    5.15
  -1  -4 -17    3.30    3.96
  -1  -4 -17   11.75    7.24
  -1  -4 -18    3.54    4.38
  -1   4 -18    4.94    4.24
  -1  -4 -18    5.15    6.13
   1   4  18   10.12    4.99
   1  -4  18    3.60    3.69
   1   4  19    1.90    4.41
  -1  -4 -19    3.50    2.69
  -1  -4 -19    3.76    4.97
   1  -4  19    0.16    1.05
  -1   4 -19    7.29    6.10
  -1   4 -20    0.70    3.42
  -1  -4 -20    4.08    4.37
   1   4  20    1.72    3.72
   1  -4  20   -3.23    3.07
  -1  -4 -20    1.89    2.51
  -1   4 -21    3.60    6.72
  -1  -4 -21   -0.14    3.25
  -1  -4 -21    1.17    4.29
   1  -4  21    0.02    2.29
   1   4  21    1.53    4.15
  -1   4 -22    2.94    5.31
  -1  -4 -22   -3.79    4.56
   1  -4  22    0.60    1.42
   1   4  22    5.55    4.99
  -1  -4 -22   -1.30    2.35
   1  -4  23    0.17    0.48
  -1  -4 -23    0.13    1.35
  -1  -5  23    2.77    5.20
   1  -5 -22    9.45    8.24
  -1   5  22    6.13    6.41
   1  -5 -22    9.33    6.87
   1   5 -22    0.09    1.37
  -1  -5  22    1.72    5.22
   1   5 -21    0.24    3.05
   1  -5 -21    1.91    4.49
  -1   5  21    5.16    5.34
  -1  -5  21    1.32    1.92
   1  -5 -21    2.13    3.53
   1   5 -20    0.22    1.90
  -1   5  20   -0.79    2.38
  -1  -5  20   -2.26    3.16
   1  -5 -20   -0.62    2.24
   1  -5 -20    2.47    3.53
   1  -5 -19    0.29    2.16
   1   5 -19    9.81    6.79
  -1   5  19    9.37    6.47
  -1  -5  19    7.97    6.22
   1  -5 -19    7.03    5.91
   1   5 -19    4.33    4.18
  -1   5  18   11.81    6.87
   1   5 -18   14.94    6.78
   1  -5 -18   10.74    6.58
   1   5 -18    7.04    4.37
  -1  -5  18    7.82    6.75
   1  -5 -18   21.21    9.47
   1   5 -17   -1.10    2.77
  -1   5  17    5.30    3.99
   1   5 -17    5.29    5.29
  -1  -5  17    2.74    6.15
   1  -5 -17    2.93    3.71
   1  -5 -17    5.84    4.79
   1   5 -16    9.06    5.29
  -1  -5  16    4.96    4.26
   1   5 -16    4.28    4.15
  -1  -5  16    2.83    2.99
  -1   5  16    5.44    4.33
   1  -5 -16    4.36    4.68
   1  -5 -16    7.24    5.80
   1   5 -15    5.00    3.50
  -1   5  15   12.78    6.42
  -1  -5  15    9.38    5.14
   1  -5 -15   17.10    7.41
  -1  -5  15   11.91    5.58
   1   5 -15   15.12    7.20
   1  -5 -15   14.01    6.89
   1   5 -14    2.47    3.66
  -1   5  14    1.09    1.31
   1   5 -14    2.84    1.40
  -1  -5  14    1.98    1.47
   1  -5 -14    3.26    3.23
  -1  -5  14    0.50    2.71
   1   5 -14   -0.26    1.13
   1  -5 -14   12.17    7.86
   1   5 -13   55.59   12.62
  -1  -5  13   47.95   13.10
   1  -5 -13   37.91   10.40
   1   5 -13   15.56    5.93
   1  -5 -13   41.25   10.89
  -1   5  13   42.86   10.62
   1   5 -13   31.67    7.74
   1   5 -13   60.21   13.50
  -1  -5  13   32.84    8.32
   1   5 -12    0.79    1.65
   1   5 -12   -0.18    3.31
  -1   5  12    4.70    2.82
  -1  -5  12    1.36    1.43
   1   5 -12    0.03    1.05
   1   5 -12    0.24    2.71
  -1  -5  12    0.99    3.19
   1  -5 -12    1.25    2.51
   1  -5 -12   -0.44    1.18
   1   5 -11    7.92    4.60
   1   5 -11    6.20    2.98
  -1  -5  11    4.99    2.65
   1  -5 -11    4.23    4.60
   1  -5 -11    9.08    4.76
   1   5 -11    1.36    0.96
   1  -5 -11    8.75    5.92
   1   5 -11    9.07    5.70
  -1  -5  11    9.20    5.25
  -1   5  11    4.44    3.28
   1  -5 -10    6.51    4.81
  -1  -5  10    2.06    1.30
   1  -5 -10    8.13    4.06
   1   5 -10    3.50    3.24
  -1   5  10    6.95    4.22
   1   5 -10    4.36    2.55
   1   5 -10   11.36    5.21
  -1  -5  10    7.50    4.90
   1  -5 -10    8.02    4.36
   1   5  -9   33.05   10.43
   1  -5  -9   21.65    6.93
   1   5  -9   23.44    7.11
   1  -5  -9   21.39    8.47
   1   5  -9   22.68    6.27
   1   5  -9   17.16    5.49
  -1   5   9   23.45    7.45
   1  -5  -9   21.09    6.45
  -1  -5   9   29.23    9.24
   1   5  -8    3.30    2.58
   1  -5  -8    1.92    3.92
   1   5  -8    3.13    2.30
   1  -5  -8    5.28    3.02
  -1  -5   8    7.74    4.38
   1   5  -8    3.24    3.87
  -1   5   8    5.30    3.67
   1   5  -8    9.24    4.56
   1   5  -7    3.51    1.58
   1   5  -7    8.72    3.72
  -1   5   7   10.42    4.21
   1  -5  -7   11.38    5.96
   1  -5  -7   12.98    4.51
   1   5  -7   19.01    6.95
   1   5  -7    8.84    3.46
   1   5  -7   11.46    5.21
  -1  -5   7   15.72    6.09
   1  -5  -6   56.20    9.46
   1  -5  -6   50.49   11.65
   1   5  -6   60.89   13.11
  -1   5   6   52.50   10.58
   1   5  -6   39.03    9.00
  -1  -5   6   66.48   12.95
   1   5  -6   39.13    8.55
   1   5  -6   50.78   10.64
   1  -5  -5   19.04    4.89
  -1  -5   5    5.36    1.75
  -1   5   5   18.05    6.09
  -1  -5   5   17.79    6.14
   1  -5  -5   13.88    4.89
   1   5  -5   13.60    3.97
   1   5  -5    7.58    3.17
   1   5  -5    8.92    4.71
   1  -5  -4    9.10    3.07
   1  -5  -4    5.50    3.79
   1   5  -4    8.41    3.56
   1   5  -4    6.00    3.07
  -1   5   4   10.65    4.36
   1   5  -4    4.49    3.23
  -1  -5   4   11.25    5.30
  -1  -5   4    3.80    1.23
   1  -5  -3   41.35    6.56
   1   5  -3   39.45    7.63
  -1  -5   3   24.21    3.80
  -1   5   3   42.34   10.60
   1  -5  -3   42.18    9.59
   1   5  -3   43.59    7.97
  -1  -5   3   58.76   10.62
   1   5  -2   15.70    3.09
  -1  -5   2   47.51    9.36
   1  -5  -2   18.91    6.40
   1   5  -2   25.64    6.39
  -1  -5   2   29.85    5.50
   1  -5  -2   22.67    4.56
   1   5  -2   30.37    6.80
  -1   5   2   34.99    9.16
  -1  -5   1   38.67    8.39
   1  -5  -1   25.97    4.55
   1   5  -1   14.98    3.25
   1   5  -1   24.85    5.71
   1  -5  -1   24.22    6.95
  -1  -5   1   19.37    4.14
   1  -5  -1   27.96    5.82
   1   5  -1   26.77    6.24
   1  -5   0  414.57   32.82
   1   5   0  323.75   28.98
  -1  -5   0  646.85   40.44
  -1  -5   0  415.55   30.71
   1  -5   0  585.06   40.89
  -1  -5   0  166.18   26.72
   1   5   0  493.04   35.32
   1  -5   0  424.09   29.98
   1   5   0  460.87   35.41
   1  -5   1   55.89    8.59
   1   5   1   51.73    7.15
  -1  -5  -1   53.30    7.19
   1   5   1   55.13    9.18
   1  -5   1   48.00    6.32
   1  -5   1   72.40    8.74
  -1  -5  -1   82.85   11.64
   1  -5   1   77.49   12.98
   1   5   1   63.14   10.25
  -1  -5  -1   36.34    6.05
  -1  -5  -2   32.63    5.22
   1  -5   2   33.45    6.64
   1   5   2   33.17    5.58
   1   5   2   33.90    7.27
   1   5   2   43.49    8.28
   1  -5   2   32.19    4.34
   1   5   2   34.16    5.59
   1  -5   2   48.90    9.48
   1  -5   2   40.54    6.29
  -1  -5  -2   55.89    9.38
   1   5   3   11.17    3.06
   1  -5   3    9.82    1.51
   1  -5   3   10.81    4.06
  -1  -5  -3    9.26    2.67
   1   5   3   10.41    3.54
  -1  -5  -3   14.16    4.38
   1  -5   3   11.49    4.67
   1   5   3    7.80    3.15
   1  -5   3   14.28    3.32
   1   5   3   12.81    3.11
   1  -5   3    4.95    1.55
  -1   5  -3   15.26    5.92
   1  -5   4    2.34    2.91
   1   5   4    1.39    1.85
   1   5   4    2.79    1.80
  -1  -5  -4    2.93    1.81
   1  -5   4    0.78    0.85
   1   5   4    1.08    1.55
  -1  -5  -4    3.96    2.97
   1   5   4    5.18    3.10
  -1   5  -4    1.86    2.30
   1  -5   4    2.22    1.64
   1  -5   5   19.64    4.95
   1  -5   5    5.82    2.78
   1   5   5   12.48    3.96
   1   5   5   14.75    4.98
  -1  -5  -5   19.59    5.73
   1   5   5    9.93    3.46
   1  -5   5   20.29    6.63
  -1   5  -5   17.52    5.76
   1   5   6    8.44    2.68
   1   5   6    9.43    3.36
  -1   5  -6   15.47    5.48
   1   5   6    8.37    3.22
   1  -5   6    4.73    2.43
  -1  -5  -6   10.33    4.06
   1  -5   6   10.21    2.94
   1  -5   6    9.68    5.43
   1  -5   7   17.79    5.70
   1   5   7   34.85    7.61
   1   5   7   26.63    6.29
  -1   5  -7   50.46   12.10
   1  -5   7   38.26    6.36
   1   5   7   40.43    7.67
   1  -5   8   21.59    4.44
   1  -5   8    3.20    2.25
  -1  -5  -8   17.13    6.39
   1   5   8    6.59    3.05
   1   5   8   10.68    3.68
   1   5   8    7.09    3.12
  -1   5  -8    6.41    4.45
   1   5   9   56.28    9.97
   1  -5   9  100.55   11.52
   1   5   9   70.48   12.18
   1   5   9   46.05    9.77
   1  -5   9   42.67    9.63
  -1  -5  -9  111.99   17.26
  -1   5  -9  101.78   17.14
   1  -5  10   36.23    7.06
  -1  -5 -10   61.41   13.01
   1   5  10   31.85    6.83
   1   5  10   32.02    7.56
   1   5  10   40.53    9.28
   1  -5  10   30.19    7.67
  -1   5 -10   54.72   12.23
  -1   5 -11  130.52   20.82
   1   5  11   66.13   11.48
   1  -5  11   76.32   13.20
   1   5  11   78.29   12.82
  -1  -5 -11  138.93   20.83
   1  -5  11   87.40   12.40
   1   5  11   83.62   14.70
  -1   5 -12   99.07   18.47
  -1  -5 -12  102.89   18.15
   1   5  12   60.37   10.93
   1  -5  12   92.90   12.38
   1   5  12   73.77   13.92
   1  -5  12   53.73   11.27
   1   5  12   46.46    9.44
  -1   5 -13   47.30   12.68
  -1  -5 -13   47.59   12.74
   1  -5  13   32.11    8.37
   1   5  13   30.98    9.03
  -1   5 -14   24.15   10.24
   1  -5  14   16.58    6.18
  -1  -5 -14   39.64   11.84
   1   5  14   24.73    8.26
  -1   5 -15   22.88    9.53
   1  -5  15    5.20    3.36
  -1  -5 -15   21.43    9.68
   1   5  15    8.05    5.26
  -1   5 -16    6.52    5.78
   1   5  16    1.60    1.83
  -1  -5 -16   -3.56    3.75
  -1  -5 -16   -0.53    2.86
   1  -5  16    0.54    1.33
  -1  -5 -17   -0.58    1.06
   1   5  17   -0.73    2.50
  -1  -5 -17    7.24    5.03
   1  -5  17   -2.79    2.60
   1  -5  18    0.74    2.18
  -1  -5 -18  -13.39    7.71
  -1   5 -18    4.64    4.73
  -1  -5 -18    2.24    2.49
   1   5  18    1.39    4.01
  -1  -5 -19    1.70    3.50
  -1   5 -19   -1.27    2.45
  -1  -5 -19    3.50    3.42
   1   5  19    6.68    5.87
   1  -5  19    1.06    2.54
  -1   5 -20   -0.18    0.96
  -1  -5 -20    6.58    7.66
   1   5  20    2.25    4.56
  -1  -5 -20   -6.28    5.61
   1  -5  20    0.81    2.53
  -1   5 -21    5.08    6.26
  -1  -5 -21   -4.36    4.80
   1   5  21    1.30    2.72
  -1  -5 -21    1.64    2.89
  -1  -5 -22    1.90    2.29
  -1  -6  22    3.96    5.88
  -1   6  21    4.99    5.97
   1   6 -21    1.89    4.41
   1  -6 -21    0.66    3.32
  -1  -6  21   -3.05    3.78
   1  -6 -21   -4.76    4.54
   1  -6 -20   -0.01    1.78
   1   6 -20   -3.16    3.85
  -1  -6  20    2.60    4.39
   1  -6 -20    0.54    1.23
   1  -6 -19    6.45    5.04
   1   6 -19    0.68    2.02
   1  -6 -19   -0.16    0.86
  -1  -6  19    1.83    2.05
  -1   6  19    4.23    3.77
   1   6 -18    1.15    2.17
   1  -6 -18   -7.85    5.75
  -1   6  18   -0.70    3.09
   1  -6 -18    2.43    2.73
   1   6 -18    1.26    2.02
  -1  -6  18   -5.06    4.54
   1   6 -17    1.78    4.78
  -1  -6  17    2.36    3.52
   1  -6 -17   -0.25    4.38
  -1   6  17    0.88    1.08
   1  -6 -17    0.00    4.27
   1   6 -17    1.70    2.74
   1  -6 -16    4.46    4.63
   1   6 -16    0.98    2.14
  -1   6  16    3.23    4.03
  -1  -6  16    8.33    5.92
   1  -6 -16    0.22    2.36
   1   6 -16    3.45    3.09
   1  -6 -15    1.57    3.66
  -1   6  15    2.91    3.80
   1   6 -15    0.78    2.03
  -1  -6  15   -7.58    5.15
   1  -6 -15    0.02    1.75
   1   6 -15   -2.34    3.14
  -1   6  14    6.62    5.01
   1   6 -14   13.11    7.32
   1   6 -14    6.04    3.58
   1  -6 -14   25.13    9.39
  -1  -6  14   13.73    7.90
   1  -6 -14    8.71    5.12
   1   6 -14   11.78    6.93
  -1   6  13   39.83   11.24
   1   6 -13   35.70    8.93
   1   6 -13   53.63   13.44
   1   6 -13   26.64    8.10
   1  -6 -13   39.69   11.33
  -1  -6  13   68.13   15.12
   1  -6 -13   47.69   12.91
   1   6 -13   55.25   13.93
   1   6 -12    8.33    3.87
   1  -6 -12   13.39    5.97
   1  -6 -12   18.41    7.89
   1  -6 -12   18.81    8.03
  -1   6  12   13.85    5.65
   1   6 -12   17.00    6.71
  -1  -6  12   11.61    6.76
   1   6 -12    5.99    3.44
   1   6 -12    8.73    4.27
   1   6 -11   74.58   15.93
  -1   6  11   69.75   14.36
   1  -6 -11   86.18   15.91
   1   6 -11   32.06    9.19
   1  -6 -11   85.72   17.11
   1   6 -11   72.90   14.99
   1   6 -11   47.40   10.52
  -1  -6  11  109.31   19.12
   1  -6 -11   68.36   13.12
   1   6 -10    3.34    2.70
   1   6 -10    8.85    4.26
   1  -6 -10   19.21    7.41
   1  -6 -10   11.68    5.37
  -1   6  10    9.80    4.99
   1   6 -10    7.97    4.71
  -1  -6  10   13.81    6.43
   1  -6 -10   12.56    6.52
   1   6 -10   12.32    6.00
   1   6  -9  140.42   21.30
   1  -6  -9  182.34   23.49
  -1   6   9  157.54   23.68
   1   6  -9  143.01   21.35
   1   6  -9  165.63   25.91
  -1  -6   9  243.28   29.61
   1   6  -9  196.25   26.58
   1  -6  -9  212.05   27.14
   1  -6  -9  227.31   29.08
   1   6  -8  137.43   20.20
  -1   6   8  141.99   21.73
  -1  -6   8  226.61   27.51
   1  -6  -8  196.58   26.52
   1   6  -8  139.77   20.21
   1   6  -8  173.78   24.20
   1  -6  -8  166.41   21.30
   1  -6  -7    5.17    2.44
   1  -6  -7   12.39    5.56
  -1   6   7   10.79    5.03
   1   6  -7    9.21    4.15
   1   6  -7    5.80    3.04
  -1  -6   7    6.40    4.78
   1   6  -7    5.50    4.55
   1  -6  -6   61.23   10.96
   1  -6  -6   76.45   14.93
   1   6  -6   89.79   15.16
   1   6  -6   62.94   11.76
   1   6  -6   65.30   11.71
  -1   6   6   84.58   14.15
  -1  -6   6   98.39   16.02
   1   6  -5    0.64    1.77
   1  -6  -5    1.31    1.99
   1   6  -5    2.74    2.78
   1   6  -5    0.02    1.08
   1  -6  -5    1.59    1.70
  -1   6   5    0.08    1.64
  -1  -6   5    3.98    4.22
   1  -6  -4   34.20    7.00
   1  -6  -4   39.52    9.84
   1   6  -4   36.11    7.86
  -1   6   4   32.01    8.76
   1   6  -4   32.03    7.70
  -1  -6   4   45.13   10.74
   1  -6  -3   37.30    6.93
   1   6  -3   23.30    6.52
   1  -6  -3   49.63   10.70
  -1  -6   3   27.67    6.32
  -1   6   3   38.43   10.15
  -1  -6   3   55.91   10.95
   1   6  -3   32.13    7.35
   1  -6  -2   51.23   10.98
   1  -6  -2   46.96    7.63
  -1  -6   2   42.87    7.81
   1   6  -2   36.71    7.73
  -1  -6   2   75.63   12.98
  -1   6   2   42.60   11.27
   1   6  -2   40.01    8.56
   1   6  -1  178.95   20.44
   1   6  -1  111.87   14.50
   1  -6  -1  238.97   25.66
  -1  -6   1  201.57   19.29
  -1  -6   1  297.02   26.58
   1   6  -1  178.79   20.83
   1  -6  -1  173.51   17.47
   1   6   0   30.64    5.19
  -1  -6   0   72.23   11.50
  -1  -6   0   46.41    7.40
   1   6   0   40.17    8.25
   1  -6   0   39.04    6.16
   1  -6   0   74.05   12.66
   1  -6   0   36.08    6.85
   1   6   0   47.99    8.85
   1   6   1  125.48   16.32
  -1  -6  -1  131.29   14.08
   1  -6   1  126.24   14.40
   1   6   1  106.42   12.21
   1  -6   1  208.23   23.81
   1  -6   1  125.45   12.48
  -1  -6  -1   53.49   11.06
  -1  -6  -1  209.37   21.25
   1  -6   1  148.11   15.43
   1   6   1  138.87   17.12
   1   6   2  121.63   16.95
   1  -6   2  124.59   15.35
   1   6   2  117.60   13.69
  -1  -6  -2  120.01   14.31
   1  -6   2  204.81   23.47
   1  -6   2  120.81   12.74
   1   6   2   98.61   13.35
  -1  -6  -2  186.57   20.32
   1  -6   2  148.88   15.95
   1   6   2  131.06   17.38
   1   6   3  107.84   16.31
   1   6   3  104.86   13.04
   1  -6   3   86.06   12.14
  -1  -6  -3  114.40   13.56
   1   6   3  111.45   16.20
   1  -6   3  174.57   21.05
   1  -6   3  152.09   15.40
   1   6   3  113.26   13.48
  -1  -6  -3  170.14   19.66
   1  -6   3  114.10   11.28
   1  -6   3  113.96   14.55
   1  -6   4   28.42    5.34
   1   6   4   15.54    4.94
   1  -6   4   12.65    2.01
   1  -6   4   21.56    5.12
  -1  -6  -4   20.06    4.53
   1  -6   4   13.33    2.53
   1   6   4   20.62    4.51
   1  -6   4   20.25    6.48
  -1  -6  -4   25.72    6.39
   1   6   4   21.96    6.28
   1   6   4   21.06    4.26
  -1   6  -4   30.03    7.98
  -1  -6  -5   18.12    5.28
   1  -6   5   14.71    3.96
   1   6   5   10.09    3.36
   1   6   5    7.30    3.28
   1  -6   5    9.56    3.58
  -1   6  -5   18.08    6.66
   1  -6   5   17.03    6.10
   1   6   5   13.00    5.00
  -1  -6  -5    9.24    3.15
   1   6   6   49.78    9.13
   1  -6   6   31.03    7.43
   1  -6   6   80.55   14.20
   1  -6   6   59.61    8.75
   1   6   6   50.36    9.85
  -1  -6  -6   59.34   10.83
  -1   6  -6   63.95   12.98
   1   6   6   37.22    8.51
   1  -6   7   23.81    5.30
   1   6   7   26.57    6.54
   1   6   7   16.13    4.95
   1  -6   7   19.88    5.56
   1  -6   7   28.62    8.71
   1   6   7   21.00    6.23
  -1   6  -7   26.09    7.79
   1  -6   8    2.09    1.44
   1   6   8    0.84    2.43
   1   6   8    5.23    2.53
   1   6   8    2.16    2.04
   1  -6   8    2.93    2.09
  -1   6  -8    4.82    2.94
  -1  -6  -9   95.47   16.65
   1  -6   9   44.76    9.57
   1   6   9   61.52   11.22
   1   6   9   55.06   10.13
   1  -6   9   62.58    9.86
   1   6   9   56.64   11.61
  -1   6  -9   83.04   16.07
  -1  -6 -10   59.63   13.94
   1  -6  10   37.87    8.36
   1  -6  10   54.80    8.98
   1   6  10   42.15    9.12
   1   6  10   30.13    7.57
   1   6  10   44.63   10.22
  -1   6 -10   75.92   15.82
  -1  -6 -11   17.13    6.65
   1  -6  11   12.00    4.15
   1   6  11    8.15    3.82
   1   6  11   13.58    5.45
   1  -6  11    4.47    2.97
   1   6  11    7.90    4.10
  -1   6 -11    7.13    4.20
   1   6  12    4.85    2.95
   1   6  12    0.62    1.95
  -1  -6 -12    2.44    2.94
   1  -6  12    2.72    2.76
   1   6  12    2.49    2.31
  -1   6 -12    6.30    6.15
   1  -6  12    2.69    1.86
  -1   6 -13    0.51    3.62
   1  -6  13    0.55    2.82
   1   6  13    1.09    2.77
  -1  -6 -14    2.20    3.78
  -1   6 -14    6.46    6.05
   1   6  14    9.15    4.89
   1  -6  14    1.84    1.37
  -1  -6 -15    0.59    2.75
   1  -6  15    1.34    1.36
   1   6  15   -1.32    1.66
  -1   6 -15    4.02    5.28
  -1  -6 -16   -0.91    3.72
   1   6  16    1.09    2.87
   1  -6  16    1.37    1.96
  -1  -6 -17    1.77    3.20
  -1  -6 -17   11.40    8.44
  -1   6 -17    2.80    5.74
   1   6  17    2.92    3.13
  -1   6 -18    0.60    3.16
  -1  -6 -18    5.33    4.43
  -1  -6 -18    2.04    3.07
   1   6  18   -1.53    2.57
  -1  -6 -19   -0.64    1.61
  -1  -6 -19    1.75    5.87
  -1   6 -19   -3.27    4.03
   1   6  19  -10.69    6.55
  -1   6 -20    1.26    2.57
  -1  -6 -20    3.65    5.82
  -1  -6 -20   -8.13    6.53
   1   6  20    4.24    4.41
  -1  -6 -21   -4.18    4.82
   1   6  21    0.41    1.35
  -1  -6 -21    2.35    4.76
  -1  -7  21   -0.09    0.99
   1  -7 -20    1.72    3.00
  -1   7  20   -3.03    3.77
  -1  -7  20    1.12    1.50
   1  -7 -20   -3.37    3.78
   1   7 -20    4.98    5.54
  -1  -7  19   -1.28    2.36
   1  -7 -19   -1.60    2.53
  -1   7  19   -4.35    4.42
   1  -7 -19    0.46    3.65
   1   7 -19   -3.29    3.89
  -1   7  18   -1.69    1.00
   1   7 -18    0.07    1.24
  -1  -7  18    4.42    5.35
   1  -7 -18   -1.44    2.32
  -1   7  17    2.79    5.21
   1  -7 -17   -0.10    3.72
  -1  -7  17   13.55    7.84
   1  -7 -17    2.62    3.02
   1   7 -17   -1.67    3.10
  -1  -7  16    3.46    5.66
   1  -7 -16    6.34    7.20
  -1   7  16    2.87    2.94
   1  -7 -16    8.15    5.92
   1   7 -16   -0.04    2.49
  -1   7  15    0.26    2.34
   1  -7 -15    1.10    3.44
   1   7 -15    7.30    6.29
  -1  -7  15   -2.84    3.20
   1  -7 -15   -4.32    3.60
   1   7 -15    2.96    4.51
  -1   7  14    3.44    3.06
   1   7 -14    1.88    3.13
  -1  -7  14    1.81    1.56
   1  -7 -14   -0.02    1.28
   1  -7 -14   -0.14    1.42
   1   7 -14    1.85    2.48
   1   7 -14   -1.46    2.26
   1   7 -14    1.91    2.46
  -1   7  13    8.59    5.60
   1  -7 -13   -3.67    3.50
   1   7 -13    3.34    2.63
   1   7 -13    2.13    2.24
  -1  -7  13    9.14    5.03
   1   7 -13    1.00    2.38
   1   7 -13    2.42    1.26
   1  -7 -13    1.92    0.79
  -1   7  12   18.27    7.59
   1  -7 -12   12.02    6.56
   1  -7 -12   17.83    8.50
   1  -7 -12   16.00    8.89
   1   7 -12    5.76    3.41
   1   7 -12    4.08    2.87
   1   7 -12   16.59    7.27
  -1  -7  12   25.77    9.69
   1   7 -12   15.14    6.07
   1  -7 -11   11.19    6.25
   1  -7 -11   10.33    5.74
  -1   7  11   17.21    7.06
   1  -7 -11    8.44    4.53
   1   7 -11   11.22    4.95
   1   7 -11   15.46    5.61
  -1  -7  11   19.18    7.40
   1   7 -11    6.87    3.64
   1  -7 -10   50.39   11.17
   1  -7 -10   68.88   14.83
   1  -7 -10   85.25   16.90
   1   7 -10   36.44    9.65
  -1   7  10   55.07   12.16
  -1  -7  10   97.75   17.87
   1   7 -10   75.14   15.39
   1   7 -10   48.56   10.68
   1   7  -9  102.37   19.21
   1  -7  -9  163.84   22.04
   1  -7  -9  217.68   28.80
  -1   7   9  138.49   22.19
   1   7  -9  147.87   21.33
  -1  -7   9  231.21   28.45
   1   7  -9  196.03   26.84
   1  -7  -8   24.57    7.14
   1  -7  -8   37.31   11.21
  -1   7   8   32.04    9.00
   1   7  -8   39.26    9.13
   1   7  -8   31.66    8.39
  -1  -7   8   60.97   13.24
   1   7  -8   37.19   10.61
   1   7  -7  131.81   19.69
   1  -7  -7  166.97   24.34
   1  -7  -7  135.24   19.10
  -1  -7   7  240.05   27.80
   1   7  -7  107.80   18.32
   1   7  -7  168.49   23.94
  -1   7   7  137.45   20.77
   1  -7  -6   36.03    7.88
  -1   7   6   47.66   11.37
   1  -7  -6   40.77   10.43
   1   7  -6   25.01    7.26
   1   7  -6   29.52    7.77
  -1  -7   6   69.45   13.54
   1  -7  -5    9.57    3.64
   1   7  -5    7.84    3.69
  -1  -7   5   13.64    6.16
  -1   7   5    7.52    3.93
   1  -7  -5   16.20    6.17
   1   7  -5    4.49    2.84
  -1  -7   5    4.92    2.68
   1  -7  -4  258.18   31.16
  -1   7   4  259.68   29.04
  -1  -7   4  192.47   24.95
   1  -7  -4  203.58   24.13
   1   7  -4  182.55   25.28
  -1  -7   4  337.41   33.08
   1   7  -4  184.56   25.31
   1   7  -3   78.92   13.60
  -1  -7   3   73.00   12.39
   1   7  -3   72.83   13.11
   1  -7  -3   74.92   11.70
  -1  -7   3  128.13   18.29
   1  -7  -3  104.12   17.36
  -1   7   3   89.10   15.92
  -1   7   2  113.51   17.90
   1   7  -2  100.10   15.80
  -1  -7   2  107.92   15.02
   1   7  -2   85.39   14.70
  -1  -7   2  157.62   20.22
   1  -7  -2  112.05   18.66
   1  -7  -2   97.64   13.38
   1   7  -1   37.86    8.37
   1  -7  -1   37.44   10.11
  -1  -7   1   33.46    7.15
  -1   7   1   40.29   10.82
  -1  -7   1   46.62   10.49
   1   7  -1   31.38    8.03
  -1  -7   0    7.98    3.89
   1   7   0    4.64    1.94
   1   7   0    7.22    3.15
   1  -7   0    3.53    2.03
   1   7   0    1.67    0.81
  -1  -7   0    4.44    2.42
   1  -7   0   12.73    6.58
   1   7   1    2.11    2.46
   1   7   1    4.48    3.40
  -1  -7  -1    1.58    1.58
   1  -7   1    5.94    4.37
   1   7   1    0.95    0.87
   1  -7   1    3.10    2.17
  -1  -7  -1    2.53    1.82
   1  -7   2   29.33    6.25
   1  -7   2   23.06    5.09
   1   7   2   26.79    6.45
   1   7   2   20.59    4.19
  -1  -7  -2   20.22    4.93
   1   7   2   31.53    8.10
   1  -7   2   38.13   10.04
   1   7   2   16.94    3.74
  -1  -7  -2   36.57    8.83
   1   7   3    7.25    2.55
   1  -7   3   11.64    3.67
   1   7   3    9.05    4.74
  -1  -7  -3   12.49    3.58
   1  -7   3    9.23    3.00
   1  -7   3    9.31    4.83
  -1  -7  -3   17.90    6.46
   1   7   3   10.09    3.66
   1   7   3    7.46    2.44
   1   7   4   10.34    3.34
   1   7   4   11.10    4.70
  -1  -7  -4   16.71    5.15
  -1  -7  -4   12.03    3.43
   1   7   4   11.20    3.23
   1   7   4   11.20    4.07
   1  -7   4   10.30    3.45
   1  -7   4   17.46    6.72
   1  -7   4   12.69    3.92
   1   7   5   45.16    8.02
   1   7   5   36.06    9.68
   1  -7   5   45.89    8.64
  -1  -7  -5   70.68   12.58
   1  -7   5   67.52   10.08
   1   7   5   60.32   11.35
   1   7   5   51.00    8.98
   1  -7   5   81.73   14.74
  -1   7  -5   78.91   15.31
  -1  -7  -5   70.17   10.23
   1  -7   6   47.57   11.86
   1   7   6   34.57    7.33
  -1  -7  -6   41.48    7.69
   1  -7   6   29.96    6.77
   1   7   6   36.63    8.75
  -1  -7  -6   53.15   10.72
   1  -7   6   40.96    7.58
   1   7   6   22.82    7.21
  -1   7  -6   38.75   10.69
   1  -7   7   55.84   10.41
   1   7   7   48.46   11.07
   1   7   7   65.21   12.59
   1   7   7   75.96   12.28
   1  -7   7  109.47   18.18
   1  -7   7   71.94   10.99
  -1   7  -7  100.71   17.96
  -1   7  -8    4.19    4.66
   1   7   8    2.51    2.51
   1  -7   8    2.82    2.02
   1   7   8    6.20    3.23
   1  -7   8    5.45    2.63
   1   7   8    3.08    2.73
   1  -7   8    5.37    4.31
   1   7   9    8.15    3.97
  -1  -7  -9   12.58    6.36
   1  -7   9   11.26    6.03
   1  -7   9    7.50    3.54
   1   7   9    2.16    2.64
   1   7   9    6.49    3.42
   1  -7   9    7.10    2.79
  -1   7  -9   13.96    7.16
  -1   7 -10   16.64    7.55
  -1  -7 -10   12.06    6.01
   1   7  10    4.41    3.24
   1  -7  10    6.81    3.32
   1   7  10    6.82    3.70
   1   7  10    4.78    3.47
   1  -7  10    6.75    2.93
  -1  -7 -11   21.06    9.20
   1   7  11   12.02    4.63
   1  -7  11   17.95    5.91
   1   7  11   15.10    5.40
   1  -7  11   16.02    5.03
   1   7  11   14.23    5.64
  -1   7 -11   34.00   11.22
  -1  -7 -12   20.86    9.04
   1   7  12    5.53    3.50
   1   7  12   12.01    5.53
   1   7  12    6.56    3.76
  -1   7 -12   14.13    7.85
   1   7  13   12.22    6.05
  -1  -7 -13   14.07    7.86
  -1   7 -13   22.48   10.54
  -1  -7 -14    1.00    3.20
   1   7  14   -4.30    3.46
  -1   7 -14    2.54    0.56
   1   7  15   -1.68    4.20
  -1  -7 -15    3.11    4.07
  -1   7 -15    4.28    2.92
  -1  -7 -16   -3.37    3.85
   1   7  16   -0.69    1.14
  -1   7 -16    1.90    5.05
  -1  -7 -17    1.72    2.71
  -1  -7 -17    3.65    3.89
   1   7  17    2.52    2.90
  -1   7 -17    0.09    3.41
  -1  -7 -18    0.83    2.70
  -1  -7 -18    2.50    0.37
   1   7  18    3.27    3.99
  -1   7 -18    0.04    2.62
  -1  -7 -19   -7.43    5.60
  -1  -7 -19   -3.55    4.33
   1   7  19    0.10    1.68
  -1   7 -19   -7.59    6.31
  -1  -7 -20    0.01    5.23
  -1  -7 -20    0.31    1.75
  -1   7 -20    1.58    5.49
   1   7  20    0.74    0.51
  -1  -8  20    0.13    3.12
   1  -8 -19    1.77    2.90
  -1   8  19    2.41    2.69
  -1  -8  19   -2.82    3.53
   1  -8 -19    3.69    3.87
   1   8 -19    0.50    1.77
   1  -8 -18  -10.23    7.01
  -1   8  18    6.78    5.60
   1  -8 -18    4.65    5.64
  -1  -8  18   -2.94    3.54
   1   8 -18    1.77    2.45
   1  -8 -17   14.75    9.17
   1   8 -17   -5.60    5.00
  -1   8  17   -1.52    2.66
  -1  -8  17   -3.34    3.69
   1  -8 -17   -0.08    2.72
   1  -8 -16   -4.95    4.58
  -1   8  16   -1.86    3.55
   1  -8 -16    0.63    0.95
  -1  -8  16   -0.84    1.81
   1   8 -16    3.09    4.49
   1  -8 -15   -0.45    1.89
  -1   8  15    8.47    5.04
  -1  -8  15    1.53    4.36
   1  -8 -15    2.23    2.01
   1   8 -15    3.76    5.46
   1  -8 -14    4.10    3.62
  -1   8  14    2.29    2.90
   1   8 -14    2.46    2.88
   1   8 -14    4.73    3.75
  -1  -8  14   26.90   11.98
   1   8 -14    2.51    3.52
   1  -8 -14    6.50    5.16
  -1   8  13   -0.04    1.30
   1  -8 -13    1.68    3.41
   1  -8 -13   -0.76    3.60
   1   8 -13    0.38    1.30
   1   8 -13   -2.95    2.68
  -1  -8  13    6.25    5.14
   1   8 -13    4.95    4.39
   1  -8 -13    2.55    3.35
   1   8 -12    6.34    4.10
   1  -8 -12    2.08    1.81
   1  -8 -12    0.74    1.68
  -1   8  12    1.73    1.13
   1   8 -12    0.61    0.46
  -1  -8  12    2.64    2.54
   1   8 -12    9.61    5.94
   1  -8 -12   -1.13    2.50
  -1  -8  11    5.50    3.01
   1  -8 -11   -1.22    2.02
   1  -8 -11    3.19    4.24
   1   8 -11    4.48    3.32
  -1   8  11   -2.75    3.16
   1   8 -11    1.14    1.59
   1   8 -11    1.29    2.40
   1  -8 -11    0.29    1.34
   1  -8 -10    3.84    2.99
   1  -8 -10    3.18    3.31
   1   8 -10    0.88    1.15
   1   8 -10    0.83    1.10
  -1   8  10    4.36    4.93
  -1  -8  10    7.72    5.25
   1   8 -10    6.37    5.56
   1  -8  -9    8.53    4.80
  -1   8   9    6.18    4.06
   1  -8  -9   11.04    5.76
  -1  -8   9   20.07    8.96
   1   8  -9    7.83    4.46
   1   8  -9   11.17    5.14
   1   8  -9   11.05    6.69
   1  -8  -8   14.82    5.41
   1  -8  -8   13.70    5.75
   1   8  -8    3.82    2.62
   1   8  -8   10.73    4.75
  -1   8   8    6.03    3.93
   1   8  -8   18.15    8.66
  -1  -8   8   13.86    6.16
   1  -8  -7   -0.69    1.90
   1  -8  -7    2.65    3.13
  -1  -8   7    5.99    5.62
   1   8  -7    0.45    1.23
  -1   8   7    3.64    2.94
   1   8  -7    1.81    1.30
  -1   8   6   95.42   16.42
   1  -8  -6  107.01   19.11
  -1  -8   6  140.55   21.26
   1   8  -6   85.92   15.18
  -1  -8   6   87.16   15.52
   1  -8  -6   92.69   14.72
   1   8  -6   83.52   14.99
  -1   8   5   13.05    5.55
   1   8  -5   17.70    5.81
   1  -8  -5   18.91    8.33
  -1  -8   5   27.58    9.15
  -1  -8   5   16.49    5.73
   1   8  -5   15.34    5.60
   1  -8  -5   17.76    5.22
   1   8  -4   98.93   17.41
   1  -8  -4  136.47   22.17
  -1   8   4  156.21   20.64
  -1  -8   4   88.58   16.28
   1  -8  -4  129.52   17.10
  -1  -8   4  223.08   26.67
   1   8  -4  122.32   18.67
   1   8  -3  165.49   23.38
  -1  -8   3  177.41   23.33
   1  -8  -3  172.92   21.60
   1  -8  -3  245.71   30.10
  -1   8   3  192.53   25.29
  -1  -8   3  253.58   29.45
   1   8  -3  168.51   23.93
   1  -8  -2    2.43    2.57
   1   8  -2    2.50    3.57
  -1   8   2    1.99    0.77
   1  -8  -2    4.32    2.22
  -1  -8   2    1.49    2.30
   1   8  -2    4.95    3.53
  -1  -8   2   -0.14    0.94
  -1  -8   1   20.52    7.16
   1   8  -1    2.60    3.17
  -1   8   1    5.56    4.19
   1  -8  -1   10.17    5.59
  -1  -8   1    8.27    3.57
   1   8  -1    9.05    4.55
  -1  -8   0    1.11    1.31
   1  -8   0    0.79    2.23
  -1  -8   0    2.81    2.12
   1  -8   0    2.78    2.01
  -1   8   0   -0.02    1.66
   1   8   0   -0.60    2.28
   1   8   0    3.80    2.53
   1   8   1   29.44    7.31
  -1  -8  -1   31.34    6.98
   1  -8   1   26.47    8.67
  -1  -8  -1   53.18   11.47
   1   8   1   28.24    7.80
   1  -8   1   30.42    7.44
   1   8   2   11.53    5.38
   1   8   2    9.64    4.43
  -1  -8  -2    6.82    3.03
   1  -8   2   11.35    5.84
   1  -8   2    9.76    3.92
  -1  -8  -2   15.36    6.25
   1  -8   3    0.28    0.57
   1   8   3   -0.30    0.85
   1   8   3    2.66    1.86
   1  -8   3    1.80    3.46
   1   8   3    0.97    0.98
  -1  -8  -3    4.65    4.11
   1   8   3    0.81    0.53
   1  -8   3   -1.98    2.24
  -1  -8  -3    2.78    2.02
   1   8   4   33.84    8.45
   1   8   4   43.13    9.90
  -1  -8  -4   44.92    8.02
   1  -8   4   67.48   14.44
   1   8   4   28.69    6.23
  -1  -8  -4   59.31   11.86
   1  -8   4   43.59    8.25
   1   8   4   29.01    5.93
   1  -8   4   31.78    6.15
   1   8   5  119.37   18.67
   1   8   5  104.96   15.29
   1   8   5  141.47   20.23
  -1  -8  -5  148.26   18.00
   1  -8   5  232.92   28.78
   1   8   5  114.56   16.20
  -1  -8  -5  191.10   23.66
   1  -8   5  163.26   18.82
   1  -8   6    3.08    1.98
   1   8   6    0.89    2.45
  -1  -8  -6    7.32    3.69
   1  -8   6   13.14    7.65
   1   8   6    1.95    1.21
   1   8   6    7.02    3.41
  -1  -8  -6    7.90    3.42
  -1   8  -7   13.66    7.69
   1   8   7   13.09    5.90
   1  -8   7   21.46    5.73
   1  -8   7   18.36    7.20
   1   8   7   19.57    5.65
   1   8   7   11.31    5.30
   1   8   8    2.99    2.40
   1  -8   8    0.86    3.02
   1   8   8   -1.20    1.85
   1   8   8    0.34    0.21
   1  -8   8   -0.78    1.05
  -1   8  -8    2.26    3.18
   1   8   9    0.47    1.27
   1   8   9    0.09    0.52
   1   8   9    0.20    2.34
   1  -8   9    0.57    2.35
   1  -8   9    2.36    1.75
  -1   8  -9   -2.99    3.19
   1   8  10   16.60    6.02
  -1  -8 -10   15.09    6.94
   1   8  10   13.08    5.24
   1   8  10   14.87    6.18
   1  -8  10   14.07    4.91
  -1   8 -10   28.53    9.99
   1  -8  10   52.31   13.94
  -1  -8 -11    8.41    5.05
   1   8  11    1.92    3.10
   1   8  11    7.46    4.27
   1   8  11    7.78    4.36
   1  -8  11   12.59    7.80
  -1   8 -11    6.68    1.41
  -1  -8 -12    4.84    5.87
   1   8  12    7.56    4.50
   1   8  12    4.03    3.25
   1   8  12    7.44    4.19
   1  -8  12    7.79    5.53
  -1   8 -12   13.23    7.84
  -1  -8 -13   -0.12    0.70
   1   8  13    0.27    2.58
  -1   8 -13   -3.30    3.68
  -1  -8 -14    1.97    3.54
   1   8  14   -0.96    1.53
  -1   8 -14    2.38    1.84
   1   8  15    2.10    3.13
  -1  -8 -15    0.13    3.69
  -1   8 -15    6.14    7.03
   1   8  16    8.25    5.40
  -1  -8 -16    4.95    4.39
  -1   8 -16   -6.17    5.42
  -1   8 -17   -7.16    5.98
  -1  -8 -17    0.07    2.64
   1   8  17   -0.16    1.28
  -1  -8 -17   -0.52    2.07
  -1  -8 -18   -2.82    3.48
   1   8  18    1.64    3.19
  -1   8 -18    4.03    4.13
  -1  -8 -19    0.16    2.50
   1   8  19   -0.74    1.77
  -1   8 -19    0.76    2.05
  -1  -9  19    2.17    3.17
   1  -9 -18    6.27    6.67
   1   9 -18    5.06    4.98
   1  -9 -18    7.40    6.21
  -1   9  18   12.82    7.54
  -1  -9  18    2.31    3.80
   1   9 -17  -11.00    7.28
   1  -9 -17    5.30    4.76
  -1   9  17    6.43    4.13
   1  -9 -17    5.91    6.77
  -1  -9  17    8.46    7.23
   1  -9 -16   -1.30    4.75
  -1   9  16    0.90    1.71
  -1  -9  16   -6.33    5.12
   1   9 -16    5.63    6.54
   1  -9 -16   -2.88    3.25
   1  -9 -15    0.92    2.91
  -1   9  15    0.85    1.70
  -1  -9  15   10.59    7.76
   1   9 -15    0.72    1.03
   1  -9 -15    0.72    2.49
   1  -9 -14    1.45    2.31
  -1   9  14   -0.38    2.07
  -1  -9  14    2.01    3.53
   1   9 -14   -1.12    1.77
   1   9 -14    0.57    1.08
   1  -9 -14    0.40    1.47
   1  -9 -13    1.87    2.61
  -1   9  13    2.86    1.48
   1  -9 -13    1.95    2.85
   1   9 -13   -0.15    0.96
   1   9 -13    5.48    5.12
   1   9 -13    0.49    1.27
  -1  -9  13   -0.02    2.25
   1  -9 -13   -4.12    3.51
   1  -9 -12   -0.66    3.19
  -1   9  12    4.30    4.74
   1  -9 -12   -9.61    6.17
   1   9 -12    1.35    2.23
  -1  -9  12   -0.01    1.80
   1   9 -12   -0.35    1.48
   1   9 -12    1.00    3.12
   1  -9 -12    5.19    4.63
   1  -9 -11    1.97    1.82
  -1   9  11    2.52    3.20
   1   9 -11    4.05    3.92
   1  -9 -11   -5.00    4.32
   1  -9 -11   -2.12    2.86
   1   9 -11    1.02    1.78
  -1  -9  11   -4.64    4.00
   1   9 -11   -0.66    1.90
   1  -9 -10    4.31    3.39
   1  -9 -10   -0.46    1.29
  -1  -9  10    2.10    3.34
   1   9 -10    0.43    1.04
  -1   9  10   -2.58    3.17
   1   9 -10    4.87    3.65
   1   9 -10   -0.34    1.96
   1  -9  -9   -0.26    1.09
   1  -9  -9    0.54    1.24
   1   9  -9    0.71    1.14
  -1  -9   9    5.44    4.46
  -1   9   9    1.34    2.68
   1   9  -9    4.50    3.58
  -1  -9   9    0.22    2.17
   1  -9  -8   16.44    5.97
   1  -9  -8   15.76    6.87
   1   9  -8    9.81    4.79
   1   9  -8    6.52    3.76
  -1  -9   8   17.31    8.34
  -1  -9   8   10.66    5.95
  -1   9   8    7.96    4.80
   1  -9  -7    0.31    2.25
   1  -9  -7    3.17    3.47
   1   9  -7   -2.26    1.83
   1   9  -7   -0.61    1.89
  -1   9   7    1.17    1.65
  -1  -9   7    1.28    1.64
  -1  -9   7   -5.28    3.53
   1  -9  -6    2.19    2.03
  -1  -9   6    5.30    4.53
   1  -9  -6    0.46    2.51
   1   9  -6   -1.05    1.07
  -1  -9   6    3.64    3.35
   1   9  -6    3.65    3.63
  -1   9   6    1.39    0.67
   1   9  -5   11.91    5.52
   1  -9  -5   16.75    6.60
  -1  -9   5   14.89    5.73
   1  -9  -5    8.85    3.67
  -1   9   5    8.49    4.65
   1   9  -5   10.66    4.60
  -1  -9   5    9.77    6.29
   1  -9  -4   38.46    8.36
  -1   9   4   32.40    9.00
  -1  -9   4   59.69   13.08
   1  -9  -4   59.03   14.02
  -1  -9   4   40.79    9.88
   1   9  -4   33.19    9.37
   1   9  -4   27.85    8.43
   1  -9  -3    4.21    2.33
   1   9  -3    5.72    4.81
   1  -9  -3    1.84    2.82
  -1  -9   3    3.76    2.67
   1   9  -3    2.77    3.32
  -1  -9   3    2.77    1.59
  -1   9   3    3.15    3.30
   1  -9  -2   18.42    5.16
   1  -9  -2   22.19    8.44
  -1  -9   2   15.33    5.69
  -1  -9   2   24.93    8.83
  -1   9   2   16.37    6.17
   1   9  -2   26.55    7.55
   1   9  -2   13.35    5.28
   1   9  -1   12.35    5.39
  -1   9   1    9.12    5.10
   1  -9  -1   25.16    9.40
  -1  -9   1    9.39    4.09
  -1  -9   1   29.68   10.09
   1   9  -1   11.53    5.49
   1   9   0   26.41    7.41
  -1  -9   0   46.38   12.09
  -1  -9   0   28.33    7.27
   1  -9   0   44.04   11.74
  -1   9   0   25.60    9.42
   1   9   0   19.94    7.25
   1   9   1    8.31    4.55
  -1  -9  -1    3.80    3.93
  -1  -9  -1    1.99    0.80
   1  -9   1    5.00    5.21
  -1   9  -1   -1.19    0.95
   1  -9   1    1.19    2.24
   1   9   1    5.26    3.15
   1   9   2    9.30    4.08
   1   9   2   13.60    4.80
   1  -9   2   14.05    7.95
   1  -9   2   10.79    4.11
  -1  -9  -2   11.19    4.38
  -1  -9  -2   23.61    8.94
   1   9   3    9.03    4.50
  -1  -9  -3    7.57    3.56
   1  -9   3   15.96    7.97
   1  -9   3    7.72    4.45
   1   9   3    8.91    4.75
  -1  -9  -3   15.30    7.11
   1   9   4    8.53    4.26
  -1  -9  -4    6.85    3.04
   1   9   4    9.08    4.85
   1  -9   4   10.15    4.94
  -1  -9  -4    4.84    2.73
   1  -9   4    6.35    2.81
   1   9   5   33.11    9.10
   1   9   5   28.48    8.23
   1  -9   5   60.08   14.46
  -1  -9  -5   43.59   11.24
   1  -9   5   35.57    8.42
   1   9   6   12.22    6.19
   1  -9   6   35.79   11.65
   1   9   6   31.90    8.90
  -1  -9  -6   27.42    9.12
   1  -9   6   30.62    7.42
   1   9   7   49.37   11.92
   1   9   7   44.69   11.36
   1  -9   7   97.97   19.03
   1   9   7   44.26    9.71
   1  -9   7   67.69   11.43
   1   9   8    9.44    5.45
   1   9   8   15.07    5.39
   1  -9   8   23.85    6.39
   1   9   8   20.32    7.14
   1  -9   8   32.61   11.83
   1  -9   9    1.94    1.89
   1   9   9   -2.54    2.32
   1  -9   9    1.19    2.98
   1   9   9   -0.54    0.45
   1   9   9    0.10    2.82
  -1   9  -9    0.62    3.49
  -1  -9 -10    0.21    2.88
   1   9  10    0.45    0.25
   1   9  10    0.45    2.06
   1  -9  10    2.30    5.79
   1   9  10    4.73    4.02
  -1   9 -10    0.69    3.56
  -1  -9 -11    3.59    3.78
   1   9  11   -0.41    0.96
   1  -9  11   -5.30    4.39
   1   9  11    2.38    2.94
   1   9  11    4.67    3.83
  -1  -9 -12    5.86    5.19
   1   9  12    1.73    2.86
   1   9  12    9.82    5.72
   1  -9  12   10.10    6.88
  -1   9 -12   11.24    5.36
   1   9  13    0.43    1.09
   1  -9  13   -2.56    3.18
  -1   9 -13    0.14    3.30
  -1  -9 -14    6.92    5.78
   1   9  14    4.54    4.05
   1  -9  14   11.96    8.35
  -1   9 -14    9.25    6.11
  -1  -9 -15   -9.36    6.69
   1   9  15    0.97    1.91
   1  -9  15   -6.41    5.24
  -1   9 -15    4.72    4.42
  -1  -9 -16   -5.49    5.24
   1  -9  16   -9.12    6.39
   1   9  16    1.96    2.31
  -1   9 -16   -4.11    4.60
  -1  -9 -17   -0.11    2.78
  -1  -9 -17   -5.40    5.38
   1   9  17   -2.04    2.79
   1  -9  17   -3.47    4.04
  -1   9 -17   -8.51    6.77
   1   9  18    0.54    1.20
  -1 -10  18    3.35    5.36
  -1  10  17   -2.09    3.08
  -1 -10  17    3.49    5.43
   1 -10 -16   -2.31    3.45
  -1  10  16    1.92    3.56
  -1 -10  16    5.39    5.06
   1  10 -16   14.91    9.82
   1 -10 -16   12.89    8.13
   1 -10 -15    2.11    4.18
  -1  10  15    6.83    5.51
   1 -10 -15    2.59    5.12
  -1 -10  15    0.46    0.95
   1  10 -15   -6.66    5.65
   1 -10 -14    0.01    2.25
  -1 -10  14   -6.80    5.28
  -1  10  14   -1.36    3.16
   1  10 -14   -6.23    5.37
   1 -10 -14    0.18    2.78
   1 -10 -13   -4.23    4.34
  -1  10  13   -2.03    2.77
   1 -10 -13    0.33    1.93
   1  10 -13   -1.35    1.99
   1  10 -13    2.15    2.95
  -1 -10  13    1.32    2.29
   1  10 -13    3.40    8.34
   1 -10 -13   -0.08    2.62
   1 -10 -12    5.92    5.34
   1 -10 -12    1.43    4.18
   1  10 -12   -1.42    2.04
  -1 -10  12   -1.67    2.40
   1  10 -12    0.88    1.86
  -1  10  12    4.74    4.42
  -1 -10  12    0.61    1.53
   1 -10 -12    2.58    3.51
  -1  10  11    2.53    2.91
   1 -10 -11    3.12    2.40
   1 -10 -11    6.17    6.79
   1  10 -11    1.55    2.77
  -1 -10  11    1.89    2.40
   1  10 -11   -2.85    2.85
  -1 -10  11    3.28    5.01
   1 -10 -11    0.66    0.98
  -1  10  10    3.53    3.36
   1 -10 -10    9.98    5.57
   1 -10 -10   14.13    8.30
   1  10 -10    9.78    5.31
  -1 -10  10   10.10    5.99
   1  10 -10   12.47    6.29
  -1 -10  10    9.06    6.23
   1 -10  -9    6.98    4.63
   1 -10  -9   12.28    7.06
   1  10  -9    4.45    2.85
   1  10  -9    4.97    3.76
  -1 -10   9    3.11    4.65
  -1  10   9    5.61    3.89
  -1 -10   9    7.26    5.85
   1 -10  -8    4.38    3.49
   1  10  -8    4.44    3.56
  -1  10   8    5.58    4.49
   1 -10  -8   -0.02    2.65
  -1 -10   8   -0.69    1.39
   1  10  -8   -1.01    2.82
  -1 -10   8    0.07    1.39
   1 -10  -7    7.04    4.00
  -1  10   7    4.65    3.11
   1 -10  -7    8.99    5.80
   1  10  -7    9.28    4.69
   1  10  -7    8.70    4.37
  -1 -10   7    4.92    4.26
  -1 -10   7   11.78    6.30
   1 -10  -6    0.18    0.93
  -1  10   6   -0.48    0.77
  -1 -10   6    2.38    3.04
   1 -10  -6    1.19    2.71
   1  10  -6    1.78    3.44
  -1 -10   6   -0.29    1.48
   1  10  -6    2.93    1.66
   1 -10  -5   16.64    5.89
   1  10  -5   13.53    5.58
   1 -10  -5   29.40   10.26
  -1 -10   5   33.08   10.36
  -1  10   5   13.33    5.63
  -1 -10   5   32.98    9.32
   1  10  -5   13.21    6.05
   1 -10  -4   -0.31    0.93
   1 -10  -4    0.46    3.41
   1  10  -4    1.04    1.19
  -1  10   4    2.74    3.45
  -1 -10   4   -2.01    2.46
   1  10  -4    3.36    2.34
  -1 -10   3   23.11    8.49
   1  10  -3   12.17    5.88
   1  10  -3    9.70    5.07
   1 -10  -3   21.31    9.00
  -1  10   3   10.50    5.26
  -1 -10   3   10.90    5.04
   1 -10  -3   12.85    4.81
   1 -10  -2   15.85    5.15
   1  10  -2   20.44    7.06
  -1 -10   2   22.00    7.86
   1 -10  -2   14.95    8.29
  -1 -10   2   14.56    5.37
  -1  10   2    7.95    5.83
   1  10  -2    9.39    4.74
   1  10  -1   24.27    8.28
   1  10  -1   19.85    7.38
  -1  10   1   24.34    7.30
   1 -10  -1   38.64   11.51
  -1 -10   1   43.47   11.62
  -1  10   0    0.41    3.75
   1  10   0    8.14    4.59
   1 -10   0    1.41    1.33
  -1 -10   0    4.35    4.44
   1  10   0    1.21    2.04
   1  10   1   -0.10    2.23
   1  10   1    3.04    2.39
   1 -10   1    1.98    1.83
  -1  10  -1   -0.04    1.21
   1 -10   1    0.70    0.72
  -1 -10  -1   -0.76    1.44
   1  10   2    3.56    2.41
   1 -10   2    4.80    2.29
  -1 -10  -2    6.12    5.35
   1 -10   2    5.25    3.77
   1  10   2    4.55    3.00
   1 -10   3    2.31    1.31
   1  10   3   -0.76    1.34
   1 -10   3    3.95    1.81
   1  10   3    4.29    3.70
  -1 -10  -3    0.83    1.61
   1  10   4    2.67    0.71
  -1 -10  -4    2.07    4.01
   1 -10   4    9.46    5.98
   1 -10   4    0.37    1.62
   1  10   4    2.14    2.21
   1  10   5    5.20    4.09
   1  10   5   -0.01    1.49
   1 -10   5    1.42    0.78
  -1 -10  -5    3.38    2.88
   1 -10   5    0.60    3.99
   1  10   6   -2.50    2.43
   1 -10   6    6.94    4.64
   1  10   6    0.57    2.22
  -1 -10  -6    4.07    2.37
   1 -10   6   -0.14    1.25
   1  10   7   10.78    5.93
   1 -10   7   19.77    9.29
   1  10   7    8.03    5.07
   1 -10   7   14.58    5.47
   1 -10   8    4.91    3.29
   1  10   8    7.92    4.40
   1  10   8    7.36    4.25
   1 -10   8   17.20    8.60
   1  10   9    5.15    4.36
   1  10   9    2.10    2.82
   1 -10   9    6.19    5.23
   1  10  10    2.15    2.65
   1 -10  10    5.36    4.44
   1  10  10    3.66    3.76
   1  10  11    2.79    3.94
  -1 -10 -11   15.63   11.02
   1  10  11    4.37    3.93
   1 -10  11   20.33   10.34
  -1  10 -11   26.92   14.17
  -1  10 -12   -7.43    5.92
   1 -10  12    0.50    3.53
  -1 -10 -12    4.82    2.13
   1 -10  13    3.72    4.92
  -1  10 -13   -1.07    4.10
  -1 -10 -14    2.99    3.88
   1 -10  14    3.08    5.89
  -1  10 -14    2.40    4.12
  -1 -10 -15    0.01    2.08
   1 -10  15    1.63    1.61
  -1  10 -15   -4.58    4.94
  -1 -10 -16   -0.68    1.92
   1 -10  16   -0.03    2.10
  -1  10 -16   -0.20    1.17
   1  10  17    1.62    3.23
  -1 -11  17   -0.58    1.67
  -1 -11  16    0.26    3.86
  -1 -11  16    0.64    2.16
  -1 -11  15    0.10    3.71
  -1  11  15   -0.17    1.41
  -1 -11  15    2.39    4.70
   1 -11 -15    0.05    2.01
   1 -11 -14   -4.08    4.55
  -1 -11  14    0.19    0.91
  -1  11  14   -2.39    3.09
  -1 -11  14   -2.56    3.32
   1 -11 -14   -3.60    3.67
   1  11 -13    3.44    4.10
   1 -11 -13    0.09    1.50
   1 -11 -13    2.89    4.53
  -1 -11  13   -0.55    1.48
  -1  11  13   -0.65    1.56
  -1 -11  13   -0.07    1.95
   1  11 -13    0.13    1.51
   1 -11 -13   -3.68    3.59
   1 -11 -12   -3.35    3.99
   1 -11 -12    1.35    2.40
   1  11 -12    3.78    4.09
  -1 -11  12    0.35    3.31
  -1  11  12    7.64    4.88
   1  11 -12    0.21    0.85
  -1 -11  12    0.22    2.10
   1 -11 -12    1.82    3.10
   1  11 -11   -0.02    0.88
   1 -11 -11    0.34    1.25
  -1 -11  11    1.48    3.73
   1  11 -11    1.79    2.83
  -1  11  11   -0.52    1.32
  -1 -11  11    6.59    6.08
   1 -11 -11   -2.68    2.88
   1 -11 -10   22.82    8.76
   1  11 -10   20.97    7.96
   1 -11 -10   29.13   10.97
  -1 -11  10   18.83    9.14
   1  11 -10   14.00    7.41
  -1  11  10   10.22    6.11
  -1 -11  10   15.56    8.08
   1 -11  -9   -1.33    2.48
   1  11  -9    3.95    3.17
  -1  11   9   -2.56    2.75
   1  11  -9    0.68    2.17
  -1 -11   9   -0.52    3.09
   1  11  -8   10.17    6.01
  -1  11   8    7.43    4.76
   1  11  -8    5.54    4.43
  -1 -11   8   11.21    7.15
   1 -11  -8    3.96    3.34
   1 -11  -7    0.11    0.66
   1 -11  -7   -1.11    2.08
   1  11  -7    4.04    4.95
   1  11  -7   -1.76    2.25
  -1  11   7    0.57    1.90
  -1 -11   7   -1.34    2.16
   1 -11  -6    0.60    0.59
   1 -11  -6   -0.24    2.66
   1  11  -6    0.29    1.40
   1  11  -6   -0.58    2.42
  -1  11   6   -1.56    2.80
  -1 -11   6    0.51    1.57
  -1  11   5    3.67    3.14
   1 -11  -5    4.86    3.40
  -1 -11   5    4.93    4.21
   1 -11  -5    3.19    4.07
   1  11  -5    5.53    5.15
   1  11  -5    7.38    4.82
   1 -11  -4    1.65    1.49
   1  11  -4    0.87    2.56
   1  11  -4    0.86    1.71
   1 -11  -4   -0.02    0.97
  -1 -11   4    5.51    4.09
  -1 -11   3   -1.46    2.15
   1  11  -3    4.94    3.52
   1  11  -3    0.64    2.69
   1 -11  -3   -1.89    2.64
   1  11  -2    8.88    6.86
  -1 -11   2    7.27    4.73
   1 -11  -2    1.11    2.34
   1  11  -2    6.16    4.64
  -1 -11   1   -0.19    1.88
   1  11  -1    3.86    5.20
   1 -11  -1   -0.64    3.51
   1  11  -1   -3.60    3.80
   1  11   0   12.95    6.16
   1 -11   0    5.80    4.99
   1  11   0    9.71    5.34
  -1 -11   0   17.09    7.81
   1  11   1    0.02    1.46
   1  11   1    1.15    2.15
   1 -11   1    2.47    2.18
  -1 -11  -1    4.20    5.93
   1  11   2    2.06    2.57
   1 -11   2    3.93    3.10
   1 -11   2    0.19    0.69
   1  11   2    6.44    4.04
  -1 -11  -2    7.84    5.46
   1  11   3   -1.23    0.69
   1  11   3   -3.88    3.20
   1 -11   3   -2.11    2.16
   1 -11   3   -3.21    3.50
  -1 -11  -3    2.72    4.35
   1  11   4    5.72    4.59
   1  11   4   -2.03    2.32
   1 -11   4    2.58    4.30
   1 -11   4    0.16    1.79
  -1 -11  -4    6.16    4.02
   1 -11   5   -2.41    2.29
   1  11   5   -1.17    0.91
   1 -11   5    0.02    2.25
   1  11   5    0.65    2.74
  -1 -11  -5    0.12    2.28
   1  11   6    0.12    1.75
   1 -11   6    2.47    2.86
   1 -11   6    0.49    2.15
  -1 -11  -6   -4.94    4.00
   1  11   6    1.03    2.26
   1  11   7   -2.22    2.55
   1  11   7    5.23    3.89
   1 -11   7    2.62    4.67
   1 -11   7    0.15    1.70
   1  11   8    1.47    1.08
   1  11   8    5.87    5.13
   1 -11   8   -2.68    3.39
   1  11   9   -0.15    0.74
   1 -11   9    0.56    1.26
   1  11   9   -0.32    2.24
   1  11  10    0.59    1.86
   1  11  10    2.96    3.25
   1 -11  10    2.05    8.62
  -1 -11 -11   -0.02    2.64
   1  11  11    0.03    1.01
   1 -11  11   -3.11    3.74
   1  11  11    0.11    0.58
  -1 -11 -12   -0.38    2.57
   1 -11  12    7.46    7.44
  -1 -11 -13    3.92    5.84
   1 -11  13   -1.33    2.52
  -1 -11 -14    0.09    3.23
   1 -11  14    0.25    1.12
  -1  11 -14   -4.86    5.20
   1 -12 -13    0.01    3.18
   1  12 -13   -3.26    3.47
  -1 -12  13    2.93    4.44
   1  12 -13    2.18    3.87
   1 -12 -13    0.13    0.72
   1  12 -12    0.33    1.49
   1 -12 -12    1.14    4.10
   1 -12 -12    0.26    2.86
   1  12 -12    2.05    3.21
  -1 -12  12    0.41    1.45
   1 -12 -12    2.03    2.96
   1 -12 -11    4.21    5.42
   1  12 -11   -0.43    1.24
   1  12 -11   -2.09    2.70
  -1 -12  11    0.45    1.56
   1 -12 -11   -0.07    0.49
   1  12 -10    5.11    4.88
   1 -12 -10   -2.17    3.17
   1  12 -10   -2.15    2.73
   1 -12 -10    2.13    2.90
  -1 -12  10    7.59    6.85
   1 -12  -9    1.31    2.17
   1 -12  -9    0.00    4.08
   1  12  -9   -4.45    3.87
  -1 -12   9   -1.11    2.10
   1  12  -9    0.04    1.66
   1 -12  -8   -0.97    1.66
   1 -12  -8    1.11    1.02
  -1 -12   8    0.00    2.27
   1  12  -8    3.65    4.12
   1  12  -8    0.45    2.05
   1 -12  -7    4.97    3.71
   1 -12  -7    5.39    5.14
   1  12  -7    3.62    3.66
  -1 -12   7    3.22    2.64
   1  12  -7    3.44    3.60
   1 -12  -6   -0.41    1.29
   1  12  -6   -4.55    3.80
   1  12  -6    0.97    2.35
  -1 -12   6    2.37    3.63
   1 -12  -5    0.76    2.94
   1  12  -5   -0.78    2.70
  -1 -12   5    6.37    5.80
   1  12  -5    3.25    3.94
  -1 -12   4   -3.88    3.71
   1 -12  -4    0.28    1.00
   1  12  -4    3.99    3.80
   1  12  -4    3.13    4.04
   1  12  -3    2.69    1.74
   1 -12  -3   -2.09    2.93
   1  12  -3    2.02    2.01
  -1 -12   3    4.80    5.39
   1  12  -2    6.02    4.43
   1 -12  -2   11.49    7.64
   1  12  -2   11.84    6.31
  -1 -12   2   10.12    6.19
   1  12  -1    1.84    0.59
   1 -12  -1    3.90    5.40
   1  12  -1    3.82    3.60
  -1 -12   1    1.00    1.66
   1  12   0    0.57    1.34
   1  12   0   -0.48    1.84
   1 -12   0    1.19    3.33
  -1 -12   0    2.76    3.45
   1  12   1    3.63    4.12
   1 -12   1    0.97    3.15
  -1 -12  -1    0.29    1.91
   1  12   1   -1.67    3.31
   1  12   2   -2.24    2.59
   1 -12   2   -0.06    1.50
   1  12   2   -0.52    2.76
  -1 -12  -2    6.22    6.36
   1  12   3   -0.32    0.99
   1 -12   3    4.01    5.02
   1 -12   3   -0.61    1.24
   1  12   3   -0.38    2.03
  -1 -12  -3    2.25    4.77
   1  12   4   -7.71    4.81
   1 -12   4    1.77    3.60
   1  12   4    3.55    3.99
   1 -12   4    0.07    0.84
  -1 -12  -4   -3.60    3.57
   1  12   5    2.06    2.99
   1 -12   5   13.03    7.50
   1  12   5    6.00    4.09
  -1 -12  -5    1.64    2.94
   1 -12   5    1.11    2.06
   1 -12   6    1.74    2.40
   1  12   6    1.43    1.72
   1 -12   6   -0.83    1.94
   1  12   6    0.48    1.79
   1  12   7   -1.87    2.47
   1  12   7    0.00    0.62
   1 -12   7    0.83    1.95
   1  12   8    0.15    0.31
   1 -12   8    0.57    3.46
   1  12   8   -1.46    3.03
   1  12   9    2.97    3.92
   1 -12   9    3.36    6.21
   1  12   9    0.16    1.30
   1  12  10    1.03    3.57
   1 -12  10   -2.97    3.85
   1  12  10   -2.06    2.66
   1 -12  11   -4.51    4.72
  -1 -12 -11   -0.63    1.78
   1  12  11    0.08    0.79
   1 -12  12    1.31    5.24
   1 -13 -12   -0.01    2.94
   1 -13 -11    0.74    2.96
  -1  13  11   -1.06    1.98
   1  13 -11    0.01    0.23
   1 -13 -11    0.91    1.91
  -1  13  10    0.67    1.87
   1 -13 -10    0.52    2.61
   1  13 -10    1.09    3.19
   1 -13  -9    0.01    1.69
   1  13  -9   -0.23    1.74
   1  13  -9   -2.90    3.31
  -1 -13   9    0.01    1.44
   1  13  -8    2.34    2.55
   1 -13  -8   -0.05    3.52
   1  13  -8    0.26    1.00
  -1 -13   8    0.57    2.77
   1 -13  -7    0.37    1.30
   1  13  -7    1.54    2.00
  -1 -13   7    0.69    4.12
   1  13  -7    0.63    2.21
   1 -13  -6   -2.18    3.15
   1  13  -6   -1.42    2.25
   1  13  -6   -2.36    2.93
  -1 -13   6    0.70    2.17
   1 -13  -5    0.81    2.77
   1  13  -5   -0.04    0.41
  -1 -13   5   -1.79    2.66
   1  13  -5    8.31    6.36
   1 -13  -4    2.78    5.38
   1  13  -4    1.78    2.16
  -1 -13   4    2.84    3.97
   1  13  -4    3.57    3.76
  -1 -13   3   -3.68    3.79
   1 -13  -3    2.51    5.02
   1  13  -3    2.55    1.04
   1  13  -3    4.75    4.54
   1 -13  -2   -0.59    1.63
   1  13  -2   -4.88    4.07
   1  13  -2   -0.49    2.72
  -1 -13   2    3.06    3.93
   1  13  -1   -4.50    3.13
   1 -13  -1   -4.58    4.54
   1  13  -1    0.66    1.63
  -1 -13   1    0.00    2.10
  -1 -13   0    1.11    1.91
   1  13   0   -0.02    3.75
   1 -13   0   -0.12    0.74
   1  13   0    1.66    3.61
   1  13   1   -0.63    1.46
   1 -13   1    0.01    2.51
   1  13   1    0.52    1.97
  -1 -13  -1   -1.53    2.44
   1  13   2   -2.89    3.12
   1 -13   2    0.74    3.60
  -1 -13  -2   -5.43    4.59
   1  13   2    1.06    1.67
   1  13   3    0.15    1.01
   1 -13   3    6.72    7.08
  -1 -13  -3    1.22    2.19
   1  13   3   -0.78    1.67
   1  13   4    0.64    1.48
   1 -13   4    1.15    2.40
   1 -13   4   -2.48    2.64
  -1 -13  -4    1.98    4.23
   1  13   4   -0.21    1.85
   1  13   5    0.25    1.06
   1 -13   5    1.97    4.33
   1  13   5    6.41    5.34
   1 -13   5    0.01    1.56
   1  13   6    1.44    2.72
   1 -13   6    2.85    4.32
   1  13   6    5.53    4.89
   1  13   7    1.07    1.52
   1  13   7    0.00    3.50
   1 -13   7   10.67    8.49
   1  13   8    0.52    1.21
   1 -13   8    0.83    3.94
   1  13   8    2.84    3.58
   1  13   9    0.23    1.99
   1  13   9    0.95    2.50
   1 -13   9    1.31    2.63
   1 -13  10    0.35    2.22
   1  13  10   -2.75    3.12
   1  13  10   -4.31    4.07
   1 -14  -6    0.37    1.51
   1 -14  -5   -1.06    2.28
   1 -14  -4   -2.89    3.74
   1 -14  -3   -0.01    0.32
   1 -14  -2    1.56    3.62
   1 -14  -1    4.30    6.57
   1 -14   0   -5.32    5.14
   1 -14   1   -0.29    1.53
   1 -14   2   -0.96    2.20
   1 -14   3   -2.69    3.71
   1 -14   4    3.05    4.35
   1 -14   5    2.26    6.16
   1 -14   6    2.40    5.69
   2   0 -23    1.90    2.89
  -2   0  23    1.10    4.41
   2   0 -23    0.07    4.46
   2   0 -22    4.25    3.01
  -2   0  22    8.51    6.85
   2   0 -22    2.36    5.54
   2   0 -21    2.05    1.26
   2   0 -21   -3.06    3.71
  -2   0  21   -0.19    3.10
   2   0 -20   -1.25    2.14
  -2   0  20   -0.47    2.32
   2   0 -20   -2.40    3.19
   2   0 -19   -3.61    3.49
  -2   0  19   -0.81    2.00
   2   0 -19   -1.27    2.57
   2   0 -18    5.83    3.77
   2   0 -18    0.79    1.75
  -2   0  18    5.03    6.46
   2   0 -17    1.30    2.24
  -2   0  17   -0.57    1.76
   2   0 -17    0.52    2.76
   2   0 -16    4.19    0.83
  -2   0  16    2.78    4.17
   2   0 -16   23.12    8.78
   2   0 -15   -4.34    3.29
  -2   0  15   -0.37    1.45
   2   0 -15    1.03    3.15
  -2   0  14   23.94    7.97
   2   0 -14   21.51    7.34
   2   0 -14   31.92   10.11
   2   0 -13   -0.53    1.36
  -2   0  13    1.14    2.28
   2   0 -13    2.78    3.18
  -2   0  12  175.78   25.93
   2   0 -12  216.49   29.43
   2   0 -12  201.14   25.52
   2   0 -11    3.19    2.44
   2   0 -11    1.03    2.19
   2   0 -11    0.60    2.13
  -2   0  11    4.93    3.76
   2   0 -10  216.13   29.80
   2   0 -10  390.42   38.77
  -2   0  10  283.57   33.58
   2   0 -10  304.35   31.71
  -2   0   9   -0.48    1.14
   2   0  -9   -1.30    0.76
   2   0  -9    6.40    3.86
   2   0  -9   -4.38    2.66
   2   0  -8    1.70    1.51
   2   0  -8    3.27    2.11
   2   0  -8   -0.31    1.46
  -2   0   8    0.42    2.43
   2   0  -7    0.04    1.37
   2   0  -7    1.38    2.54
  -2   0   7   -1.08    2.27
   2   0  -7    0.65    0.96
   2   0  -6  230.67   27.97
   2   0  -6  289.03   30.99
   2   0  -6  249.05   28.53
   2   0  -6  192.00   26.98
  -2   0   6  211.22   28.83
   2   0  -6  225.66   23.09
   2   0  -5    1.08    1.07
   2   0  -5    1.14    0.49
   2   0  -5    1.04    0.66
  -2   0   5    1.39    3.47
   2   0  -5   -2.97    3.03
   2   0  -5    2.07    1.71
   2   0  -4  366.25   36.39
   2   0  -4  330.89   34.18
   2   0  -4  360.98   37.20
   2   0  -4  298.00   34.83
   2   0  -4  302.56   28.33
   2   0  -3   -0.34    1.52
   2   0  -3   -1.08    2.18
   2   0  -2  144.12   19.08
   2   0  -2  108.37   17.75
   2   0  -2  137.85   16.51
   2   0  -2  149.48   20.06
   2   0  -1    2.02    1.75
   2   0  -1    0.99    1.23
   2   0  -1    2.86    1.93
   2   0   0   53.10    8.45
   2   0   0   59.28   10.76
   2   0   0   75.05   12.28
   2   0   0   51.74   10.46
   2   0   1    2.15    3.11
   2   0   1    0.19    0.88
  -2   0  -1    0.72    1.24
   2   0   1    4.27    4.76
  -2   0  -1    1.33    0.75
   2   0   2 2041.60  166.73
   2   0   2 2009.16  162.72
   2   0   2 2078.00  168.14
  -2   0  -2 1885.46  160.98
  -2   0  -2 1750.15  159.59
  -2   0  -3   -1.44    0.92
  -2   0  -3    1.01    0.72
   2   0   3   -0.03    0.55
   2   0   3    1.74    1.13
   2   0   3   -0.85    2.61
  -2   0  -4    8.83    3.00
   2   0   4   13.07    4.32
   2   0   4    9.01    3.31
  -2   0  -4    8.11    1.79
   2   0   4   11.41    4.53
  -2   0  -5   -0.40    0.95
   2   0   5    1.50    1.52
   2   0   5    1.20    2.27
   2   0   5   -1.76    1.59
  -2   0  -6   11.55    4.07
   2   0   6   18.66    5.60
   2   0   6   18.64    6.02
  -2   0  -7    0.98    1.55
   2   0   7   -0.80    0.59
   2   0   7    5.20    3.32
  -2   0  -8    9.07    3.87
   2   0   8   13.67    5.02
   2   0   8    3.11    1.05
   2   0   9   -1.50    2.89
  -2   0  -9   -0.17    1.31
  -2   0 -10   33.86    9.42
   2   0  10   25.25    7.21
   2   0  11   -1.47    2.68
  -2   0 -11    2.55    3.26
  -2   0 -12   85.11   16.42
   2   0  12   66.84   13.30
  -2   0 -13   -1.81    4.11
   2   0  13    1.89    3.01
  -2   0 -14    7.80    4.35
  -2   0 -14    8.49    5.72
   2   0  14    2.76    2.82
  -2   0 -15    1.99    2.18
  -2   0 -15    1.69    3.42
   2   0  15    0.42    0.97
  -2   0 -16    8.20    4.65
  -2   0 -16   18.55    8.47
   2   0  16   27.77    8.79
  -2   0 -17   -3.88    3.90
   2   0  17    5.22    4.05
  -2   0 -18   17.34    9.56
   2   0  18   16.21    6.95
   2   0  19    1.33    3.64
  -2   0 -19    0.12    2.02
  -2   0 -20    0.55    3.90
   2   0  20    7.73    6.69
  -2   0 -21   -3.11    3.98
   2   0  21   -1.36    2.19
  -2   0 -22   -5.59    5.47
  -2  -1  24   -0.10    3.41
   2   1 -23    0.09    0.63
   2  -1 -23   -0.83    2.72
  -2  -1  23   -0.03    0.40
   2   1 -23    1.40    3.78
  -2   1  23    1.25    4.26
   2   1 -22    1.37    4.04
   2  -1 -22   -2.99    3.54
  -2   1  22    1.71    2.56
  -2  -1  22   -8.60    6.42
   2   1 -22   -2.40    3.44
   2  -1 -22    1.60    3.30
   2   1 -21    1.17    2.64
   2  -1 -21    9.96    6.85
  -2  -1  21    0.35    3.33
  -2   1  21    0.84    4.23
   2   1 -21    1.30    1.00
   2  -1 -21    1.91    4.33
   2   1 -20    2.34    1.33
   2  -1 -20    0.26    2.26
   2  -1 -20   10.28    6.92
  -2  -1  20    5.96    6.28
  -2   1  20    6.61    6.56
   2   1 -20    5.23    5.54
   2   1 -19    2.83    3.07
   2  -1 -19    0.10    1.86
  -2  -1  19    0.35    1.87
  -2   1  19    6.63    7.09
   2  -1 -19    2.99    4.36
   2   1 -19    8.25    6.65
   2   1 -18    4.11    4.67
   2  -1 -18    0.88    1.75
  -2  -1  18    0.45    2.18
  -2   1  18   -0.75    0.39
   2   1 -18    0.14    2.22
   2  -1 -18    4.33    3.46
   2   1 -17    3.47    3.12
   2  -1 -17    2.71    4.13
  -2  -1  17    2.77    3.92
  -2   1  17    5.27    6.25
   2   1 -17    2.65    4.02
   2  -1 -17   -0.50    1.06
  -2   1  16    0.68    0.75
   2   1 -16    0.02    2.02
   2  -1 -16    0.76    1.64
  -2  -1  16    0.90    3.17
   2   1 -16   -3.06    3.24
   2  -1 -16   -1.30    1.93
   2   1 -15    1.95    1.60
   2  -1 -15    3.61    3.03
  -2  -1  15    6.55    3.86
  -2   1  15    9.55    4.61
   2   1 -15    4.90    5.42
   2  -1 -15   14.31    6.40
  -2  -1  14    5.27    4.20
   2   1 -14    8.19    4.21
   2  -1 -14    7.18    4.08
   2  -1 -14    8.83    5.47
  -2   1  14   10.67    5.21
   2   1 -14    7.46    5.96
  -2   1  13  225.86   29.90
   2   1 -13  250.71   32.37
  -2  -1  13  222.69   28.47
   2  -1 -13  257.61   29.11
   2  -1 -13  285.45   33.15
   2   1 -13  128.77   22.58
   2   1 -13  243.70   28.47
  -2  -1  12  115.38   18.18
  -2   1  12  108.46   18.58
   2   1 -12  145.45   22.55
   2  -1 -12  143.46   21.04
   2   1 -12   72.62   14.20
   2   1 -12  104.39   16.56
   2  -1 -12  121.52   17.61
   2   1 -11    9.92    4.07
   2  -1 -11   11.79    4.39
  -2  -1  11   16.46    6.13
  -2   1  11   12.61    5.40
   2   1 -11   16.09    5.93
   2  -1 -11   20.17    7.29
   2   1 -11    7.85    4.22
  -2  -1  10  104.24   16.15
  -2   1  10   99.81   17.22
   2   1 -10  123.75   19.45
   2  -1 -10  131.24   19.02
   2   1 -10   81.91   14.61
   2   1 -10   95.12   14.81
   2  -1 -10   88.84   14.06
   2   1  -9    9.77    3.55
   2  -1  -9    6.47    3.55
  -2  -1   9    9.31    4.07
   2   1  -9    9.22    5.66
   2  -1  -9   12.64    5.33
  -2   1   9    8.91    4.71
   2   1  -9    2.63    1.34
   2   1  -8   -0.96    1.78
   2   1  -8    0.68    1.45
   2  -1  -8    1.07    1.14
   2  -1  -8   -0.35    2.56
  -2   1   8    4.04    3.16
  -2  -1   8   -1.94    1.93
   2   1  -8    1.80    3.67
   2  -1  -8    0.89    3.18
   2   1  -7   56.31   11.93
  -2  -1   7   59.06   11.50
   2  -1  -7   84.88   14.71
   2  -1  -7   52.07    8.93
   2   1  -7   98.56   16.13
   2   1  -7   61.96    9.47
  -2   1   7   74.06   14.11
   2  -1  -7   83.79   13.73
   2  -1  -6  118.03   17.72
   2   1  -6  123.08   16.76
   2   1  -6   90.72   17.40
   2  -1  -6  124.06   18.03
  -2  -1   6   93.40   16.11
  -2   1   6  112.10   18.72
   2   1  -6   96.09   15.89
   2   1  -6  142.07   20.08
   2  -1  -6  126.60   17.56
   2   1  -6   97.49   12.53
   2  -1  -6  102.17   12.60
   2   1  -5    5.08    1.85
   2   1  -5    2.89    2.37
   2  -1  -5    4.72    1.89
   2  -1  -5    7.33    4.15
   2   1  -5    0.96    1.43
   2   1  -5    2.01    3.52
   2  -1  -5    9.15    3.86
  -2  -1   5    3.40    2.88
  -2   1   5    2.57    2.78
   2   1  -5    3.28    2.95
   2  -1  -5    5.83    2.53
   2  -1  -5    6.42    3.65
   2  -1  -4  121.31   17.52
   2   1  -4  124.19   16.79
   2  -1  -4  140.23   17.99
   2   1  -4  172.22   21.37
   2   1  -4  131.73   18.40
   2  -1  -4  116.50   16.91
   2   1  -4  113.08   17.39
   2   1  -4  124.35   11.78
   2  -1  -4  110.40   11.25
  -2  -1   4   69.66   10.77
   2  -1  -4  117.85   16.30
   2   1  -3   27.99    7.13
  -2  -1   3    8.82    2.18
   2  -1  -3   21.43    6.49
   2   1  -3   19.85    5.17
   2   1  -3   25.33    5.50
   2  -1  -3   22.64    5.97
   2   1  -3   24.50    7.24
   2   1  -3   25.72    7.82
   2  -1  -3   27.24    7.04
   2  -1  -3   23.62    6.78
   2  -1  -3   19.69    2.63
   2  -1  -2  167.99   21.66
   2   1  -2  159.61   20.71
   2   1  -2  168.47   21.86
   2   1  -2  153.82   17.85
   2  -1  -2  162.88   19.63
   2   1  -2  189.50   24.20
   2  -1  -2  164.42   20.91
  -2  -1   2  157.63   19.81
   2  -1  -2  142.80   20.44
   2   1  -2  159.13   21.25
   2   1  -1   79.42   13.40
   2  -1  -1   83.90   14.66
   2   1  -1   67.11    9.55
   2  -1  -1   70.70   11.30
   2   1  -1   74.70   12.35
   2   1  -1   89.75   14.91
   2   1  -1   71.72   12.80
  -2  -1   1   80.57   11.81
   2  -1  -1   95.51   14.07
   2  -1  -1   69.41   12.60
   2   1   0   18.72    5.76
   2  -1   0   18.21    6.80
   2   1   0   17.62    3.87
   2   1   0   16.31    5.38
   2  -1   0   13.66    4.45
   2   1   0   22.49    6.43
  -2  -1   0   13.15    4.17
   2  -1   0   17.12    5.45
   2  -1   0   16.80    5.69
   2  -1   1  698.00   59.59
   2   1   1  622.07   57.43
  -2  -1  -1  595.95   50.89
   2   1   1  698.94   59.53
   2   1   1  638.33   52.86
   2  -1   1  662.87   55.85
   2  -1   1  611.20   57.86
  -2   1  -1  513.12   50.52
   2  -1   1  514.83   50.35
  -2  -1  -1  725.21   55.39
   2   1   1  680.78   59.47
   2  -1   2 1284.34   96.23
   2   1   2 1155.94   94.02
   2   1   2 1137.50   95.48
  -2   1  -2  856.19   87.23
   2   1   2 1087.19   88.65
   2  -1   2 1201.52   92.53
   2  -1   2 1118.99   94.74
   2  -1   2  895.76   87.04
  -2  -1  -2 1035.85   87.80
  -2   1  -2  942.64   87.53
  -2  -1  -2 1034.96   89.52
   2   1   2 1300.32   96.92
   2  -1   3  232.55   24.76
   2   1   3  201.00   23.08
   2   1   3  233.70   25.34
   2   1   3  207.67   19.41
   2  -1   3  229.27   22.05
  -2  -1  -3  195.87   19.37
  -2   1  -3  152.87   16.62
   2   1   3  163.27   22.24
  -2   1  -3  166.09   18.87
  -2  -1  -3  189.80   19.24
   2   1   4    2.54    2.43
  -2  -1  -4    1.17    0.88
   2  -1   4    2.74    0.32
   2   1   4   -0.51    2.17
   2   1   4    1.56    1.31
   2  -1   4    0.41    1.49
  -2   1  -4    0.51    1.21
  -2  -1  -4    1.36    1.00
   2  -1   5  121.35   16.19
   2   1   5  106.80   14.83
   2  -1   5  110.20   13.82
   2   1   5  103.64   11.86
  -2  -1  -5   74.95   10.10
   2   1   5  121.80   17.25
  -2  -1  -5   83.32   12.35
  -2   1  -5   81.09   12.36
  -2   1  -6    7.87    3.13
  -2  -1  -6    7.45    3.09
   2  -1   6   10.63    4.25
   2   1   6    8.35    3.97
   2  -1   6   10.62    3.47
   2   1   6   12.84    5.36
  -2   1  -7   26.38    6.82
  -2  -1  -7   24.20    6.77
   2  -1   7   26.48    7.69
   2   1   7   28.90    7.26
   2   1   7   19.77    6.11
  -2   1  -8    8.15    3.87
  -2  -1  -8    9.49    4.22
   2  -1   8   11.11    5.70
   2   1   8   13.68    4.69
   2   1   8    3.16    1.68
  -2   1  -9   17.74    6.80
   2   1   9    6.09    3.69
   2   1   9    6.78    3.53
   2  -1   9    8.54    3.81
  -2  -1  -9   10.79    4.54
  -2   1 -10   10.94    4.95
  -2  -1 -10    7.76    4.36
   2  -1  10    6.16    3.74
   2   1  10    7.31    4.07
   2   1  10    8.88    3.79
  -2   1 -11   26.36    7.60
  -2  -1 -11   24.81    7.87
   2  -1  11   24.36    7.35
   2   1  11   27.70    7.62
   2   1  11   20.37    6.08
  -2   1 -12   13.13    4.91
  -2  -1 -12   14.72    6.84
   2   1  12   12.30    4.95
   2  -1  12   12.19    5.29
  -2   1 -13   10.95    4.38
  -2   1 -13   18.54    7.85
  -2  -1 -13   23.74    8.78
   2   1  13   18.30    6.53
   2  -1  13   16.65    6.14
  -2   1 -14    2.25    2.10
  -2   1 -14    4.76    3.51
  -2  -1 -14   12.38    6.28
   2  -1  14    8.22    4.96
   2   1  14    7.55    4.54
  -2   1 -15    0.45    2.04
  -2  -1 -15    2.59    2.99
   2   1  15   -2.39    2.83
   2  -1  15    1.43    2.32
  -2  -1 -16    1.79    2.90
  -2   1 -16   19.56    9.44
  -2  -1 -16   13.60    7.05
   2   1  16    9.18    5.18
   2  -1  16    6.38    4.06
  -2   1 -17    0.26    1.67
  -2  -1 -17   -0.64    2.59
   2   1  17    4.16    3.75
   2  -1  17    0.49    2.72
  -2  -1 -17   -1.13    0.43
  -2  -1 -18    2.58    2.75
  -2   1 -18   -3.09    3.56
  -2  -1 -18   -1.89    2.83
   2   1  18   -0.43    0.56
   2  -1  18    1.37    3.31
  -2   1 -19   11.46    9.17
  -2  -1 -19   15.35   10.99
   2   1  19    3.97    3.36
   2  -1  19   10.38    6.37
  -2   1 -20    6.52    7.45
  -2  -1 -20    1.72    3.41
   2   1  20    5.94    5.28
   2  -1  20    1.88    3.00
  -2   1 -21   -7.05    5.95
  -2  -1 -21    2.95    5.93
   2   1  21    2.07    2.78
   2  -1  21    1.57    2.36
  -2   1 -22   -1.04    2.37
  -2  -1 -22    4.80    5.94
   2  -2 -23    3.79    5.05
   2   2 -23    0.42    4.06
   2   2 -23    1.14    1.35
   2   2 -22   -1.49    2.48
   2  -2 -22   -2.06    2.99
  -2  -2  22   -0.07    2.14
  -2   2  22   -0.23    1.22
   2   2 -22   -3.67    4.36
   2  -2 -22   -1.15    2.31
   2   2 -21    1.11    3.51
   2  -2 -21   -7.91    5.67
  -2   2  21   -3.00    3.76
   2   2 -21   -3.69    4.25
  -2  -2  21    3.19    5.28
   2  -2 -21   -2.30    3.17
   2   2 -20   -6.88    5.00
   2  -2 -20    0.59    1.75
  -2  -2  20    0.71    0.82
  -2   2  20   -0.92    2.42
   2   2 -20   -0.10    1.98
   2  -2 -20    2.45    4.14
   2   2 -19   -2.43    2.86
  -2   2  19    1.19    4.52
   2  -2 -19    2.66    4.54
  -2  -2  19    0.43    0.73
   2   2 -19   -0.80    0.97
   2  -2 -19   -0.56    1.47
   2   2 -18    1.38    0.81
   2  -2 -18    1.02    3.13
   2   2 -18    0.90    4.25
  -2  -2  18   -0.23    1.84
  -2   2  18   -0.26    3.22
   2  -2 -18   -0.12    0.66
   2   2 -17    2.63    2.44
   2  -2 -17   -3.48    3.20
  -2  -2  17    1.10    3.11
  -2   2  17    3.24    5.02
   2   2 -17    4.61    6.19
   2  -2 -17    1.29    4.73
   2   2 -16    2.27    2.66
   2  -2 -16    1.75    2.18
   2  -2 -16    3.50    4.30
  -2  -2  16    3.14    2.78
  -2   2  16   -0.35    2.21
   2   2 -16    2.05    1.88
   2   2 -15    0.14    0.20
   2  -2 -15   -5.78    3.79
  -2  -2  15    3.33    3.01
   2   2 -15   -2.27    2.81
   2  -2 -15    3.49    3.11
  -2   2  15    1.22    0.86
   2   2 -14   10.63    5.50
   2  -2 -14   16.34    6.43
  -2   2  14    7.70    4.63
   2   2 -14   27.65    9.90
   2  -2 -14   19.56    8.12
  -2  -2  14   22.01    7.20
   2   2 -13   12.45    5.38
   2  -2 -13    9.65    4.53
  -2  -2  13   14.56    5.61
  -2   2  13   15.98    6.94
   2   2 -13   17.25    6.74
   2  -2 -13   10.87    5.30
   2   2 -13    8.36    3.84
  -2  -2  12  100.10   16.42
   2   2 -12  139.41   23.13
  -2   2  12  102.70   18.54
   2   2 -12   88.82   15.61
   2  -2 -12  127.40   19.64
   2   2 -12  113.14   17.42
   2  -2 -12  103.15   16.61
   2   2 -11   18.68    6.13
   2   2 -11   12.27    5.28
   2   2 -11   28.79    8.52
   2  -2 -11   14.74    4.96
   2   2 -11   23.54    9.22
  -2  -2  11   24.10    6.62
   2  -2 -11   21.98    7.07
  -2   2  11   19.42    7.43
   2   2 -10   50.99    9.95
   2  -2 -10   48.86    9.44
   2   2 -10   51.08   10.59
  -2   2  10   53.48   12.07
   2   2 -10   19.51    7.54
  -2  -2  10   44.42    9.19
   2   2 -10   57.91   13.59
   2  -2 -10   53.17   11.07
   2   2  -9    2.30    0.15
   2   2  -9    2.09    1.99
   2  -2  -9    1.14    1.73
   2  -2  -9    5.31    4.75
  -2   2   9    2.39    1.95
   2   2  -9    1.60    0.54
  -2  -2   9   -0.56    1.28
   2   2  -9    2.04    2.73
   2  -2  -9    3.76    3.64
   2   2  -8   75.29   13.30
  -2   2   8   87.96   15.77
   2  -2  -8  106.69   17.65
   2   2  -8   47.66   11.51
  -2  -2   8   41.82    9.74
   2  -2  -8   91.51   14.49
   2   2  -8   83.12   11.82
   2   2  -8   98.27   17.34
   2  -2  -8   71.80   11.09
   2   2  -7   31.19    6.51
   2   2  -7   16.19    6.40
   2   2  -7   31.84    7.95
   2  -2  -7   26.49    5.99
   2  -2  -7   35.42    9.04
  -2  -2   7   18.16    5.75
  -2   2   7   35.67   10.02
   2  -2  -7   32.85    7.68
   2   2  -7   45.88   11.71
   2   2  -6  154.79   19.34
   2   2  -6  148.18   20.70
  -2   2   6  155.23   23.25
   2  -2  -6  184.46   22.48
  -2  -2   6   84.63   16.08
   2   2  -6  182.39   24.60
   2  -2  -6  155.06   19.64
   2   2  -6  127.68   19.07
   2   2  -6  152.50   16.60
   2  -2  -6  118.52   15.26
   2  -2  -5   25.80    7.16
   2   2  -5   19.20    6.32
   2   2  -5   17.67    5.17
   2  -2  -5   14.21    3.55
   2  -2  -5   23.54    7.13
  -2   2   5   15.39    6.98
   2   2  -5   23.80    8.44
   2   2  -5   15.41    6.57
   2  -2  -5   18.16    6.01
  -2  -2   5    6.86    3.26
   2   2  -5   25.15    4.81
   2  -2  -4  220.56   26.51
   2   2  -4  210.51   24.32
   2   2  -4  209.80   25.79
   2  -2  -4  224.18   25.44
   2  -2  -4  153.93   19.03
   2   2  -4  265.58   30.87
   2  -2  -4  214.08   24.42
   2   2  -4  186.07   24.26
  -2  -2   4  233.02   26.65
   2   2  -4  197.91   20.14
   2  -2  -3  680.71   61.46
   2   2  -3  616.79   59.11
   2   2  -3  708.75   61.62
   2  -2  -3  674.21   59.13
   2  -2  -3  672.22   59.83
   2   2  -3  739.70   66.68
  -2  -2   3  742.19   61.52
   2   2  -3  619.42   59.90
   2  -2  -3  477.69   52.46
   2  -2  -2  267.40   27.56
   2   2  -2  231.56   24.59
   2   2  -2  254.75   26.91
   2  -2  -2  242.19   25.14
  -2  -2   2  289.42   26.60
   2   2  -2  317.63   31.54
   2  -2  -2  247.10   24.80
   2   2  -2  256.86   26.54
   2  -2  -2  141.18   17.93
  -2  -2   2  155.31   18.39
   2  -2  -1    8.43    2.09
   2   2  -1   24.35    6.43
   2  -2  -1   15.55    5.75
   2   2  -1   13.73    4.68
   2   2  -1   18.34    5.90
   2  -2  -1    9.59    4.50
  -2  -2   1    6.84    2.03
   2  -2  -1    7.72    4.03
  -2  -2   1   14.62    4.89
  -2  -2   1    8.15    2.21
   2   2   0   66.80   11.69
   2   2   0   59.13    6.87
  -2  -2   0   44.40    6.06
   2  -2   0   77.79   12.45
   2   2   0   61.76   10.47
   2   2   0   67.85   11.48
   2  -2   0   61.53   10.42
   2  -2   0   57.81   10.82
  -2  -2   0   70.60   10.38
  -2  -2   0   40.42    6.42
   2  -2   0   42.71    6.26
   2   2   1   36.47    8.39
   2   2   1   33.18    4.70
   2  -2   1   32.16    7.51
   2  -2   1   48.23    9.63
   2   2   1   34.16    7.60
   2   2   1   47.17    9.59
   2  -2   1   44.75    8.32
  -2  -2  -1   30.23    5.22
  -2  -2  -1   45.28    7.81
   2  -2   2  107.76   15.36
   2   2   2   95.51   13.54
   2   2   2   71.93    8.74
   2  -2   2  103.18   14.03
  -2  -2  -2   82.12   11.70
   2   2   2  117.67   15.73
   2   2   2  115.52   16.03
  -2   2  -2   66.68   10.07
  -2  -2  -2   87.24   10.58
   2  -2   3  678.40   49.93
   2   2   3  656.89   47.14
   2   2   3  799.40   50.89
   2   2   3  561.04   39.09
   2  -2   3  765.45   48.25
  -2   2  -3  283.24   36.44
  -2  -2  -3  472.22   41.68
   2   2   3  807.61   52.00
  -2   2  -3  563.65   42.33
  -2  -2  -3  686.35   43.43
   2  -2   4 1294.14  103.47
   2   2   4 1099.61  100.29
   2   2   4 1329.20  103.33
   2   2   4  962.99   94.65
   2  -2   4 1281.98  101.18
   2   2   4 1251.52  104.50
  -2  -2  -4 1027.04   96.84
  -2   2  -4 1077.73   98.25
  -2  -2  -4 1192.89   98.70
   2  -2   5  652.07   55.27
   2   2   5  565.41   52.65
   2   2   5  570.10   54.31
   2  -2   5  657.12   53.42
  -2  -2  -5  511.25   48.60
   2   2   5  610.91   55.00
  -2   2  -5  394.48   49.24
  -2  -2  -5  459.77   50.20
   2   2   6    6.64    3.95
  -2  -2  -6    2.09    2.34
   2   2   6    2.84    2.03
   2  -2   6    4.44    3.11
   2  -2   6    3.13    1.90
   2   2   6    3.54    5.24
  -2   2  -6    0.37    0.69
  -2  -2  -6    1.92    0.93
  -2   2  -7   33.54    8.10
  -2  -2  -7   43.63    9.34
   2  -2   7   51.60   10.10
   2   2   7   56.56   11.16
   2   2   7   45.48    9.07
   2   2   7   25.96    7.40
   2   2   8   32.22    7.80
   2   2   8   32.64    7.62
  -2   2  -8   44.54    9.64
  -2  -2  -8   36.22    8.76
   2   2   8   12.10    5.37
   2  -2   8   42.14    9.46
  -2   2  -9   12.96    5.04
  -2  -2  -9   17.82    5.94
   2  -2   9   19.81    6.21
   2   2   9   16.39    5.52
   2   2   9   22.10    6.45
  -2   2 -10    0.58    2.03
  -2  -2 -10    3.27    3.17
   2  -2  10    6.22    3.88
   2   2  10    4.86    4.19
   2   2  10    1.86    1.96
  -2   2 -11    4.98    3.89
  -2  -2 -11    4.18    2.41
  -2   2 -11    1.80    1.46
   2  -2  11    5.07    3.14
   2   2  11    4.45    3.08
   2   2  11    5.78    3.59
  -2   2 -12    1.20    1.16
  -2   2 -12    3.47    3.52
  -2  -2 -12   -1.57    3.10
   2  -2  12    2.70    3.32
   2   2  12    1.63    2.33
   2   2  12    3.17    2.37
  -2   2 -13    4.90    3.39
  -2  -2 -13    1.86    3.29
   2  -2  13    0.15    0.61
   2   2  13    3.51    3.29
  -2   2 -14   -1.32    2.18
  -2  -2 -14   -0.82    2.11
   2  -2  14    0.84    2.59
   2   2  14    1.57    1.55
  -2   2 -15    0.90    1.66
  -2  -2 -15    2.67    3.01
   2  -2  15    3.50    2.23
   2   2  15   -1.33    2.48
  -2   2 -16    0.94    2.63
  -2  -2 -16   -0.10    0.65
   2  -2  16    1.94    3.49
   2   2  16   -0.91    1.52
  -2  -2 -17    0.08    1.09
  -2   2 -17    5.37    6.32
  -2  -2 -17    9.02    6.94
   2  -2  17    3.00    2.88
   2   2  17    5.41    3.59
  -2  -2 -18    0.24    1.37
  -2   2 -18    0.28    5.01
  -2  -2 -18    5.12    5.94
   2  -2  18    2.94    3.25
   2   2  18    2.82    3.59
  -2  -2 -19   -4.54    3.84
  -2   2 -19    0.85    4.16
  -2  -2 -19    0.01    2.50
   2  -2  19    2.53    0.97
   2   2  19   -1.73    2.30
  -2   2 -20    4.78    6.02
  -2  -2 -20    0.61    3.88
   2  -2  20    1.38    2.39
   2   2  20    2.34    4.45
   2  -2  21   -0.62    1.50
  -2   2 -21    2.60    6.25
   2   2  21   -0.32    1.45
  -2   2 -22    2.22    5.08
  -2  -2 -22   -3.37    4.34
   2  -2  22    1.49    2.75
   2   3 -23    0.04    1.74
   2   3 -23    0.88    1.38
   2   3 -22   -4.93    4.55
   2  -3 -22    0.94    2.62
  -2   3  22   -2.12    3.32
   2   3 -22    2.30    3.98
   2  -3 -22   -2.44    3.37
  -2  -3  22   -3.65    4.41
   2   3 -21    0.23    1.39
   2  -3 -21    0.60    2.72
  -2   3  21    3.34    5.91
   2   3 -21   -3.21    4.00
   2  -3 -21   -1.92    2.89
   2   3 -20    0.63    1.91
   2  -3 -20    4.11    4.55
  -2   3  20   -0.51    3.75
   2   3 -20   -2.23    4.31
   2  -3 -20   -1.83    3.38
   2   3 -19   -2.19    2.76
   2  -3 -19   -4.81    4.11
  -2  -3  19    1.50    3.86
  -2   3  19   -1.37    5.31
   2   3 -19   -3.07    3.71
   2  -3 -19    0.19    1.88
   2   3 -18    3.46    2.14
   2  -3 -18    7.28    5.63
  -2  -3  18    0.70    1.83
  -2   3  18    4.35    3.50
   2   3 -18   10.69    7.35
   2  -3 -18    0.15    0.80
   2   3 -17    2.03    3.46
   2  -3 -17    4.09    4.31
  -2   3  17    7.52    5.02
  -2  -3  17    2.42    3.56
   2   3 -17    7.26    5.63
   2  -3 -17    7.66    5.96
   2   3 -16    6.14    3.79
   2  -3 -16    7.93    5.03
  -2  -3  16    5.36    4.15
  -2   3  16    8.79    5.82
   2   3 -16    8.23    4.56
   2  -3 -16   11.41    6.14
   2   3 -15    0.37    1.81
   2  -3 -15    4.10    3.29
  -2  -3  15    3.33    2.19
  -2   3  15   -0.18    1.54
   2   3 -15    4.51    4.86
   2  -3 -15   -7.97    4.81
   2   3 -14    9.87    5.30
  -2   3  14   15.77    7.53
   2  -3 -14    9.58    4.88
   2   3 -14    2.65    1.36
  -2  -3  14   11.88    4.88
   2   3 -14   11.95    7.37
   2  -3 -14    7.53    4.63
   2   3 -13   29.19    8.18
   2   3 -13   28.38    7.65
   2  -3 -13   42.77   10.11
   2   3 -13   11.60    5.74
  -2  -3  13   42.26    9.56
  -2   3  13   32.90    9.57
   2   3 -13   41.51   12.15
   2  -3 -13   36.57   10.29
   2   3 -12   43.55    9.67
   2   3 -12   24.82    7.61
   2  -3 -12   38.99    9.18
   2   3 -12   33.79   10.52
   2   3 -12    5.70    4.27
  -2  -3  12   31.24    7.91
  -2   3  12   34.83    9.70
   2  -3 -12   48.17   11.23
   2   3 -11   12.23    6.06
   2   3 -11   48.54   10.01
   2  -3 -11   32.84    8.00
   2   3 -11   29.61    8.08
  -2  -3  11   18.69    6.03
  -2   3  11   33.90    9.56
   2   3 -11   53.97   13.47
   2  -3 -11   44.80   10.64
   2   3 -10   57.30   11.85
  -2   3  10   76.76   15.32
   2  -3 -10   66.07   12.07
   2  -3 -10  100.15   18.94
  -2  -3  10   56.93   10.77
   2   3 -10   47.52   11.67
   2   3 -10   64.44   15.57
   2  -3 -10   81.57   14.34
   2   3 -10   81.22   13.16
   2   3  -9   27.71    6.89
   2  -3  -9   14.45    5.12
   2   3  -9   21.98    6.93
   2  -3  -9   27.64    9.52
   2   3  -9   14.95    5.63
  -2   3   9   24.58    8.01
  -2  -3   9   17.26    4.96
   2   3  -9   27.59    9.14
   2  -3  -9   31.76    7.92
   2  -3  -8    2.16    1.91
   2   3  -8    4.48    3.09
   2   3  -8    2.29    2.87
   2  -3  -8   -0.49    2.96
  -2  -3   8    3.66    1.94
  -2  -3   8    4.28    3.05
   2   3  -8    2.87    4.95
  -2   3   8    2.50    2.12
   2  -3  -8    3.53    2.61
   2   3  -8    4.44    2.25
   2   3  -7  101.64   17.52
   2  -3  -7  164.91   22.47
  -2  -3   7  165.50   22.55
   2  -3  -7  122.85   17.41
   2   3  -7  130.86   18.50
  -2  -3   7   92.44   14.30
  -2   3   7  146.37   22.15
   2   3  -7  162.64   24.37
   2   3  -7  111.72   15.58
   2  -3  -7  102.52   14.97
   2   3  -6  158.91   19.81
   2   3  -6  163.94   21.88
   2  -3  -6  151.77   22.19
   2  -3  -6  156.71   20.16
  -2  -3   6  113.96   17.09
  -2   3   6  183.96   26.09
   2   3  -6  209.11   28.36
  -2  -3   6  227.30   26.29
   2   3  -6  140.65   20.36
   2   3  -6  142.27   17.99
   2  -3  -6  125.82   16.94
   2  -3  -5  121.24   18.46
   2   3  -5  130.09   17.17
   2   3  -5  119.51   18.30
   2  -3  -5  140.35   19.60
  -2  -3   5  152.06   21.13
  -2  -3   5   96.28   15.13
  -2   3   5  132.45   21.75
   2   3  -5  147.79   23.33
   2  -3  -5  111.97   16.36
   2   3  -5  127.75   18.14
   2   3  -5  128.62   15.42
   2  -3  -5   97.72   13.91
   2  -3  -4   71.80   14.20
   2   3  -4   68.11   11.98
   2   3  -4   77.81   13.51
   2  -3  -4   76.25   13.92
   2  -3  -4   78.47   12.59
   2   3  -4  102.47   18.50
   2   3  -4   91.37   14.85
  -2  -3   4   98.24   15.64
   2  -3  -3   14.51    5.61
   2   3  -3   11.88    4.76
   2   3  -3   10.99    4.05
   2   3  -3   20.38    8.18
   2  -3  -3   13.86    5.98
   2  -3  -3   12.12    4.39
   2   3  -3   14.87    5.55
  -2  -3   3   17.26    6.05
   2  -3  -2   10.64    5.21
   2   3  -2    8.66    4.84
   2   3  -2    9.45    3.73
  -2  -3   2   10.37    4.57
  -2  -3   2    6.64    1.89
   2  -3  -2   10.33    5.54
   2  -3  -2    8.11    3.29
   2   3  -2    7.50    2.51
   2   3  -1    0.31    2.52
   2  -3  -1    1.54    3.12
   2   3  -1   -0.69    0.35
   2  -3  -1   -0.73    0.45
  -2  -3   1    1.18    0.65
   2  -3  -1    0.80    1.78
   2   3  -1   -1.30    1.99
  -2  -3   1    1.71    1.05
   2   3   0    4.61    3.23
   2  -3   0    6.03    2.66
   2   3   0    6.86    2.88
   2  -3   0    6.58    3.56
   2  -3   0    2.46    2.12
   2   3   0   11.57    5.03
  -2  -3   0   19.75    5.63
   2  -3   1  185.70   24.27
   2   3   1  158.97   20.72
   2   3   1  210.16   24.39
   2  -3   1  171.57   22.38
   2  -3   1  131.70   19.52
  -2  -3  -1  206.87   22.14
   2   3   1  178.27   23.24
   2   3   2   40.04    9.46
   2  -3   2   41.08    9.44
   2   3   2   32.74    7.43
   2  -3   2   47.83    9.40
  -2  -3  -2   49.60    8.66
   2   3   2   45.72   10.31
  -2   3  -2   30.49    6.49
   2  -3   3  190.39   21.07
   2   3   3  220.99   22.32
   2   3   3  170.69   18.08
   2  -3   3  202.35   20.89
  -2  -3  -3  172.88   17.24
  -2   3  -3   69.31   10.55
   2   3   3  202.54   21.90
  -2   3  -3  107.06   14.41
  -2  -3  -3  121.25   14.84
   2  -3   4  161.07   19.45
   2   3   4  170.80   19.59
   2   3   4  145.09   16.48
   2   3   4   76.81   10.02
   2   3   4  101.00    9.85
   2  -3   4  194.25   19.65
  -2   3  -4   85.06   10.87
  -2   3  -4  103.51   14.22
  -2  -3  -4  102.71   13.87
   2   3   4  174.71   19.72
  -2  -3  -4  115.31   14.63
   2   3   5   40.69    8.31
   2   3   5   31.90    8.09
  -2  -3  -5   22.21    6.09
  -2  -3  -5   15.08    4.53
   2  -3   5   26.87    7.25
   2  -3   5   34.46    7.91
   2   3   5   27.64    6.46
  -2   3  -5   13.45    3.09
  -2   3  -5   19.05    5.64
  -2   3  -6   53.36   10.38
   2  -3   6   85.66   13.58
   2   3   6   71.15   11.45
   2   3   6   96.64   14.01
  -2  -3  -6   60.87   11.16
   2  -3   6   92.46   13.65
  -2   3  -6   39.33    6.62
  -2  -3  -6   46.34    8.78
   2   3   6   98.13   14.72
  -2   3  -7    4.63    3.16
   2   3   7    4.48    3.29
  -2  -3  -7    7.69    3.52
   2   3   7    6.10    3.56
   2  -3   7    5.70    2.94
   2  -3   7    5.81    3.24
   2   3   7    5.68    3.19
  -2  -3  -7    3.74    2.68
  -2   3  -8   21.23    6.66
   2   3   8   13.64    4.86
  -2  -3  -8   16.06    5.58
   2  -3   8   14.37    5.24
   2   3   8   16.73    5.56
   2   3   8   17.43    5.60
  -2   3  -8    9.30    2.33
  -2   3  -9    8.27    4.81
   2   3   9    8.25    4.35
   2   3   9    4.15    2.14
  -2  -3  -9   12.54    4.72
   2  -3   9    4.00    3.13
   2   3   9    3.20    2.47
  -2   3 -10   16.00    6.63
   2   3  10    6.70    3.43
  -2  -3 -10    9.85    5.08
   2   3  10    5.29    2.74
   2  -3  10   11.20    5.21
   2   3  10    1.65    1.58
   2   3  11    3.21    2.04
  -2   3 -11    1.38    2.94
  -2  -3 -11    6.81    4.34
   2  -3  11    4.81    2.76
   2   3  11    2.50    2.86
   2   3  11    1.24    1.37
  -2   3 -12   18.05    6.95
  -2  -3 -12    9.18    5.40
   2   3  12    7.65    3.84
   2  -3  12   13.42    5.83
   2   3  12   10.32    4.70
  -2   3 -13    4.75    4.29
  -2  -3 -13    1.93    3.18
   2  -3  13    5.54    4.36
   2   3  13   -2.85    2.34
  -2   3 -14   23.95    8.53
  -2  -3 -14   13.60    6.79
   2  -3  14   21.58    7.56
   2   3  14   10.90    5.13
  -2   3 -15    5.05    3.43
  -2  -3 -15    1.50    3.62
   2  -3  15    1.27    3.23
   2   3  15    4.74    4.05
  -2   3 -16   13.61    7.76
  -2  -3 -16   23.93   10.03
   2  -3  16   10.08    6.52
   2   3  16    9.73    5.08
  -2   3 -17   -0.87    5.43
  -2  -3 -17    4.47    5.06
   2  -3  17    2.69    3.85
   2   3  17    6.28    4.76
  -2   3 -18    5.67    5.07
  -2  -3 -18    2.05    3.86
  -2  -3 -18    3.99    4.84
   2  -3  18    1.74    2.06
   2   3  18   -2.72    2.81
  -2  -3 -19   -2.90    3.18
  -2   3 -19    0.36    3.45
  -2  -3 -19    1.35    3.78
   2  -3  19   -3.27    3.27
   2   3  19    0.48    2.86
  -2  -3 -20    1.80    4.10
  -2   3 -20    2.41    4.86
  -2  -3 -20    6.47   13.38
   2  -3  20    0.74    2.70
   2   3  20    2.18    2.33
  -2   3 -21   -3.48    4.23
  -2  -3 -21   -3.94    4.54
   2  -3  21    1.56    4.00
  -2  -3 -21    1.78    3.47
   2  -3  22   -1.63    2.52
   2   4 -23   -4.99    5.38
   2   4 -22    2.01    3.90
   2  -4 -22    2.11    2.66
   2   4 -22    0.13    2.89
   2   4 -21    4.27    5.50
   2  -4 -21    3.25    4.86
  -2   4  21   -0.01    4.02
   2   4 -21   -0.22    1.08
   2  -4 -21   -3.23    3.77
  -2  -4  21    2.22    6.69
   2   4 -20    3.18    4.69
   2  -4 -20    2.37    4.62
  -2  -4  20    5.42    7.04
  -2   4  20    1.98    2.81
   2   4 -20    5.71    5.86
   2  -4 -20    6.14    5.19
   2   4 -19    0.06    2.07
   2  -4 -19    1.91    4.19
  -2   4  19    0.26    2.81
   2   4 -19    0.01    0.16
   2  -4 -19    0.26    1.03
  -2  -4  19   -0.15    1.95
   2   4 -18   -1.95    2.57
   2  -4 -18    7.60    4.97
  -2   4  18    1.77    4.02
   2   4 -18    3.18    5.26
  -2  -4  18    0.45    2.43
   2  -4 -18    4.22    3.63
   2   4 -17   26.49    9.41
   2  -4 -17   13.67    6.34
  -2  -4  17   23.96   11.05
  -2   4  17   23.03    8.94
   2   4 -17   11.78    7.10
   2  -4 -17   10.50    6.73
   2   4 -16    1.25    2.34
   2  -4 -16    1.78    3.28
  -2   4  16    4.37    2.37
   2   4 -16    4.38    4.88
   2  -4 -16    4.96    5.34
  -2  -4  16    4.34    4.56
   2   4 -15   10.52    5.23
   2  -4 -15    8.14    3.86
  -2  -4  15   11.20    5.38
  -2   4  15    4.04    2.37
   2   4 -15    5.68    4.65
   2   4 -15    0.17    0.86
   2  -4 -15    6.57    4.89
  -2  -4  15    8.38    7.25
   2   4 -14   42.47   10.93
  -2   4  14   35.38   11.12
   2   4 -14    7.42    5.01
   2   4 -14   23.86    7.35
   2  -4 -14   48.04   11.77
  -2  -4  14   45.23   14.03
  -2  -4  14   26.36    7.92
   2   4 -14   35.25   11.81
   2  -4 -14   36.06   10.90
   2   4 -13   30.97    8.54
   2   4 -13   14.71    6.03
   2  -4 -13   25.76    8.20
   2   4 -13   31.94   11.23
  -2  -4  13   18.20    6.07
  -2   4  13   35.70   10.83
  -2  -4  13   33.37   12.32
   2   4 -13    0.34    2.58
   2  -4 -13   22.93    8.21
   2   4 -12   47.30   11.12
   2  -4 -12   33.75    9.24
   2   4 -12   25.80    7.89
   2   4 -12   40.63   12.50
   2   4 -12   10.94    5.80
  -2   4  12   37.21   10.83
  -2  -4  12   33.81    8.04
   2  -4 -12   48.30   10.99
  -2  -4  12   42.97   13.33
  -2  -4  11   -0.14    3.04
   2  -4 -11    2.44    2.53
   2   4 -11    0.37    1.72
   2  -4 -11   -3.64    3.42
  -2  -4  11    0.57    1.27
  -2   4  11   -0.54    1.10
   2   4 -11    6.43    4.19
   2  -4 -11    0.87    1.89
   2   4 -11   -1.24    2.29
   2   4 -10    6.43    3.82
   2  -4 -10   19.66    6.65
   2   4 -10   28.01    8.50
   2  -4 -10   54.32   14.00
  -2  -4  10   20.19    5.56
  -2   4  10   34.45   10.26
   2   4 -10   50.21   13.53
   2  -4 -10   29.50    8.53
  -2  -4  10   30.61   10.36
   2   4 -10   27.78    7.81
   2  -4  -9    5.90    3.52
   2   4  -9    0.42    1.91
  -2   4   9   -2.46    2.31
  -2  -4   9    1.00    1.66
   2   4  -9   -1.14    3.94
   2  -4  -9    0.54    1.61
  -2  -4   9   -2.68    4.19
   2   4  -9    1.37    2.58
   2   4  -9   -0.56    2.00
   2  -4  -8    6.07    3.07
   2   4  -8    1.63    1.63
   2   4  -8    0.72    0.45
   2  -4  -8    2.77    2.35
  -2   4   8    2.89    4.35
  -2  -4   8    2.72    1.79
   2   4  -8    1.37    1.15
   2  -4  -8    4.29    2.88
  -2  -4   8    6.15    5.34
   2   4  -8    4.01    2.08
   2  -4  -7    9.88    3.94
   2   4  -7   10.42    4.26
   2  -4  -7    8.88    4.40
  -2  -4   7    5.33    2.26
   2   4  -7   10.96    3.99
  -2   4   7   10.28    6.69
   2   4  -7   12.31    5.76
   2  -4  -7   10.32    4.65
  -2  -4   7   11.12    5.07
   2   4  -7   13.30    4.79
   2   4  -6   10.78    4.77
   2  -4  -6    4.11    2.06
   2   4  -6    8.26    4.42
  -2   4   6    9.66    6.21
   2  -4  -6    2.91    1.04
  -2  -4   6    4.38    1.99
   2  -4  -6    6.15    3.74
  -2  -4   6    4.73    4.96
   2   4  -6    9.49    5.66
   2   4  -6    9.05    3.72
   2   4  -5    2.54    2.76
   2   4  -5   -1.48    2.02
   2  -4  -5    4.07    2.45
   2   4  -5   -0.31    0.94
  -2  -4   5    0.56    0.66
   2   4  -5    0.98    2.98
  -2   4   5    2.06    3.24
   2  -4  -5    2.17    1.37
  -2  -4   5    2.27    2.86
   2  -4  -4   85.03   15.16
   2   4  -4   63.08   11.84
  -2  -4   4   54.59    9.97
   2  -4  -4   95.20   15.76
   2   4  -4   86.42   14.39
   2  -4  -4   70.08   11.63
  -2  -4   4  117.32   17.29
   2   4  -4   87.88   14.54
   2  -4  -3   35.67    9.85
   2   4  -3   33.03    7.86
   2   4  -3   34.82    8.45
   2  -4  -3   52.92   11.07
   2   4  -3   46.39   10.21
   2  -4  -3   32.60    7.17
  -2  -4   3   48.09   10.55
   2  -4  -2   16.70    6.65
   2   4  -2    9.52    4.20
   2   4  -2   12.71    4.85
  -2  -4   2    6.27    1.61
   2   4  -2   19.47    6.22
   2  -4  -2   15.07    6.20
   2  -4  -2   10.96    3.70
  -2  -4   2   15.20    4.78
   2  -4  -1   36.62    9.86
   2   4  -1   43.28    9.50
   2   4  -1   31.00    7.57
   2   4  -1   37.78    9.19
   2  -4  -1   34.55    8.50
   2  -4  -1   27.26    6.55
  -2  -4   1   40.31    8.95
   2  -4   0    9.79    4.89
   2   4   0    7.44    4.23
   2   4   0    6.90    3.18
   2   4   0    5.75    3.33
   2  -4   0    7.60    4.84
   2  -4   0    5.59    2.60
  -2  -4   0   15.28    5.40
   2  -4   1   51.73   11.64
   2   4   1   47.47   10.60
   2   4   1   67.07   12.33
   2   4   1   41.71    8.55
   2  -4   1   62.60   12.04
   2  -4   1   45.01    8.02
  -2  -4  -1   63.97   11.06
   2  -4   2  117.08   17.24
   2   4   2  141.76   18.72
   2   4   2  115.15   14.80
   2  -4   2  152.29   19.03
   2   4   2  137.56   18.40
   2  -4   2   96.36   11.82
  -2   4  -2   60.97    9.50
  -2  -4  -2  155.60   17.18
   2   4   3   36.69    9.05
   2  -4   3   31.17    8.95
   2   4   3   35.27    8.99
   2  -4   3   42.07    9.48
   2   4   3   19.64    5.72
  -2  -4  -3   41.09    8.02
  -2   4  -3   20.55    5.97
   2   4   4    4.59    2.55
   2  -4   4   -5.48    3.21
   2   4   4    1.77    2.33
   2  -4   4    5.75    3.56
   2   4   4    2.35    1.67
  -2  -4  -4    4.83    2.84
  -2   4  -4    0.54    0.74
  -2   4  -4    4.22    2.96
  -2  -4  -5   19.04    6.03
   2   4   5   29.28    7.39
   2  -4   5   29.28    8.00
   2  -4   5   31.64    8.07
   2   4   5   30.08    7.74
   2   4   5   23.06    6.21
  -2  -4  -5   26.48    6.47
  -2   4  -5   14.22    4.88
  -2  -4  -6   11.02    4.82
   2   4   6   10.71    4.63
   2  -4   6   10.61    4.86
   2  -4   6   16.87    5.62
   2   4   6   13.10    4.34
   2   4   6   11.79    5.36
  -2  -4  -6   15.30    4.59
  -2   4  -6   12.02    5.21
  -2  -4  -7   31.84    8.10
   2   4   7   36.25    8.68
   2  -4   7   35.01    9.19
   2  -4   7   37.53    9.32
   2   4   7   27.08    7.04
  -2  -4  -7   26.04    6.87
   2   4   7   29.41    7.93
  -2   4  -7   31.74    8.66
   2   4   8   19.11    6.53
  -2  -4  -8   19.70    6.33
   2  -4   8   22.98    7.44
   2  -4   8   29.99    9.03
   2   4   8   24.18    6.44
   2   4   8   23.66    6.95
  -2   4  -8   25.80    7.68
  -2   4  -9   13.20    5.92
   2   4   9   14.42    5.02
   2   4   9   13.42    5.52
  -2  -4  -9   16.80    6.29
   2  -4   9   10.30    4.58
   2  -4   9   19.82    6.82
   2   4   9   11.84    4.70
  -2   4 -10   11.04    5.06
   2   4  10   18.37    6.13
  -2  -4 -10   21.91    8.04
   2   4  10   11.65    4.45
   2   4  10    8.55    4.39
   2  -4  10   15.08    5.98
  -2   4 -11   22.39    8.30
   2   4  11   18.26    6.28
  -2  -4 -11   18.91    7.41
   2   4  11    7.44    4.07
   2  -4  11   15.13    6.22
   2   4  11    8.54    4.34
  -2   4 -12   49.04   12.79
   2   4  12   24.46    7.28
   2   4  12   29.77    8.03
  -2  -4 -12   39.62   11.23
   2  -4  12   26.21    8.61
  -2   4 -13   15.70    7.51
  -2  -4 -13   13.73    6.97
   2  -4  13    7.29    4.77
   2   4  13    8.14    4.10
  -2   4 -14   28.62   10.56
  -2  -4 -14   10.27    6.86
   2  -4  14   18.39    7.73
   2   4  14   17.25    6.57
  -2   4 -15    8.96    6.48
  -2  -4 -15    7.68    5.73
   2  -4  15    6.74    5.17
   2   4  15    7.28    4.35
  -2   4 -16   12.90    8.64
  -2  -4 -16    6.19    4.40
   2  -4  16    6.51    5.03
   2   4  16    9.56    5.29
  -2   4 -17    8.94    6.90
  -2  -4 -17   12.96    7.23
   2  -4  17   10.07    6.17
   2   4  17   10.75    5.30
  -2   4 -18    0.16    2.74
  -2  -4 -18   -3.42    3.49
  -2  -4 -18   -5.18    4.74
   2  -4  18    0.69    1.93
   2   4  18    5.29    4.66
  -2   4 -19    5.45    6.78
  -2  -4 -19    0.65    1.58
  -2  -4 -19    0.15    2.77
   2  -4  19    1.25    2.23
   2   4  19    1.84    3.03
  -2   4 -20    4.05    5.58
  -2  -4 -20   -3.91    3.95
  -2  -4 -20    3.10    5.36
   2  -4  20   -2.69    3.09
   2   4  20    0.10    1.25
  -2  -4 -21    0.00    1.18
  -2   4 -21   -4.46    4.85
  -2  -4 -21   -7.88    6.46
   2  -4  21    0.53    2.53
   2  -4  22   -2.46    3.13
  -2  -4 -22   -3.22    3.80
   2   5 -22   -5.20    4.83
   2  -5 -22   -5.42    5.01
   2   5 -22    1.56    3.82
   2   5 -21    0.84    1.89
   2  -5 -21   -3.51    3.89
   2   5 -21    1.02    1.06
   2   5 -20    4.94    4.81
   2  -5 -20    0.12    2.66
  -2   5  20    5.07    6.97
   2   5 -20   14.25    9.39
   2  -5 -20    4.15    5.87
  -2  -5  20    2.45    2.36
   2   5 -19    3.82    4.04
   2  -5 -19   -1.03    2.03
   2  -5 -19    4.43    4.60
  -2   5  19   10.12    7.68
   2   5 -19    4.20    4.78
  -2  -5  19    8.58    7.05
   2   5 -18    1.90    2.34
   2  -5 -18   -0.31    3.27
  -2   5  18   -0.93    4.26
   2   5 -18    5.27    6.17
   2  -5 -18    2.46    3.60
  -2  -5  18    0.01    2.08
   2   5 -17    0.00    1.42
   2  -5 -17   -3.98    3.68
  -2   5  17    0.10    1.73
   2   5 -17    7.40    6.59
   2  -5 -17    0.96    2.39
  -2  -5  17   -8.19    6.02
   2  -5 -16   -2.65    2.90
  -2   5  16    4.08    6.04
   2   5 -16    3.14    5.12
   2  -5 -16    0.18    0.88
  -2  -5  16    1.82    3.28
   2   5 -16   -7.61    4.88
   2  -5 -15    8.84    6.14
  -2   5  15    5.27    4.86
   2   5 -15   -3.91    3.24
   2   5 -15    4.79    5.35
  -2  -5  15    0.44    3.76
   2  -5 -15   -2.85    2.92
   2   5 -15    1.66    3.18
   2  -5 -14    1.18    1.56
   2   5 -14   -2.90    2.57
  -2   5  14    1.11    1.23
   2   5 -14   -1.33    1.87
   2   5 -14   -0.20    3.62
  -2  -5  14    3.77    5.57
   2  -5 -14    2.42    2.07
   2   5 -14    0.31    1.95
   2   5 -13   -3.06    2.80
   2  -5 -13    5.41    4.42
   2   5 -13   -0.13    0.97
  -2   5  13   -1.78    2.17
   2   5 -13    7.17    6.10
  -2  -5  13   -0.18    4.74
   2  -5 -13    4.74    3.83
   2   5 -13    1.27    1.95
   2  -5 -12   20.98    7.56
   2   5 -12   18.79    6.33
   2  -5 -12   29.08   10.91
  -2   5  12   21.63    8.29
   2   5 -12   22.72   10.25
  -2  -5  12   35.20   11.83
   2  -5 -12   31.32    9.12
   2   5 -12    3.26    4.28
   2   5 -12   25.13    8.08
   2  -5 -11   18.94    7.09
   2  -5 -11   25.37    7.24
   2   5 -11   19.06    6.61
   2  -5 -11   26.43   10.64
  -2   5  11   29.48    9.64
   2   5 -11   26.20   10.54
   2   5 -11    8.01    5.00
  -2  -5  11   30.97   11.55
   2   5 -11   29.05    8.64
  -2  -5  10   21.27   10.11
   2  -5 -10   15.66    5.91
   2   5 -10   17.29    6.24
   2  -5 -10   19.10    8.18
  -2   5  10   13.68    6.89
   2   5 -10   21.93    9.12
   2   5 -10    4.24    3.24
   2  -5 -10   17.42    6.23
   2   5 -10   10.79    5.24
   2  -5  -9   20.03    6.39
   2  -5  -9   27.90   10.60
   2   5  -9   14.01    6.20
   2   5  -9    9.88    5.02
   2   5  -9   34.17   11.41
  -2   5   9   20.08    8.14
  -2  -5   9   30.29   10.70
   2  -5  -9   15.78    5.11
   2   5  -9   17.03    5.89
   2  -5  -8   34.74    8.63
   2  -5  -8   50.17   13.49
   2   5  -8   26.86    7.83
   2   5  -8   26.35    8.42
  -2  -5   8   25.80    5.29
  -2   5   8   53.11   12.99
  -2  -5   8   66.66   14.35
   2  -5  -8   37.95    8.80
   2   5  -8   41.46   12.89
   2   5  -8   39.98    9.40
   2  -5  -7   27.80    7.20
   2  -5  -7   18.08    6.23
   2   5  -7   33.22    9.14
   2  -5  -7   29.42    9.80
   2   5  -7   29.24    7.92
  -2  -5   7   14.90    3.69
  -2   5   7   35.49   10.31
  -2  -5   7   52.72   13.20
   2   5  -7   30.46   10.42
   2   5  -7   35.23    8.05
   2   5  -6   42.71    9.63
   2  -5  -6   45.92   11.51
   2   5  -6   37.05    8.81
  -2  -5   6   20.26    4.06
  -2   5   6   40.61   11.55
  -2  -5   6   42.45   10.60
   2  -5  -6   33.90    7.55
   2   5  -5   25.82    6.26
   2   5  -5   28.41    7.81
   2  -5  -5   26.96    8.81
   2   5  -5   19.78    6.49
  -2  -5   5   15.58    3.19
  -2   5   5   29.52   10.62
  -2  -5   5   37.29    9.85
   2  -5  -5   22.76    5.78
   2   5  -4   58.55   10.06
   2  -5  -4   75.54   13.84
   2   5  -4   75.03   13.35
   2  -5  -4  106.44   17.24
   2   5  -4   81.68   13.89
   2  -5  -4   62.19   10.49
  -2  -5   4   44.47    7.01
  -2   5   4   98.88   18.90
  -2  -5   4  122.51   17.85
   2  -5  -3   27.24    8.32
   2   5  -3   29.24    7.73
   2   5  -3   22.83    6.11
   2   5  -3   30.77    7.96
   2  -5  -3   33.61    9.59
  -2  -5   3   17.21    4.27
  -2  -5   3   53.31   11.29
   2  -5  -3   25.79    6.10
   2   5  -2   32.68    8.66
   2  -5  -2   22.24    7.28
   2   5  -2   20.08    5.43
   2   5  -2   27.32    7.71
   2  -5  -2   40.27   10.14
  -2  -5   2   13.80    2.82
  -2  -5   2   42.56   10.03
   2  -5  -2   22.94    5.54
   2   5  -1   32.36    7.67
   2  -5  -1   30.88    8.80
   2  -5  -1   26.06    5.96
   2   5  -1   23.81    6.51
   2   5  -1   34.85    8.46
   2  -5  -1   36.64   10.29
  -2  -5   1   44.71   10.00
   2   5   0   74.97   12.93
   2  -5   0   70.78   12.94
   2   5   0   44.31    9.27
   2   5   0   74.21   13.27
   2  -5   0   92.90   15.42
   2  -5   0   45.39    8.46
  -2  -5   0   85.36   14.03
   2   5   1    9.68    4.44
   2  -5   1   12.93    5.42
   2   5   1    8.73    4.28
   2   5   1    9.56    3.67
   2  -5   1   10.73    3.34
   2  -5   1   10.76    4.59
  -2  -5  -1   11.32    4.54
   2   5   2    9.50    5.08
   2  -5   2    6.57    5.50
   2   5   2    7.72    4.48
   2  -5   2    4.03    1.61
   2   5   2    6.66    3.20
   2  -5   2   17.85    6.47
  -2  -5  -2    8.08    3.88
   2   5   3   13.89    5.72
   2  -5   3   17.28    6.38
   2   5   3   20.91    6.45
   2  -5   3   29.86    8.89
   2   5   3   19.31    5.32
  -2  -5  -3   27.17    7.24
   2   5   4   42.86   10.31
   2  -5   4   38.92   10.03
   2   5   4   58.91   11.67
   2  -5   4   56.65   11.88
   2   5   4   44.04    8.96
  -2  -5  -4   45.41    9.76
  -2   5  -4   43.27    9.66
   2   5   5   16.15    6.28
   2   5   5   16.30    5.77
   2  -5   5   15.96    6.92
   2   5   5    5.42    3.67
  -2  -5  -5   18.29    6.34
  -2   5  -5   11.18    5.42
   2   5   6   14.59    5.26
  -2  -5  -6   11.90    5.24
   2   5   6    7.47    4.57
   2  -5   6   10.33    4.84
   2  -5   6    9.79    5.25
   2   5   6    8.05    3.61
  -2  -5  -6   10.35    3.94
  -2   5  -6   13.81    6.03
  -2  -5  -7    5.93    3.24
   2   5   7    2.78    3.27
   2   5   7    2.14    1.44
   2  -5   7    5.32    3.72
   2  -5   7    8.76    4.94
   2   5   7    0.31    1.18
  -2  -5  -7    4.63    2.57
  -2   5  -7    0.85    2.36
  -2  -5  -8   43.26   10.70
   2   5   8   46.71   10.65
   2  -5   8   41.32   10.41
   2   5   8   34.28    9.02
   2  -5   8   59.16   12.64
   2   5   8   28.03    7.42
  -2  -5  -8   33.37    8.55
  -2   5  -8   40.52   10.26
  -2  -5  -9   19.26    6.61
   2   5   9   16.06    5.73
   2  -5   9   20.08    6.95
   2  -5   9   23.62    8.07
   2   5   9   13.69    5.87
   2   5   9   11.65    4.51
  -2   5  -9   16.45    6.77
  -2  -5 -10   15.50    6.96
   2   5  10   13.66    5.23
   2  -5  10    6.26    4.02
   2  -5  10   28.88    9.21
   2   5  10   10.34    3.85
   2   5  10   10.30    4.93
  -2   5 -10   13.40    5.47
   2   5  11   21.17    6.92
  -2  -5 -11   27.19    9.09
   2   5  11    6.91    4.23
   2  -5  11   16.69    7.24
   2  -5  11   29.62    9.62
   2   5  11   18.94    6.12
  -2   5 -11   25.08    9.34
  -2   5 -12   22.42    8.31
   2   5  12   13.14    5.39
  -2  -5 -12   17.18    7.41
   2  -5  12   18.96    7.34
   2   5  12   12.82    5.93
  -2   5 -13   18.13    7.53
  -2  -5 -13   32.00   10.59
   2  -5  13   12.30    5.91
   2   5  13   15.85    6.01
  -2   5 -14    1.80    3.85
  -2  -5 -14    1.81    2.66
   2  -5  14   -0.37    1.00
   2   5  14   -0.73    1.37
  -2   5 -15   -6.97    5.14
  -2  -5 -15    0.72    1.61
   2  -5  15    0.18    1.84
   2   5  15    1.87    1.86
  -2   5 -16   -8.79    5.96
  -2  -5 -16   -1.97    2.82
   2  -5  16    0.12    1.20
   2   5  16   -1.12    2.51
  -2   5 -17    3.87    5.64
  -2  -5 -17    0.94    2.91
   2  -5  17    0.91    2.06
   2   5  17   -0.22    1.76
  -2   5 -18    0.11    1.97
  -2  -5 -18    3.67    5.28
   2  -5  18    0.14    2.89
   2   5  18    1.41    2.05
  -2   5 -19    0.56    4.05
  -2  -5 -19    3.39    5.10
  -2  -5 -19    0.01    1.90
   2  -5  19    6.29    4.82
   2   5  19    0.58    1.38
  -2   5 -20    0.64    1.17
  -2  -5 -20   -0.85    1.91
  -2  -5 -20   -0.32    1.28
   2  -5  20    0.42    1.35
  -2  -5 -21   -5.85    5.15
   2  -5  21   -2.09    2.86
   2  -6 -21    5.25    6.02
   2   6 -21    0.38    4.09
   2   6 -21    1.81    4.49
   2  -6 -20    0.52    3.85
  -2   6  20    5.17    6.44
   2   6 -20    8.43    7.92
  -2  -6  20    2.93    5.64
   2  -6 -20   -0.20    2.72
   2   6 -20   -3.87    4.02
   2  -6 -19    0.04    1.18
  -2   6  19   -1.36    1.86
   2   6 -19    4.61    5.77
  -2  -6  19    1.15    2.81
   2  -6 -19   -2.01    2.84
   2   6 -19    2.46    3.18
   2  -6 -18    0.92    2.18
  -2   6  18   -1.57    1.19
   2   6 -18    3.75    4.20
  -2  -6  18    7.00    6.63
   2  -6 -18    3.53    4.12
   2   6 -18    3.37    4.20
   2  -6 -17    0.73    1.41
  -2   6  17   -1.32    3.24
   2   6 -17   -8.02    6.29
  -2  -6  17   -5.67    5.13
   2  -6 -17   11.64   11.55
   2   6 -17    4.82    6.07
   2   6 -16    1.28    0.46
   2  -6 -16    6.09    4.86
  -2   6  16    7.27    5.37
  -2  -6  16    0.78    1.73
   2  -6 -16    4.50    4.73
   2   6 -16    0.57    2.58
   2   6 -15    2.39    2.08
   2  -6 -15   -4.42    3.80
  -2   6  15    3.37    3.04
   2   6 -15    0.66    2.46
  -2  -6  15    5.35    7.00
   2  -6 -15    2.06    1.65
   2   6 -15    1.66    2.92
   2  -6 -14    2.37    3.06
   2   6 -14    0.13    1.83
  -2   6  14    0.37    1.18
   2   6 -14    1.38    0.51
  -2  -6  14    0.39    1.12
   2  -6 -14    1.93    2.67
   2   6 -14   10.30    7.13
   2   6 -14    0.37    2.58
   2  -6 -13    8.58    5.08
   2   6 -13   10.47    5.47
   2  -6 -13    5.03    4.19
  -2   6  13    9.39    5.90
   2   6 -13    9.40    4.24
   2   6 -13    1.68    2.32
  -2  -6  13   11.32    6.69
   2  -6 -13   12.81    6.14
   2   6 -13   19.83    7.87
   2  -6 -12   -3.27    2.92
   2  -6 -12    0.16    2.60
   2   6 -12   -1.72    1.29
  -2   6  12    4.90    4.87
   2   6 -12    1.95    2.88
   2   6 -12    5.29    7.87
  -2  -6  12    3.91    6.36
   2  -6 -12    4.37    2.99
   2   6 -12    4.45    4.18
   2  -6 -11   37.61    9.42
   2   6 -11   32.84   11.85
   2  -6 -11   38.58   12.56
   2   6 -11   29.19    8.85
   2   6 -11   23.87    8.57
  -2   6  11   28.64    9.98
  -2  -6  11   50.26   14.34
   2  -6 -11   23.68    8.25
   2   6 -11   26.80    9.01
   2  -6 -10    0.29    1.08
   2  -6 -10    1.58    3.15
   2   6 -10    5.68    3.58
   2   6 -10    1.50    0.26
  -2   6  10    4.30    3.32
   2   6 -10    7.54    6.22
  -2  -6  10    6.18    5.80
   2  -6 -10    0.28    1.58
   2   6 -10   -6.09    3.81
   2   6  -9   37.38   12.99
   2  -6  -9   19.46    6.93
   2   6  -9   19.32    7.14
   2  -6  -9   29.66   10.06
   2   6  -9   19.20    7.35
  -2   6   9   28.78    9.88
  -2  -6   9   35.17   11.67
   2  -6  -9   23.02    6.88
   2   6  -9   28.91    8.64
   2   6  -8    2.80    3.35
   2  -6  -8    1.88    2.83
   2  -6  -8    6.02    4.48
   2   6  -8    3.71    3.14
  -2   6   8    2.49    0.71
  -2  -6   8    6.69    5.99
   2  -6  -8    4.23    2.79
   2   6  -8    3.56    2.44
   2   6  -7   22.64    7.49
   2  -6  -7   23.04    8.33
   2   6  -7   13.56    5.91
  -2   6   7   13.85    6.99
  -2  -6   7   24.60    9.44
   2  -6  -7   16.49    5.60
   2   6  -6   23.83    7.41
   2  -6  -6    9.57    4.06
   2  -6  -6   12.27    5.69
   2   6  -6   12.96    5.64
  -2   6   6   18.50    7.73
  -2  -6   6   20.35    8.17
   2   6  -5   34.49    8.72
   2  -6  -5   29.56   10.22
   2   6  -5   30.00    8.96
  -2   6   5   42.45   12.94
  -2  -6   5   61.17   13.61
   2  -6  -5   24.79    6.74
   2   6  -4    1.58    1.73
   2   6  -4    0.18    0.17
   2  -6  -4   -0.85    2.22
   2   6  -4    3.71    2.58
  -2   6   4    0.56    3.51
  -2  -6   4    7.02    3.80
   2  -6  -4    2.87    1.93
   2   6  -3   31.39    8.54
   2  -6  -3   39.84    9.75
   2   6  -3   13.76    4.65
   2  -6  -3   42.53   11.29
   2   6  -3   33.67    8.30
  -2  -6   3   20.52    4.32
  -2  -6   3   55.94   11.63
   2  -6  -3   27.35    6.10
   2   6  -2   54.83   11.33
   2  -6  -2   54.21   11.80
   2   6  -2   29.31    7.12
   2  -6  -2   67.49   13.86
   2   6  -2   51.28   11.01
  -2  -6   2   86.02   15.36
   2  -6  -2   37.39    7.35
   2  -6  -1  128.61   19.93
   2   6  -1  125.21   19.10
   2   6  -1  103.63   15.82
   2  -6  -1  201.43   25.32
   2  -6  -1  111.60   15.14
  -2  -6   1  215.25   24.67
   2   6  -1  142.96   20.34
   2  -6   0   45.55   10.27
   2   6   0   32.76    7.05
   2   6   0   39.63    9.20
   2  -6   0   51.43   12.23
  -2  -6   0   71.03   12.65
   2  -6   0   19.71    4.95
   2   6   0   38.01    8.86
   2  -6   1    6.11    4.05
   2   6   1    6.09    2.73
   2   6   1   15.20    5.45
   2  -6   1   15.20    7.35
   2  -6   1    5.24    2.12
  -2  -6  -1   11.16    4.49
   2   6   1   10.80    4.29
   2  -6   2   74.52   14.53
   2   6   2   78.29   14.31
   2   6   2   58.78   10.87
   2  -6   2  104.37   17.60
  -2  -6  -2   95.63   15.63
   2   6   2   76.90   13.77
   2   6   3   19.20    5.84
   2  -6   3   13.26    5.68
   2   6   3   22.64    7.13
   2  -6   3   26.74    8.17
   2   6   3   12.87    4.30
  -2  -6  -3   28.75    7.83
   2   6   4    6.80    4.22
   2  -6   4    5.01    3.13
   2   6   4    2.44    1.83
   2  -6   4   14.95    7.05
   2   6   4    6.67    3.01
  -2  -6  -4    4.12    2.29
   2   6   5    4.22    1.95
   2  -6   5    2.85    2.94
   2   6   5    3.21    2.27
   2  -6   5    3.55    2.76
   2   6   5    0.98    1.27
  -2  -6  -5    0.59    1.36
  -2   6  -5    4.32    1.81
   2   6   6   12.21    5.61
   2  -6   6   11.62    5.73
   2   6   6   11.62    5.16
   2  -6   6   19.68    7.90
   2   6   6   17.39    5.42
  -2  -6  -6   18.36    6.62
  -2   6  -6   17.59    6.91
   2   6   7   22.38    7.61
  -2  -6  -7   34.82    9.30
   2   6   7   23.03    7.43
   2  -6   7   23.84    7.92
   2  -6   7   38.16   10.60
   2   6   7   18.28    5.62
  -2  -6  -7   29.96    7.96
  -2   6  -7   31.30    8.83
   2   6   8   17.78    6.89
  -2  -6  -8   23.30    8.21
   2   6   8   31.96    8.85
   2  -6   8   19.41    6.93
   2  -6   8   26.75    9.14
   2   6   8   15.97    5.34
  -2  -6  -8   25.13    7.25
  -2   6  -8   27.45    8.68
  -2  -6  -9   19.66    7.60
   2   6   9    7.66    4.37
   2   6   9   11.14    5.38
   2  -6   9    3.09    2.79
   2  -6   9   11.61    6.32
   2   6   9   10.79    4.78
  -2   6  -9   13.41    6.60
  -2  -6 -10   15.43    7.10
   2   6  10   13.53    5.87
   2   6  10   10.21    5.32
   2  -6  10   11.84    5.92
   2  -6  10    9.31    5.97
   2   6  10   10.28    4.46
  -2   6 -10   13.43    6.75
  -2  -6 -11    1.68    2.26
   2   6  11    3.98    2.14
   2  -6  11    4.33    3.40
   2  -6  11    8.35    5.68
   2   6  11    5.02    3.28
   2   6  11    2.69    2.44
  -2   6 -11    6.13    5.12
  -2  -6 -12   -2.15    2.67
   2   6  12    2.22    2.56
   2   6  12    0.21    1.55
   2  -6  12    4.50    3.62
   2  -6  12    4.73    5.27
  -2   6 -12    5.02    4.39
  -2  -6 -13   14.39    7.77
   2  -6  13   10.98    5.50
   2  -6  13   11.46    6.85
   2   6  13    5.84    4.40
  -2   6 -13   25.46    9.45
  -2  -6 -14    0.27    3.06
   2  -6  14    0.00    1.91
   2   6  14    1.59    1.96
  -2   6 -14    1.37    3.30
  -2  -6 -15    3.47    3.12
   2  -6  15   -0.03    1.42
   2   6  15    1.77    2.69
  -2   6 -15   -4.78    4.39
  -2  -6 -16    4.30    5.14
   2  -6  16    0.34    0.43
   2   6  16    2.16    3.69
  -2   6 -16   -3.82    4.04
  -2  -6 -17   -1.73    2.79
   2  -6  17    0.31    1.64
   2   6  17    1.24    2.57
  -2   6 -17    0.34    1.25
  -2  -6 -18    3.55    5.47
   2   6  18   -0.96    1.71
  -2   6 -18   -1.17    2.37
  -2  -6 -19   -2.64    3.40
  -2  -6 -19    0.92    0.87
   2   6  19   -3.48    3.36
  -2   6 -19    2.34    4.74
  -2  -6 -20    1.26    0.17
  -2  -6 -20    0.01    1.31
  -2   6 -20   -6.12    5.73
   2  -7 -20   -2.07    3.08
   2   7 -20    3.60    5.13
   2  -7 -19    2.30    3.23
   2   7 -19    0.86    3.67
  -2   7  19   -1.37    4.43
  -2  -7  19    1.69    4.93
   2  -7 -19    1.40    3.15
   2   7 -19   -7.83    5.76
   2  -7 -18   -2.66    3.31
  -2   7  18    3.17    3.74
   2   7 -18    0.02    3.64
  -2  -7  18    0.80    4.47
   2  -7 -18    0.27    0.83
   2   7 -18    0.74    2.03
   2  -7 -17   -2.39    3.08
  -2   7  17   -1.34    4.03
   2   7 -17    1.00    2.17
  -2  -7  17    0.17    1.30
   2  -7 -17   -0.29    1.41
   2   7 -17    1.66    3.68
   2  -7 -16    1.33    2.45
  -2   7  16    1.16    0.87
   2   7 -16   -5.05    4.97
  -2  -7  16   -3.42    3.96
   2  -7 -16   -0.22    2.70
   2   7 -16    5.09    5.23
   2  -7 -15    0.89    0.64
  -2   7  15    1.16    2.13
   2   7 -15   -1.89    2.99
  -2  -7  15    0.42    3.01
   2   7 -15    0.47    3.33
   2  -7 -15   -0.68    2.98
   2   7 -15   -1.55    2.65
   2  -7 -14    1.82    2.71
   2  -7 -14    2.51    5.91
   2   7 -14    4.66    3.80
  -2   7  14    3.20    3.68
   2   7 -14    0.05    0.58
  -2  -7  14    3.58    5.63
   2  -7 -14    1.20    1.83
   2   7 -14    3.16    2.30
   2   7 -14    0.55    1.96
   2  -7 -13    1.22    2.38
   2  -7 -13    9.90    6.16
   2   7 -13    3.81    3.28
   2   7 -13    3.32    3.35
  -2   7  13    5.60    4.96
   2   7 -13    8.25    6.29
  -2  -7  13   11.57    8.28
   2  -7 -13    4.36    3.41
   2   7 -13    7.67    4.74
   2  -7 -12    1.22    0.67
   2   7 -12    9.82    8.25
   2  -7 -12    5.87    5.05
   2   7 -12    5.86    4.01
   2   7 -12    5.46    4.28
  -2   7  12    4.89    5.50
  -2  -7  12   14.29    8.44
   2  -7 -12    4.24    3.03
   2   7 -12    9.91    5.91
   2  -7 -11    1.76    3.40
   2   7 -11   -2.01    2.36
   2  -7 -11   -0.61    4.11
   2   7 -11    2.12    2.93
  -2   7  11    0.83    2.93
  -2  -7  11    0.48    0.81
   2  -7 -11   -0.67    2.29
   2   7 -11   -1.41    1.99
   2   7 -10   15.14    6.90
   2  -7 -10   30.77    9.06
   2  -7 -10   46.02   14.24
   2   7 -10   28.33    8.89
  -2   7  10   28.38    9.73
  -2  -7  10   38.31   11.95
   2  -7 -10   21.44    7.48
   2   7 -10   23.44    8.39
   2   7  -9   13.88    5.81
   2  -7  -9    5.37    2.62
   2  -7  -9   15.86    7.99
   2   7  -9    7.97    5.02
  -2  -7   9   14.59    6.22
  -2   7   9    9.82    5.63
   2  -7  -9   10.21    4.62
   2   7  -9   16.50    6.62
   2   7  -8   59.71   14.49
   2  -7  -8  136.89   23.47
   2  -7  -8   81.95   14.73
   2   7  -8   64.30   14.25
  -2   7   8   94.48   19.00
  -2  -7   8  137.05   22.63
   2   7  -7   69.69   14.65
   2  -7  -7  101.56   19.82
  -2   7   7   92.25   19.05
   2   7  -7   68.98   14.52
  -2  -7   7  129.42   21.46
   2  -7  -7   70.58   13.47
   2   7  -6    2.69    1.39
   2  -7  -6    5.16    1.66
   2   7  -6    2.44    1.13
  -2  -7   6    0.75    2.15
  -2   7   6    5.55    5.56
   2  -7  -6    4.45    3.21
   2  -7  -5   25.42    8.85
   2   7  -5   17.54    6.80
  -2  -7   5   33.85   10.96
  -2   7   5   17.98    9.00
   2  -7  -5   11.63    4.20
   2   7  -5   24.60    7.86
   2  -7  -4   67.13   15.68
   2   7  -4   64.64   13.28
  -2  -7   4   95.46   17.22
  -2   7   4   69.69   16.59
   2  -7  -4   52.90   10.13
   2   7  -4   60.09   12.72
   2  -7  -3   90.55   17.96
   2   7  -3   65.89   13.53
  -2   7   3   85.45   19.57
  -2  -7   3  115.40   18.99
   2  -7  -3   55.25   10.28
   2   7  -3   66.52   13.34
   2  -7  -2  169.75   24.20
   2   7  -2  168.48   23.91
   2  -7  -2  223.67   29.89
   2  -7  -2  138.09   19.06
  -2  -7   2  266.29   30.14
   2   7  -2  169.21   23.98
   2  -7  -1   27.01    8.01
   2   7  -1   18.49    5.08
   2  -7  -1   39.84   11.97
   2   7  -1   27.89    8.19
  -2  -7   1   47.33   11.44
   2  -7  -1   23.50    5.43
   2   7  -1   32.32    8.61
   2  -7   0   13.98    5.82
   2   7   0   13.12    4.20
   2  -7   0   17.26    7.06
   2   7   0   14.88    5.82
  -2  -7   0   25.69    8.11
   2   7   0   18.04    6.54
   2  -7   1    7.20    4.04
   2   7   1    6.08    2.71
   2  -7   1    8.13    3.68
   2   7   1    9.93    5.20
  -2  -7  -1   12.42    6.21
   2   7   1    4.62    2.40
   2  -7   2   30.91    8.62
   2   7   2   27.09    6.76
   2   7   2   38.45    9.52
   2  -7   2   48.38   12.58
  -2  -7  -2   40.39   10.14
   2   7   2   44.21    9.52
   2  -7   3   12.77    4.98
   2   7   3    9.05    5.00
   2   7   3    5.69    2.70
   2  -7   3   23.62    9.06
  -2  -7  -3   20.12    6.72
   2   7   3   14.04    5.84
   2  -7   4   29.00    8.05
   2   7   4   27.22    7.97
   2  -7   4   30.80   10.37
   2   7   4   17.38    5.10
  -2  -7  -4   22.53    7.01
   2   7   4   12.86    5.23
   2  -7   5   10.36    5.00
   2   7   5   11.68    5.03
   2  -7   5   15.07    7.91
   2   7   5    6.94    2.90
  -2  -7  -5    7.66    4.06
   2   7   5   11.64    5.13
   2  -7   6   35.46    9.56
   2   7   6   34.89   10.05
   2  -7   6   59.13   13.76
   2   7   6   31.45    7.76
  -2  -7  -6   45.70   10.81
   2   7   6   29.13    9.00
   2   7   7   23.54    8.08
   2  -7   7   25.41    8.01
   2   7   7   30.05    8.95
   2  -7   7   35.92   11.00
   2   7   7   21.91    6.34
  -2  -7  -7   23.18    7.48
  -2   7  -7   32.70    9.69
   2   7   8   22.75    8.23
  -2  -7  -8   44.95   11.91
   2  -7   8   28.10    8.65
   2   7   8   26.06    8.20
   2  -7   8   38.37   11.16
   2   7   8   18.67    6.00
  -2  -7  -8   30.58    9.01
  -2   7  -8   27.03    9.28
   2   7   9    1.57    2.30
  -2  -7  -9    3.52    1.89
   2   7   9    1.31    1.01
   2  -7   9    0.88    1.26
   2  -7   9   -0.56    2.17
   2   7   9    2.11    2.78
  -2   7  -9    0.53    0.96
   2   7  10    4.01    3.52
  -2  -7 -10    8.21    4.74
   2   7  10    2.06    3.03
   2  -7  10    5.34    3.98
   2  -7  10    0.79    2.23
   2   7  10    4.94    3.11
  -2   7 -10   -1.80    0.65
  -2  -7 -11    3.90    3.50
   2   7  11    3.46    3.59
   2   7  11    2.35    2.71
   2  -7  11    4.21    3.49
   2   7  11    3.17    2.69
   2  -7  11    8.51    6.34
  -2   7 -11    4.02    3.33
  -2  -7 -12   -8.27    5.38
   2   7  12   -0.96    1.17
   2  -7  12   -0.92    1.56
   2  -7  12    0.18    4.24
   2   7  12   -2.51    2.34
  -2   7 -12    1.48    2.33
  -2  -7 -13    3.06    4.55
   2   7  13   -0.29    1.70
   2  -7  13   -1.35    1.92
   2  -7  13    1.82    4.04
  -2   7 -13    0.29    3.56
  -2  -7 -14   -0.01    2.21
   2  -7  14    0.77    4.10
   2   7  14   -0.29    2.06
  -2   7 -14    1.21    4.19
  -2  -7 -15    4.68    5.81
   2  -7  15    0.10    1.93
   2   7  15    0.38    1.94
  -2   7 -15    2.73    3.10
  -2  -7 -16    6.61    6.85
   2  -7  16   -0.43    4.65
   2   7  16    0.57    1.90
  -2   7 -16    0.01    2.78
  -2  -7 -17   -5.26    5.02
   2  -7  17   -1.07    2.13
   2   7  17   -2.32    2.62
  -2   7 -17   -2.21    3.26
  -2  -7 -18    4.53    7.17
   2  -7  18    0.60    3.77
   2   7  18    0.25    0.90
  -2   7 -18    0.99    1.29
  -2  -7 -19    0.45    2.82
  -2   7 -19  -10.70    7.56
   2  -8 -19    0.07    1.51
   2   8 -19    0.39    1.36
   2  -8 -18    0.01    2.74
  -2  -8  18    0.01    0.25
   2  -8 -18   -3.80    3.94
   2   8 -18    1.68    4.75
   2  -8 -17   -0.70    1.73
  -2   8  17    2.55    4.64
  -2  -8  17    4.55    4.86
   2  -8 -17    1.00    2.99
   2   8 -17   -3.04    3.53
   2  -8 -16   14.84    8.83
  -2   8  16   10.54    5.72
  -2  -8  16   17.96   10.45
   2  -8 -16   14.48    7.77
   2   8 -16    7.44    5.58
   2  -8 -15   -1.10    2.56
  -2   8  15   -0.30    1.75
  -2  -8  15    6.74    6.63
   2  -8 -15    1.23    2.20
   2   8 -15    0.49    3.40
   2  -8 -14   -0.26    0.98
   2  -8 -14   -1.03    0.64
   2   8 -14    2.57    3.34
   2   8 -14   -0.41    1.17
  -2   8  14    5.92    5.44
  -2  -8  14   -1.60    2.63
   2  -8 -14    0.49    0.77
   2   8 -14    3.19    2.67
   2  -8 -13    2.35    2.75
   2  -8 -13   -8.46    6.26
   2   8 -13   -6.33    4.25
   2   8 -13   -0.60    1.39
  -2   8  13   -2.42    3.03
  -2  -8  13   -1.67    2.64
   2  -8 -13    1.50    2.72
   2   8 -13   -2.19    2.74
   2  -8 -12    0.04    3.65
   2   8 -12    3.11    3.91
   2  -8 -12    7.37    6.30
   2   8 -12    0.92    2.43
  -2   8  12    2.27    3.37
  -2  -8  12    0.03    1.14
   2  -8 -12    1.23    2.23
   2   8 -12    0.39    0.73
   2   8 -11    0.30    1.60
   2  -8 -11   -1.20    1.92
   2  -8 -11    2.84    3.82
   2   8 -11   -1.27    2.06
  -2   8  11   -0.51    2.14
  -2  -8  11   -2.45    3.07
   2  -8 -11    1.16    2.47
   2   8 -11    3.51    4.53
   2   8 -10    1.03    2.20
   2  -8 -10    4.01    2.43
   2  -8 -10    3.34    5.13
   2   8 -10   -2.21    2.68
  -2  -8  10    3.52    3.48
   2  -8 -10    6.39    3.74
  -2   8  10    6.40    4.51
   2   8  -9    2.30    3.89
  -2   8   9    4.30    3.73
   2  -8  -9    0.41    2.63
   2   8  -9    4.35    2.64
  -2  -8   9    5.83    5.36
   2  -8  -9    3.73    2.09
   2   8  -8   18.55    7.45
   2  -8  -8   24.05    9.68
   2   8  -8   15.91    6.89
  -2  -8   8   29.84   10.18
  -2   8   8   24.24    8.75
   2  -8  -8    9.65    4.62
   2  -8  -7   70.82   17.03
   2   8  -7   47.76   11.86
  -2  -8   7   74.12   16.59
  -2   8   7   61.70   15.19
   2  -8  -7   33.26    9.04
   2   8  -7   34.78   10.30
  -2   8   6   58.67   14.97
   2  -8  -6   53.01   14.65
   2   8  -6   52.42   12.06
  -2  -8   6   81.70   17.40
   2  -8  -6   44.84   10.09
   2   8  -6   52.66   12.49
   2  -8  -5   97.85   19.44
   2   8  -5   71.33   14.66
  -2   8   5   68.76   18.44
  -2  -8   5  120.84   21.41
   2   8  -5   76.11   15.20
   2  -8  -5   62.60   12.04
   2  -8  -4    9.91    5.92
   2   8  -4    6.81    4.02
  -2  -8   4    0.41    3.05
  -2   8   4    0.86    2.11
   2   8  -4    2.76    2.59
   2  -8  -4    6.22    3.16
   2  -8  -3    8.00    3.89
   2   8  -3   15.48    5.95
  -2  -8   3    6.95    3.34
   2   8  -3    6.88    3.38
  -2   8   3   -2.52    2.73
   2  -8  -3    3.94    2.08
   2  -8  -2    1.21    2.02
   2   8  -2    0.62    0.38
  -2   8   2   -2.66    3.26
  -2  -8   2    4.73    2.81
   2   8  -2    2.39    2.56
   2  -8  -2    0.41    0.68
   2  -8  -1   10.72    6.46
   2   8  -1   10.32    5.46
  -2  -8   1    5.37    2.96
   2   8  -1    8.55    5.06
   2  -8   0    5.23    3.89
   2  -8   0   12.03    7.54
   2   8   0    7.01    3.31
  -2  -8   0    3.95    1.38
   2   8   0   11.59    5.31
   2  -8   1    3.93    3.18
   2  -8   1    1.57    1.92
   2   8   1    6.81    5.12
  -2  -8  -1    5.49    4.39
   2   8   1    5.76    4.66
   2  -8   2    2.19    2.13
   2  -8   2    3.95    3.68
   2   8   2    2.25    2.70
   2   8   2    1.50    1.50
  -2  -8  -2    2.67    2.89
   2  -8   3    4.53    2.92
   2   8   3    3.36    3.26
   2  -8   3    5.34    5.71
  -2  -8  -3    2.58    2.19
   2   8   3   -0.22    2.43
   2  -8   4    4.48    3.29
   2   8   4    5.24    3.62
   2  -8   4    0.85    2.60
   2   8   4    1.11    1.44
  -2  -8  -4    6.62    5.17
   2   8   4    6.06    3.58
   2  -8   5    9.72    4.76
   2   8   5   11.31    5.47
   2  -8   5   22.05    9.55
   2   8   5    8.00    3.60
  -2  -8  -5   14.03    6.16
   2   8   5   11.03    5.63
   2  -8   6   21.28    7.27
   2   8   6   22.03    7.87
   2  -8   6   36.44   12.23
   2   8   6   16.34    5.32
  -2  -8  -6   26.74    8.69
   2   8   6   25.02    8.26
   2  -8   7    2.01    2.78
   2   8   7    1.71    1.66
   2  -8   7    0.20    3.17
   2   8   7   -1.80    2.59
  -2  -8  -7   -0.08    1.79
   2   8   7   -0.81    2.35
  -2  -8  -8    8.03    5.65
   2  -8   8    4.52    3.33
   2   8   8    7.01    4.99
   2  -8   8   10.34    5.49
   2   8   8    3.76    2.46
  -2  -8  -8    8.17    5.46
  -2   8  -8    4.07    4.69
   2   8   8    2.77    2.83
   2   8   9    8.00    4.64
  -2  -8  -9   10.00    5.50
   2   8   9    8.17    5.46
   2  -8   9    5.51    6.07
   2   8   9    4.77    2.98
  -2   8  -9    6.57    5.36
   2   8  10   -2.69    2.59
  -2  -8 -10    2.73    3.21
   2   8  10    0.10    0.53
   2  -8  10    1.98    2.63
   2   8  10    1.64    1.55
  -2   8 -10    3.96    4.75
   2   8  11    6.60    4.78
  -2  -8 -11    2.69    4.41
   2   8  11    4.02    4.21
   2  -8  11    2.48    4.66
   2   8  11    1.24    2.00
  -2   8 -11   -1.56    2.45
  -2  -8 -12    5.42    5.44
   2   8  12   -0.01    1.11
   2  -8  12    1.09    3.48
   2   8  12    0.47    0.21
  -2   8 -12    2.03    5.11
  -2  -8 -13    1.64    3.82
   2  -8  13    6.13    6.22
   2   8  13    0.09    1.32
  -2   8 -13   -4.92    4.55
  -2  -8 -14    1.18    3.28
   2  -8  14    0.83    3.12
   2   8  14   -1.45    1.92
  -2   8 -14    1.46    4.71
  -2  -8 -15   -2.22    3.18
   2  -8  15    4.25    5.22
   2   8  15    1.23    2.45
  -2   8 -15    3.31    5.65
  -2  -8 -16    1.08    3.60
   2  -8  16    0.87    3.79
   2   8  16    0.03    0.72
  -2   8 -16   -6.26    5.54
  -2  -8 -17   -1.59    2.87
   2   8  17    0.01    0.63
  -2   8 -17    0.76    3.43
  -2  -8 -18   -1.19    2.52
   2   8  18    0.00    2.17
   2  -9 -18    1.39    2.92
   2  -9 -17    3.15    5.25
   2  -9 -17   -4.95    4.46
   2   9 -17    0.18    1.94
   2  -9 -16    0.85    1.94
  -2   9  16    5.78    5.09
  -2  -9  16    9.04    8.30
   2  -9 -16    9.21    6.83
   2   9 -16    3.82    4.99
   2  -9 -15   -4.23    4.16
  -2   9  15    3.29    3.65
  -2  -9  15    5.74    5.34
   2  -9 -15   -0.47    1.30
   2   9 -15   -9.21    6.13
   2  -9 -14    3.90    5.05
   2  -9 -14   13.63    8.81
   2   9 -14    4.33    4.52
  -2   9  14    5.44    5.04
  -2  -9  14    6.90    7.20
   2  -9 -14    0.46    1.31
   2   9 -14    6.03    5.93
   2  -9 -13   -2.99    3.35
   2   9 -13    3.28    4.01
   2  -9 -13    1.87    3.25
   2   9 -13    0.09    0.53
  -2   9  13    5.31    5.96
   2  -9 -13    2.97    3.93
   2   9 -13   -2.63    3.14
   2   9 -12    1.58    0.76
   2  -9 -12    3.17    4.78
   2  -9 -12    2.29    5.12
   2   9 -12   -4.25    3.60
  -2   9  12   -1.54    3.42
  -2  -9  12    3.38    5.04
   2  -9 -12    1.20    2.57
   2   9 -11   -1.11    1.88
   2  -9 -11    1.71    2.51
   2  -9 -11   -5.73    5.11
   2   9 -11   -0.51    1.23
  -2   9  11    0.74    1.31
  -2  -9  11   -0.25    1.02
   2  -9 -11   -0.03    2.26
   2   9 -10    1.01    2.46
   2  -9 -10   -0.93    2.26
   2  -9 -10    1.71    2.99
   2   9 -10    0.12    0.56
  -2   9  10    0.58    0.56
  -2  -9  10    7.55    5.77
   2  -9 -10    0.22    1.55
   2   9  -9    3.36    2.95
  -2   9   9    2.63    3.21
   2  -9  -9    0.20    1.92
   2   9  -9    6.01    4.63
  -2  -9   9   12.64    7.52
   2  -9  -9    2.67    1.70
   2  -9  -8    5.86    4.27
   2   9  -8    1.37    1.37
  -2   9   8    3.41    3.03
  -2  -9   8    3.88    2.35
   2  -9  -8    1.31    2.61
   2   9  -8    7.43    4.51
   2  -9  -7    8.51    6.84
   2   9  -7    7.32    4.68
  -2   9   7    2.63    3.30
  -2  -9   7   20.71    9.64
   2   9  -7   12.25    6.15
   2  -9  -7    6.31    3.61
   2  -9  -6    5.77    4.24
   2   9  -6    5.72    4.26
  -2  -9   6   15.26    8.18
   2   9  -6    6.27    4.96
   2  -9  -6    5.77    3.16
  -2   9   6    9.17    6.05
  -2   9   5   -3.04    4.36
   2  -9  -5    2.24    3.34
   2   9  -5    3.84    4.13
  -2  -9   5   -0.20    0.94
   2  -9  -5    2.95    2.22
   2  -9  -4    4.24    5.13
  -2  -9   4    0.69    2.58
   2   9  -4   -0.77    2.60
   2   9  -4   -1.50    0.64
  -2   9   4    0.74    1.10
   2  -9  -3   57.64   14.81
   2   9  -3   40.70   11.48
  -2   9   3   53.25   14.92
   2   9  -3   41.55   11.19
  -2  -9   3   75.67   16.82
   2  -9  -2    4.95    4.43
   2   9  -2    9.01    4.50
  -2   9   2    4.50    9.17
   2   9  -2    9.30    5.06
  -2  -9   2   12.44    9.03
   2  -9  -1   37.28   12.51
   2   9  -1   23.12    7.94
  -2   9   1   24.83   10.20
   2   9  -1   18.97    6.67
  -2  -9   1   25.55    9.03
   2  -9   0   36.47   12.15
   2   9   0    8.72    5.58
   2   9   0   13.75    6.28
  -2  -9   0   23.11    8.95
   2  -9   1    2.34    2.22
  -2  -9  -1    1.99    3.91
   2  -9   1    5.19    5.67
   2   9   1    0.90    0.89
   2   9   1   -2.02    2.97
   2  -9   2    0.45    1.32
   2  -9   2    2.72    1.87
   2   9   2    0.78    1.51
   2   9   2    2.93    1.94
  -2  -9  -2    6.87    4.53
   2  -9   3    8.24    6.31
  -2  -9  -3    9.78    5.39
   2  -9   4   -6.09    4.69
   2   9   4    0.56    0.92
  -2  -9  -4    2.79    3.08
   2   9   4   -2.71    2.63
   2   9   5    2.59    2.85
   2  -9   5    6.40    4.80
  -2  -9  -5    7.32    5.00
   2   9   5    7.34    4.63
   2   9   6    9.79    5.81
   2  -9   6   18.45    9.39
  -2  -9  -6    7.77    4.82
   2   9   6    4.95    3.28
   2   9   7   11.96    6.08
   2  -9   7   14.30    7.71
  -2  -9  -7   14.45    7.23
   2   9   7   17.96    6.97
   2   9   8    4.56    3.74
   2  -9   8   11.81    7.08
  -2  -9  -8    7.06    4.35
   2   9   8    5.21    4.42
  -2  -9  -9   -2.46    3.00
   2   9   9   -3.91    3.39
   2  -9   9    2.48    4.86
   2   9   9    3.86    3.24
   2   9  10    3.10    3.54
  -2  -9 -10   -0.13    0.70
   2   9  10   -3.52    3.24
   2  -9  10    0.93    2.36
  -2   9 -10    1.11    3.88
  -2  -9 -11    0.67    0.95
   2   9  11    1.94    2.50
   2  -9  11    1.22    1.96
  -2   9 -11    6.96    5.86
  -2  -9 -12   -2.19    3.03
   2  -9  12    1.30    3.44
   2   9  12    0.91    1.78
  -2   9 -12   -6.69    5.41
  -2  -9 -13   20.97   10.99
   2  -9  13    3.50    5.03
   2   9  13    3.70    3.49
  -2   9 -13    8.73    7.45
  -2  -9 -14   -0.85    1.98
   2  -9  14    5.66    6.36
   2   9  14    1.55    2.39
  -2   9 -14   -4.13    4.45
  -2  -9 -15   -5.21    5.05
   2   9  15    0.01    0.86
   2  -9  15   -2.68    3.52
  -2   9 -15    0.77    1.90
  -2  -9 -16    0.01    0.98
   2   9  16    0.81    1.55
  -2   9 -16    0.01    2.18
   2   9  17    1.60    2.24
   2 -10 -16   -5.55    5.10
   2 -10 -15    3.75    4.91
  -2  10  15    0.34    1.72
  -2 -10  15    9.01    8.50
   2 -10 -15    2.28    2.94
   2 -10 -14    0.76    0.70
   2 -10 -14   10.05    9.17
   2  10 -14    0.14    0.66
  -2  10  14    1.05    2.54
  -2 -10  14    1.32    3.85
   2 -10 -14    0.57    1.07
   2  10 -13    0.60    0.60
   2 -10 -13   -3.50    3.82
  -2 -10  13   -5.50    5.11
   2 -10 -13    4.54    7.57
   2  10 -13    0.46    1.27
  -2  10  13    0.49    1.87
   2 -10 -13    2.34    3.40
   2  10 -12    0.17    1.06
   2 -10 -12    0.61    1.64
   2 -10 -12    1.99    5.06
   2  10 -12   -0.99    1.98
  -2  10  12    1.92    3.93
  -2 -10  12    2.13    4.53
   2 -10 -12    0.64    2.35
   2  10 -11   -1.63    2.37
   2 -10 -11   -0.38    1.22
   2 -10 -11    0.41    4.11
   2  10 -11   -3.63    3.43
  -2  10  11    3.64    4.60
  -2 -10  11    3.89    5.24
   2 -10 -11   -1.00    2.01
   2  10 -10    1.76    3.03
   2 -10 -10    8.35    6.25
   2 -10 -10    5.12    4.96
   2  10 -10    0.53    1.64
  -2  10  10   -4.04    3.90
  -2 -10  10    3.56    4.92
   2 -10 -10   -2.93    2.85
   2 -10  -9    0.25    1.61
   2  10  -9   -0.26    0.58
  -2  10   9    0.64    1.39
  -2 -10   9    3.56    5.31
   2 -10  -9   -1.47    2.76
   2  10  -9   -7.11    4.79
  -2  10   8    6.87    4.88
   2 -10  -8    7.75    8.21
   2  10  -8    8.44    5.52
  -2 -10   8   16.17    8.77
   2 -10  -8    0.46    1.35
   2  10  -8    8.90    6.30
   2 -10  -7    2.91    4.94
   2  10  -7    4.88    3.88
  -2  10   7    5.25    3.61
  -2 -10   7    6.26    5.77
   2  10  -7    7.01    5.57
   2 -10  -7    5.77    3.37
   2 -10  -6   -0.63    3.60
   2  10  -6    3.03    3.25
  -2  10   6    1.32    1.76
  -2 -10   6   -1.01    4.33
   2  10  -6    1.95    3.90
   2 -10  -5   -1.16    2.17
   2  10  -5    1.87    2.65
  -2  10   5   -0.76    1.67
  -2 -10   5    3.54    4.22
   2  10  -5    0.81    2.81
   2 -10  -4   -1.07    2.08
   2  10  -4    0.69    2.15
  -2  10   4   -0.46    3.10
   2  10  -4    5.05    3.65
  -2 -10   4   -0.63    1.36
   2 -10  -3    9.39    7.23
   2  10  -3    4.20    0.67
  -2  10   3    2.84    4.57
   2  10  -3    2.48    3.07
  -2 -10   3    6.52    5.20
   2 -10  -2   12.85    7.46
   2  10  -2   12.05    6.31
  -2  10   2    6.52    5.97
   2  10  -2    9.50    5.88
  -2 -10   2   19.52    8.52
   2 -10  -1    3.72    5.61
   2  10  -1    4.65    3.72
  -2  10   1    4.55    6.56
  -2 -10   1    5.63    3.71
   2  10  -1    2.23    2.05
   2 -10   0    7.56    6.21
   2  10   0    5.54    3.01
   2  10   0    4.34    2.67
  -2  10   0   -2.65    3.50
  -2 -10   0    2.53    5.27
   2 -10   1   16.55    9.09
   2  10   1    0.74    2.40
   2  10   1    4.56    4.34
  -2  10  -1    3.22    3.25
  -2 -10  -1    8.59    6.25
   2 -10   2   12.88    7.49
   2  10   2    7.82    3.74
   2  10   2    7.96    5.41
  -2 -10  -2    4.63    3.89
   2 -10   3   -0.73    1.96
   2  10   3    0.50    1.33
   2  10   3   -0.96    2.62
  -2 -10  -3    4.26    4.46
   2 -10   4    4.25    6.82
   2  10   4    4.55    4.94
   2  10   4   -1.21    1.84
  -2 -10  -4   -1.41    2.14
   2 -10   5   -2.15    2.96
   2  10   5    2.35    3.95
  -2 -10  -5    2.39    4.40
   2  10   5   -1.69    2.18
   2  10   6    8.24    7.63
   2 -10   6    1.35    2.38
  -2 -10  -6    0.06    3.02
   2  10   6    1.86    2.88
   2  10   7   10.22    5.44
   2 -10   7   16.86    8.49
  -2 -10  -7    9.77    6.47
   2  10   7    7.21    4.96
   2  10   8    8.57    5.32
   2 -10   8    8.12    7.40
   2  10   8    7.02    5.12
  -2 -10  -9    9.92    7.16
   2  10   9    6.83    4.97
   2 -10   9    6.50    7.27
   2  10   9    2.91    4.27
  -2 -10 -10    6.87    6.97
   2  10  10    2.00    2.71
   2 -10  10    4.41    5.82
   2  10  10    4.75    4.51
  -2 -10 -11    0.70    4.90
   2  10  11    0.93    3.66
   2 -10  11    4.40    6.05
  -2 -10 -12    0.01    2.91
   2 -10  12    6.40    6.34
  -2 -10 -13   -0.01    1.72
   2 -10  13   -1.10    2.29
  -2  10 -13    1.23    3.11
  -2 -10 -14   -8.53    6.49
  -2  10 -14    3.45    6.24
  -2 -10 -15    1.06    2.85
  -2  10 -15   -4.54    4.95
   2 -11 -14    0.01    0.88
   2 -11 -14   -1.51    2.40
   2  11 -13    0.25    1.11
   2 -11 -13   -5.55    5.04
   2 -11 -13   -1.59    3.02
   2  11 -13   -0.81    1.74
  -2  11  13    3.17    3.99
   2 -11 -13   -1.43    2.27
   2  11 -12    1.42    2.27
   2 -11 -12   -7.97    5.95
   2 -11 -12   -3.95    4.71
   2  11 -12    1.05    0.72
  -2  11  12   -1.16    2.22
  -2 -11  12    0.01    3.52
   2 -11 -12   -1.92    2.55
   2  11 -11    0.26    1.88
   2 -11 -11    0.17    1.18
   2 -11 -11    1.32    4.14
   2  11 -11   -2.51    3.01
  -2  11  11    0.70    2.69
  -2 -11  11    0.23    2.00
   2 -11 -11    1.71    2.99
   2  11 -10    3.66    4.16
   2 -11 -10    1.56    2.46
   2  11 -10   -0.47    2.69
  -2  11  10    0.01    1.47
  -2 -11  10   -2.71    3.53
   2 -11  -9   15.62   10.26
   2  11  -9    6.21    4.92
  -2  11   9    9.06    5.66
  -2 -11   9   19.54    8.91
   2  11  -9    6.46    5.31
   2 -11  -8  -10.74    7.16
   2  11  -8    2.10    4.55
  -2  11   8   -0.90    1.83
  -2 -11   8   -3.29    3.75
   2  11  -8    4.36    3.98
   2 -11  -7    0.56    4.28
   2  11  -7   -3.01    3.26
  -2  11   7    7.65    5.60
  -2 -11   7    0.11    1.30
   2  11  -7    2.84    3.65
   2 -11  -6    1.23    1.88
   2  11  -6   -0.15    2.08
  -2  11   6   -0.97    2.35
  -2 -11   6   -3.38    3.70
   2  11  -6    2.04    2.60
   2 -11  -5    0.93    1.14
   2  11  -5    0.71    0.94
  -2  11   5    3.67    3.97
  -2 -11   5   -0.18    1.96
   2  11  -5    2.09    4.96
   2 -11  -4    8.22    8.37
   2  11  -4   -0.44    3.03
  -2  11   4    2.71    2.81
   2  11  -4    4.48    3.20
  -2 -11   4   -0.06    2.65
   2 -11  -3    1.72    2.96
   2  11  -3    1.06    3.68
  -2  11   3    0.50    0.53
   2  11  -3   -0.98    1.79
   2 -11  -2   -4.66    4.52
   2  11  -2    1.98    3.54
  -2  11   2    2.46    1.35
   2  11  -2    0.00    2.49
  -2 -11   2   -0.09    4.00
   2 -11  -1    9.40    6.08
   2  11  -1   13.96    7.04
   2  11  -1    9.20    6.28
  -2  11   1    7.49    5.51
  -2 -11   1   12.22    7.58
   2 -11   0   -0.17    1.18
   2  11   0    0.59    2.69
   2  11   0    4.08    3.87
  -2  11   0   -1.76    2.31
  -2 -11   0    3.66    4.32
   2 -11   1   14.34    8.65
   2  11   1   12.88    7.09
   2  11   1   10.15    5.73
  -2  11  -1    1.57    2.28
  -2 -11  -1   13.83    7.36
   2 -11   2    2.99    5.79
   2  11   2   -2.13    3.54
   2  11   2    5.91    5.97
  -2  11  -2    4.45    4.44
  -2 -11  -2   -1.65    2.44
   2 -11   3    1.35    1.70
   2  11   3    1.03    0.89
   2  11   3    1.36    1.61
  -2 -11  -3    2.33    2.00
   2 -11   4   -6.71    5.46
   2  11   4   -2.23    2.73
   2  11   4    1.23    2.56
  -2 -11  -4  -10.68    6.23
   2 -11   5    5.07    6.35
   2  11   5    5.59    4.17
  -2 -11  -5   -0.28    0.52
   2  11   5    0.79    1.34
   2  11   6   -1.74    2.10
   2 -11   6    1.32    4.38
  -2 -11  -6   -0.31    2.54
   2  11   6    3.46    4.34
   2  11   7    1.04    2.77
   2 -11   7   -1.17    2.34
  -2 -11  -7    0.85    0.62
   2  11   7    0.02    1.81
   2  11   8   -2.37    2.86
   2 -11   8    0.05    2.32
   2  11   8    2.92    3.52
  -2 -11  -9    7.59    6.71
   2  11   9    1.35    2.40
   2 -11   9    2.39    5.24
   2  11   9    3.06    3.40
  -2 -11 -10   -2.45    3.37
   2  11  10    1.08    0.80
   2 -11  10   -9.20    6.79
   2  11  10   -3.13    3.20
  -2 -11 -11   -3.83    4.28
   2  11  11    0.44    2.16
   2 -11  11   -3.83    4.43
  -2 -11 -12    5.49    7.09
  -2 -11 -13    3.24    7.16
   2  12 -11   -0.15    0.77
   2 -12 -11    0.36    2.47
   2 -12 -11   -0.46    2.85
   2  12 -11    3.30    3.67
  -2  12  11   -3.92    4.15
   2 -12 -10   -0.68    1.96
   2  12 -10   -4.69    4.26
  -2  12  10    4.19    4.92
   2  12 -10    0.22    0.83
   2 -12  -9    2.35    2.99
   2  12  -9    1.24    2.31
  -2  12   9   -2.73    3.30
  -2 -12   9    1.72    4.94
   2  12  -9   -0.90    1.86
   2 -12  -8   -4.06    4.58
   2  12  -8    2.68    3.25
  -2  12   8    0.92    1.15
  -2 -12   8    0.90    2.10
   2  12  -8   -2.34    2.97
   2 -12  -7   17.07   10.39
   2  12  -7    6.11    5.37
  -2  12   7   -0.23    2.06
  -2 -12   7    5.91    7.50
   2  12  -7    2.03    3.12
   2 -12  -6    3.47    3.73
   2  12  -6    2.56    3.13
  -2  12   6   -1.81    2.60
  -2 -12   6    0.34    1.22
   2  12  -6   -3.35    3.50
   2 -12  -5    2.96    5.77
   2  12  -5    0.37    1.25
  -2  12   5    2.65    4.08
  -2 -12   5   -3.56    3.89
   2  12  -5   -0.73    1.62
   2 -12  -4    0.27    2.92
   2  12  -4   -2.56    3.06
   2  12  -4    0.00    0.47
  -2 -12   4    0.74    2.95
   2 -12  -3   -0.25    1.12
   2  12  -3    1.72    3.42
   2  12  -3    4.67    4.03
  -2 -12   3    4.93    5.43
   2 -12  -2   17.06    8.24
   2  12  -2   -1.17    3.24
   2  12  -2    7.84    5.60
  -2 -12   2    2.15    3.62
   2 -12  -1    2.58    5.38
   2  12  -1   -1.43    1.45
   2  12  -1    0.32    2.37
  -2 -12   1    1.42    3.84
   2 -12   0   -5.32    5.07
   2  12   0    0.55    2.87
   2  12   0    4.43    6.17
  -2 -12   0    0.10    1.17
   2 -12   1   -0.48    1.95
   2  12   1    0.77    1.97
   2  12   1    0.00    3.13
  -2 -12  -1    5.88    5.82
   2 -12   2    0.20    0.54
   2  12   2   -3.24    4.74
   2  12   2    1.28    2.09
  -2 -12  -2    0.00    4.06
   2 -12   3    1.94    5.10
   2  12   3   -1.95    2.40
   2  12   3    1.82    3.46
  -2 -12  -3    0.10    2.48
   2 -12   4    1.29    1.04
   2  12   4    0.79    2.08
   2  12   4    5.31    4.83
  -2 -12  -4   -0.27    2.40
   2 -12   5   11.46    8.42
   2  12   5   -0.16    1.88
  -2 -12  -5   -1.12    2.13
   2  12   5    1.24    2.81
   2 -12   6   -1.36    2.62
   2  12   6    7.03    4.78
  -2 -12  -6   -2.87    3.41
   2  12   6    1.38    3.54
   2  12   7   -3.14    3.45
   2 -12   7    1.00    4.86
  -2 -12  -7    4.26    4.17
   2  12   7   -1.91    2.58
   2  12   8   -2.12    2.84
   2 -12   8   -6.27    5.75
   2  12   8    0.72    3.32
  -2 -12  -9   -3.99    4.42
   2  12   9   -1.42    2.34
   2  12   9    0.37    1.66
  -2 -12 -10   -2.02    3.20
   2  12  10   -1.41    2.35
   2 -13  -7   -0.08    0.66
   2 -13  -6   -0.04    0.48
   2 -13  -5    1.51    4.85
   2 -13  -4    2.64    3.59
   2 -13  -3   -4.59    4.93
   2  13  -3   -2.68    4.90
   2 -13  -2   -3.42    4.25
   2  13  -2   -0.83    1.83
   2  13  -2    5.36    4.77
  -2 -13   2    0.85    1.94
   2 -13  -1    3.40    3.79
   2  13  -1   -4.36    4.18
   2  13  -1    7.01    5.76
  -2 -13   1    4.93    5.94
   2 -13   0    1.47    3.77
   2  13   0    4.36    5.06
   2  13   0    2.66    3.27
  -2 -13   0    0.58    2.67
   2 -13   1    2.57    5.53
   2  13   1    7.48    5.69
   2  13   1    1.34    2.26
  -2 -13  -1   -0.22    1.03
   2 -13   2    2.22    4.18
   2  13   2   -1.37    2.33
   2  13   2    0.61    2.52
  -2 -13  -2   -6.79    5.49
   2 -13   3    0.01    0.97
   2  13   3   -2.32    3.04
   2  13   3   -1.11    3.88
   2 -13   4    2.09    3.84
   2  13   4    0.56    2.93
   2  13   4    2.89    3.28
   2  13   5   -1.51    2.48
   2  13   5    0.75    2.57
   2  13   6    0.30    1.23
  -3   0  22   -0.09    2.43
  -3   0  21    0.43    2.14
  -3   0  20    0.22    3.98
   3   0 -20   -3.91    4.46
  -3   0  19    2.23    2.83
   3   0 -19    1.76    7.52
  -3   0  18    3.32    4.74
   3   0 -18   -6.02    5.26
  -3   0  17    4.22    5.61
   3   0 -17    4.71    4.29
  -3   0  16    1.51    4.23
   3   0 -16    0.69    3.13
  -3   0  15    0.12    3.46
   3   0 -15    0.58    0.91
  -3   0  14   -0.99    3.33
   3   0 -14   -4.17    3.98
  -3   0  13    8.82    6.15
   3   0 -13   21.19    8.74
  -3   0  12    4.20    3.89
   3   0 -12    9.49    6.51
  -3   0  11  223.50   32.15
   3   0 -11  314.40   37.72
   3   0 -11  184.78   28.65
  -3   0  10    2.39    2.66
   3   0 -10    1.78    3.33
   3   0 -10   -2.21    1.98
  -3   0   9  163.69   26.31
   3   0  -9  221.34   30.39
   3   0  -9  154.32   25.53
  -3   0   8   -1.08    2.10
   3   0  -8   -4.10    5.48
   3   0  -8   -1.19    1.75
   3   0  -7   12.92    5.73
  -3   0   7   11.83    6.17
   3   0  -7   15.17    7.81
   3   0  -7    8.93    5.55
   3   0  -6    2.30    3.00
   3   0  -6    0.12    1.74
  -3   0   6    1.43    1.56
   3   0  -6    0.17    3.88
   3   0  -6    0.59    1.68
   3   0  -5   43.10   11.60
   3   0  -5   26.78    8.38
   3   0  -5   47.81   11.87
   3   0  -5   39.47   11.13
   3   0  -4   -0.67    2.81
   3   0  -4    3.48    3.68
   3   0  -3   63.20   13.92
   3   0  -3   40.37    9.25
   3   0  -3   55.50   13.48
   3   0  -3   37.79   11.88
   3   0  -2    0.26    2.79
   3   0  -2    1.56    1.67
   3   0  -2    1.23    1.94
   3   0  -2    3.96    4.78
   3   0  -1   84.30   12.58
   3   0  -1   86.15   16.25
  -3   0   1   54.31   11.59
   3   0  -1   84.18   17.00
   3   0   0    3.40    2.99
   3   0   0    2.31    2.30
  -3   0   0   -0.12    0.72
   3   0   0    3.21    1.44
   3   0   1   57.12   12.96
   3   0   1   40.75    8.34
  -3   0  -1   43.98    8.15
   3   0   1   50.80   12.22
   3   0   2   -4.01    3.93
   3   0   2   -0.88    0.72
  -3   0  -2    0.67    0.52
   3   0   2    1.32    1.22
   3   0   3   10.19    4.99
   3   0   3   16.30    4.70
  -3   0  -3   13.91    3.57
   3   0   3   10.46    5.53
  -3   0  -4   -0.09    0.68
   3   0   4   -1.41    1.46
   3   0   4   -0.30    0.71
   3   0   4   -2.35    2.56
  -3   0  -5    4.84    2.43
   3   0   5    2.63    3.14
   3   0   5    6.67    2.85
   3   0   5   11.81    6.30
  -3   0  -6    1.02    0.98
   3   0   6    0.27    2.39
   3   0   6   -0.16    0.07
   3   0   6   -0.45    2.35
  -3   0  -7   12.14    4.18
   3   0   7   18.81    7.02
   3   0   7   11.60    4.45
   3   0   7   13.18    6.33
  -3   0  -8   -0.53    0.52
   3   0   8    4.94    3.90
   3   0   8    0.88    1.04
  -3   0  -9    0.46    1.63
   3   0   9    1.08    3.38
   3   0   9   -0.53    1.31
  -3   0 -10    0.84    1.82
   3   0  10   -0.35    1.46
   3   0  10   -0.83    1.87
  -3   0 -11   12.30    5.34
   3   0  11   14.98    6.25
   3   0  11   10.54    4.24
  -3   0 -12   -0.47    1.39
   3   0  12   -0.99    2.87
   3   0  12   -3.69    2.62
  -3   0 -13    2.02    2.33
   3   0  13    2.26    3.02
  -3   0 -14    0.96    1.86
   3   0  14   -0.02    1.20
  -3   0 -15    2.23    2.43
   3   0  15   -1.16    3.86
  -3   0 -16    0.17    0.77
   3   0  16   -0.76    1.03
  -3   0 -17   -2.29    2.97
   3   0  17   -5.48    4.36
  -3   0 -18   -3.08    3.55
   3   0  18   -0.58    1.11
  -3   0 -19    0.04    3.84
  -3   0 -20   -1.85    2.94
  -3   1  21    3.39    5.10
  -3  -1  20    2.43    4.20
  -3   1  20    1.96    5.06
   3   1 -20    0.85    3.95
   3  -1 -20    2.77    4.69
  -3  -1  19    0.18    1.80
  -3   1  19   -4.94    4.74
   3   1 -19   -7.02    5.88
   3  -1 -19    0.28    1.16
  -3  -1  18    0.75    3.97
  -3   1  18    1.88    2.42
   3   1 -18    6.17    6.53
   3  -1 -18    3.33    3.82
  -3  -1  17    1.73    2.52
  -3   1  17    5.69    6.09
   3   1 -17   -2.03    4.16
   3  -1 -17    0.44    0.66
  -3  -1  16   -0.97    1.72
  -3   1  16    0.83    3.80
   3   1 -16    3.86    4.76
   3  -1 -16   -0.91    2.32
  -3  -1  15    0.31    2.47
  -3   1  15   -0.89    3.04
   3   1 -15    0.46    3.21
   3  -1 -15    0.60    2.08
  -3  -1  14    4.71    3.77
  -3   1  14    3.83    3.91
   3   1 -14    7.80    6.62
   3  -1 -14    7.93    5.18
  -3  -1  13    1.94    2.31
  -3   1  13    1.32    2.25
   3   1 -13    4.71    5.65
   3  -1 -13   -0.82    1.68
   3   1 -13    1.85    2.03
  -3  -1  12    9.25    5.32
  -3   1  12    8.56    4.95
   3   1 -12   18.60    8.11
   3  -1 -12    7.81    4.55
   3   1 -12    5.88    4.00
  -3  -1  11   80.57   16.28
  -3   1  11   78.05   17.06
   3   1 -11  106.84   20.86
   3  -1 -11   95.38   19.24
   3   1 -11   64.12   15.25
  -3  -1  10    1.06    1.76
  -3   1  10    7.29    4.21
   3   1 -10    3.00    3.01
   3  -1 -10    0.14    0.61
   3   1 -10    4.55    3.77
  -3  -1   9   13.30    6.28
  -3   1   9   23.23    8.79
   3   1  -9   30.02   11.60
   3  -1  -9   32.89    9.79
   3   1  -9   17.07    7.30
   3  -1  -8   59.94   14.23
  -3  -1   8   52.82   12.90
  -3   1   8   45.53   13.00
   3   1  -8   78.92   17.25
   3  -1  -8   57.92   13.85
   3   1  -8   38.06   11.86
   3  -1  -7   -1.17    4.14
   3   1  -7    5.51    4.38
   3  -1  -7    0.96    2.41
  -3   1   7    4.18    4.12
  -3  -1   7    2.46    2.78
   3   1  -7    1.79    2.33
   3  -1  -7   -1.64    5.35
   3   1  -7    7.42    4.96
   3  -1  -6    8.69    5.26
   3   1  -6    7.89    4.95
   3  -1  -6    2.45    3.62
  -3  -1   6    4.99    3.56
  -3   1   6    3.67    2.84
   3   1  -6    2.86    2.86
   3  -1  -6    4.93    2.37
   3   1  -6   -8.50    4.72
   3  -1  -5   44.64   11.92
   3   1  -5   33.25    9.90
   3  -1  -5   36.64    9.75
   3   1  -5   38.07   11.68
   3  -1  -5   35.79   10.29
   3   1  -5   34.87   10.73
   3  -1  -4   13.07    6.32
   3   1  -4   18.96    7.23
   3   1  -4   15.39    5.55
   3  -1  -4   18.17    6.61
   3   1  -4   21.58    7.83
   3  -1  -4   17.42    7.55
   3  -1  -4   11.00    6.32
  -3  -1   4   19.19    6.44
   3   1  -4   23.68    8.79
   3  -1  -3  113.74   19.38
   3   1  -3   75.51   16.45
   3   1  -3   82.22   13.46
   3  -1  -3   81.39   14.51
   3   1  -3  132.53   21.97
  -3  -1   3   98.68   15.98
   3  -1  -3  106.43   18.37
   3  -1  -3   77.02   16.87
   3   1  -3   91.64   18.21
   3   1  -2   78.95   12.52
   3  -1  -2   85.58   16.98
   3  -1  -2   86.53   14.05
   3   1  -2   87.33   16.85
   3   1  -2   89.00   17.68
   3  -1  -2   82.78   16.82
  -3  -1   2   93.88   14.99
   3  -1  -2   75.40   16.37
   3   1  -2   81.73   17.18
   3  -1  -1  124.81   20.85
   3   1  -1  121.28   19.90
   3   1  -1   96.36   13.86
   3  -1  -1  104.12   15.75
   3  -1  -1  110.16   19.74
  -3  -1   1   90.68   15.56
   3  -1  -1   96.87   18.86
   3   1  -1  100.87   19.22
   3   1   0   45.57    8.57
   3  -1   0   67.50   14.44
   3   1   0   70.97   13.72
   3  -1   0   56.44   10.53
   3  -1   0   65.35   14.38
  -3  -1   0   56.10   10.62
  -3   1   0   43.66    8.65
   3   1   0   57.82   13.47
   3  -1   1    5.71    5.14
   3   1   1   -1.05    1.08
   3   1   1   -0.67    0.50
   3  -1   1    0.24    0.84
  -3  -1  -1    0.43    1.19
  -3   1  -1   -0.42    0.68
   3   1   1    4.78    3.31
   3  -1   2   58.63   12.86
   3   1   2   45.79   11.00
   3   1   2   25.12    5.92
   3  -1   2   47.20    9.40
  -3  -1  -2   41.90    7.66
  -3   1  -2   31.89    5.99
   3   1   2   49.15   11.99
   3  -1   3   14.12    6.30
   3   1   3   15.41    6.42
   3   1   3    7.84    3.13
   3  -1   3   21.61    5.65
  -3  -1  -3   17.17    4.52
  -3   1  -3    9.61    2.65
   3   1   3   24.80    8.34
   3  -1   4  111.99   18.28
   3   1   4  102.05   16.65
   3   1   4   57.36    9.58
   3  -1   4  104.96   14.15
  -3  -1  -4   42.04    8.18
   3   1   4  118.43   19.62
  -3   1  -4   55.53    8.49
  -3  -1  -4   72.44    9.41
  -3   1  -5   27.78    6.27
  -3  -1  -5   37.28    7.14
   3  -1   5   55.69   12.23
   3   1   5   45.67   10.84
   3   1   5   38.41    7.30
   3  -1   5   44.50    9.02
   3   1   5   58.91   13.20
  -3   1  -6    0.84    0.51
  -3  -1  -6    1.77    1.38
   3  -1   6   -0.60    2.24
   3   1   6    3.24    2.71
   3   1   6    0.77    1.24
   3  -1   6   -0.93    1.63
   3   1   6    3.08    2.67
  -3   1  -7    3.22    2.53
  -3  -1  -7    6.71    3.53
   3  -1   7    3.72    3.37
   3   1   7    5.23    3.19
   3   1   7    3.12    1.75
   3  -1   7    4.72    2.42
   3   1   7    3.07    3.49
  -3   1  -8    7.63    3.42
  -3  -1  -8    5.31    2.83
   3  -1   8    9.12    4.59
   3   1   8    6.38    3.76
   3   1   8    3.77    2.40
   3  -1   8    4.30    2.23
   3   1   8    3.47    3.50
  -3   1  -9    2.00    2.02
  -3  -1  -9    0.77    0.89
   3  -1   9    2.90    3.42
   3   1   9    1.28    1.93
   3  -1   9    4.20    2.47
   3   1   9    0.41    0.51
   3   1   9    0.92    1.54
  -3   1 -10    3.09    2.75
  -3  -1 -10    1.54    2.28
   3  -1  10    6.04    4.46
   3   1  10    6.04    4.61
   3  -1  10    1.75    2.09
   3   1  10    2.53    2.27
   3   1  10    2.88    3.38
  -3   1 -11    0.41    0.30
  -3  -1 -11    0.22    2.26
   3  -1  11    3.04    2.57
   3   1  11   -3.11    2.85
   3  -1  11    1.58    1.60
  -3   1 -12    1.60    2.72
  -3  -1 -12    3.19    2.42
   3  -1  12    2.38    2.32
   3   1  12    1.94    2.64
   3  -1  12    2.61    2.73
  -3   1 -13    1.36    3.06
  -3  -1 -13    1.85    2.03
   3  -1  13    6.81    4.38
   3   1  13    6.99    4.90
   3  -1  13    3.70    3.29
  -3   1 -14    1.24    1.80
  -3  -1 -14    3.35    3.54
   3  -1  14   -0.98    1.74
   3   1  14    2.24    1.45
  -3   1 -15   -0.56    1.36
  -3  -1 -15    3.12    3.85
   3  -1  15    0.82    1.58
   3   1  15   -1.84    3.20
  -3   1 -16   -3.33    3.44
  -3  -1 -16   -2.54    3.04
   3  -1  16   -3.60    3.48
   3   1  16   -5.97    4.42
  -3   1 -17    0.91    3.03
  -3  -1 -17   -3.75    3.81
   3  -1  17    0.54    2.84
   3   1  17    0.31    2.52
  -3   1 -18    0.00    1.38
  -3  -1 -18   -0.41    1.32
   3  -1  18    2.97    3.64
   3   1  18    3.82    4.05
  -3   1 -19    0.99    3.20
  -3  -1 -19   -5.12    4.77
   3  -1  19   -0.46    1.34
  -3   1 -20   -0.82    1.95
  -3  -1 -20    0.56    3.84
  -3   2  21   -4.53    4.91
  -3   2  20    8.51    8.77
   3   2 -20    2.36    5.30
   3  -2 -20    0.77    3.45
  -3   2  19    1.32    1.14
   3   2 -19   -0.55    1.68
   3  -2 -19    3.07    4.13
  -3   2  18    5.13    5.83
   3   2 -18    5.21    4.21
   3  -2 -18   -0.99    2.89
  -3  -2  17    1.14    2.92
  -3   2  17    1.33    0.97
   3   2 -17    2.72    3.74
   3  -2 -17    7.14    6.00
  -3  -2  16    5.93    4.81
  -3   2  16    5.85    6.20
   3   2 -16    4.81    4.35
   3  -2 -16   10.55    6.16
  -3  -2  15   -0.43    0.50
  -3   2  15    5.34    3.78
   3   2 -15    1.85    2.37
   3  -2 -15    1.72    2.02
  -3  -2  14   -0.16    2.96
  -3   2  14   -0.02    1.32
   3   2 -14    1.71    2.78
   3  -2 -14   -0.73    0.95
   3   2 -14    2.40    2.96
  -3  -2  13    2.33    2.72
  -3   2  13    2.05    4.19
   3   2 -13    0.45    2.84
   3  -2 -13    7.77    6.53
   3   2 -13    0.31    2.08
  -3  -2  12   21.64    7.26
  -3   2  12   16.91    8.15
   3   2 -12   25.48   10.56
   3  -2 -12   22.86    8.41
   3   2 -12   26.85    9.11
  -3  -2  11   29.52    8.68
  -3   2  11   27.11    9.78
   3   2 -11   39.21   12.75
   3  -2 -11   51.37   13.08
   3   2 -11   24.70    8.50
   3  -2 -10    8.38    5.45
  -3  -2  10    2.34    2.48
   3   2 -10    6.60    4.50
   3  -2 -10    6.47    4.64
  -3   2  10    5.38    5.20
   3   2 -10    2.42    3.12
   3  -2  -9   20.91    8.23
  -3   2   9   14.71    8.38
  -3  -2   9   26.35    8.28
   3   2  -9   37.42   12.14
   3  -2  -9   33.38   10.28
   3   2  -9   39.00   10.93
   3   2  -8    1.27    3.18
   3  -2  -8    3.01    3.62
  -3  -2   8    1.52    1.68
  -3   2   8    4.37    4.19
   3   2  -8   -4.23    5.87
   3  -2  -8    2.72    2.37
   3   2  -7    5.62    4.66
   3  -2  -7    8.33    4.61
   3   2  -7    5.72    4.08
   3  -2  -7    6.45    3.55
  -3  -2   7    8.40    4.65
  -3   2   7    3.24    2.02
   3   2  -7    6.68    5.83
   3  -2  -7    3.46    2.26
  -3  -2   7    5.13    4.55
   3   2  -6    9.40    5.11
   3  -2  -6   13.59    6.81
   3   2  -6   10.73    5.57
   3  -2  -6   29.01    8.77
  -3  -2   6   10.26    5.46
   3   2  -6   24.13    9.61
  -3   2   6   15.23    7.85
   3  -2  -6   12.69    5.82
  -3  -2   6   16.34    7.22
   3   2  -5    2.65    3.58
   3  -2  -5   -0.51    2.48
   3   2  -5    0.94    1.42
   3  -2  -5    0.44    2.07
   3   2  -5    4.85    2.65
   3   2  -5    0.74    1.36
   3  -2  -5    0.91    2.10
  -3  -2   5    0.32    2.17
   3   2  -4    8.55    5.85
   3  -2  -4    1.70    1.87
   3   2  -4    7.38    3.45
   3  -2  -4    5.67    3.70
   3   2  -4   15.17    7.94
   3  -2  -4    2.43    2.67
   3   2  -4    5.03    2.72
  -3  -2   4    3.81    3.33
   3   2  -3    1.18    2.72
   3   2  -3   -1.36    2.81
   3  -2  -3   11.16    4.81
   3   2  -3    1.49    1.60
   3  -2  -3    1.70    1.48
   3  -2  -3    4.04    3.04
  -3  -2   3    8.32    4.30
   3   2  -2   29.90   10.03
   3  -2  -2   31.10    9.25
   3   2  -2   29.58    8.86
   3  -2  -2   25.61    7.90
   3  -2  -2   31.45   10.06
   3   2  -2   32.96    9.87
  -3  -2   2   32.62    8.31
   3   2  -1    0.39    1.95
   3  -2  -1    9.19    6.56
   3   2  -1    1.67    1.18
   3   2  -1    6.21    4.19
   3  -2  -1    1.06    1.15
   3  -2  -1    1.27    1.90
   3   2  -1    7.04    4.61
  -3  -2   1    4.87    3.16
   3   2   0   -2.10    2.04
   3   2   0    2.27    3.54
   3  -2   0   -1.69    1.94
   3   2   0    0.54    0.62
   3  -2   0   -1.61    2.41
   3   2   0    0.83    1.47
   3  -2   0    2.47    2.59
  -3  -2   0    2.95    2.54
   3   2   1    9.75    6.06
   3   2   1    3.35    1.96
   3  -2   1   11.18    5.56
   3   2   1    2.53    1.59
   3   2   1    1.40    4.30
   3  -2   1    4.90    2.24
  -3  -2  -1    7.64    3.96
   3   2   2    2.12    2.74
   3   2   2    1.27    0.70
   3  -2   2    4.25    3.47
   3   2   2    2.19    1.66
   3  -2   2    2.24    2.61
  -3  -2  -2    1.63    1.43
  -3   2  -2    0.99    0.73
   3  -2   3  262.36   31.92
   3   2   3  202.48   27.59
   3  -2   3  224.66   26.68
  -3  -2  -3  217.03   24.34
   3   2   3  293.76   33.19
  -3  -2  -3  178.54   20.85
   3  -2   4  280.91   31.59
   3   2   4  225.23   27.76
   3  -2   4  242.33   26.70
  -3  -2  -4  183.14   21.88
   3   2   4  300.82   33.02
  -3   2  -4  138.73   19.89
  -3  -2  -4  195.93   21.30
  -3  -2  -5    3.68    2.82
   3  -2   5    6.04    2.19
   3   2   5    4.68    3.39
   3  -2   5    6.27    3.29
  -3  -2  -5    2.90    1.71
  -3   2  -5    2.23    1.68
   3   2   5    4.23    4.50
  -3  -2  -6   17.09    5.15
   3  -2   6   26.83    8.58
   3   2   6   14.39    4.94
   3  -2   6   16.39    5.75
  -3  -2  -6   10.51    3.63
   3   2   6   20.67    7.76
  -3   2  -6   13.40    4.16
  -3   2  -7   24.56    6.74
  -3  -2  -7   31.00    7.48
   3  -2   7   32.56    9.81
   3   2   7   25.12    8.16
   3  -2   7   27.19    7.86
   3   2   7   36.27   10.69
  -3   2  -8   -1.47    1.11
  -3  -2  -8    2.08    2.36
   3  -2   8    1.22    2.67
   3   2   8    4.26    4.20
   3  -2   8   -0.28    1.71
   3   2   8   -1.51    3.77
  -3   2  -9    3.54    2.98
  -3  -2  -9    5.13    3.44
   3  -2   9    9.80    5.84
   3   2   9    0.80    2.62
   3  -2   9    3.53    2.94
   3   2   9    2.69    4.18
  -3   2 -10    1.30    1.55
  -3  -2 -10   -0.17    0.96
   3  -2  10   -0.55    1.78
   3   2  10    9.19    5.40
   3  -2  10   -0.22    1.21
   3   2  10   -0.07    3.23
  -3   2 -11    2.77    2.93
  -3  -2 -11   -0.69    1.73
   3  -2  11    2.28    2.64
   3   2  11    5.28    3.62
   3  -2  11    3.16    2.21
   3   2  11    1.34    1.92
  -3   2 -12    4.99    3.99
  -3  -2 -12    3.02    3.66
   3  -2  12    1.98    2.75
   3   2  12    8.40    5.86
   3  -2  12    0.05    1.80
   3   2  12    8.22    4.95
  -3   2 -13    2.02    2.66
  -3  -2 -13    3.86    3.93
   3  -2  13    3.66    3.42
   3   2  13   -0.59    2.61
   3  -2  13    2.16    2.84
  -3   2 -14    3.23    3.92
  -3  -2 -14    1.56    3.18
   3  -2  14    9.25    6.18
   3   2  14    0.38    3.00
   3  -2  14   -3.13    2.82
  -3   2 -15    0.09    0.56
  -3  -2 -15   -1.17    2.00
   3  -2  15    1.44    2.00
   3   2  15    3.93    3.77
   3  -2  15    0.26    1.60
  -3   2 -16   -0.91    1.81
  -3  -2 -16    0.19    1.48
   3  -2  16    3.74    4.41
   3   2  16    5.33    3.71
  -3   2 -17   -0.10    0.64
  -3  -2 -17    0.70    2.65
   3  -2  17   -2.84    3.19
   3   2  17   -3.78    3.58
  -3   2 -18    0.06    1.36
  -3  -2 -18   -2.01    2.94
   3  -2  18    1.27    3.10
   3   2  18   -1.25    2.32
  -3   2 -19   -1.66    2.70
  -3  -2 -19    0.36    3.06
   3  -2  19    1.07    2.95
  -3  -2 -20    0.03    1.52
  -3   3  20    2.63    6.05
   3   3 -20    0.10    1.80
  -3   3  19    3.64    3.38
   3   3 -19   -0.23    2.83
   3  -3 -19   -3.02    3.69
  -3  -3  19    3.50    6.15
  -3   3  18    3.07    4.28
   3   3 -18   -1.47    2.74
   3  -3 -18    2.69    4.75
  -3  -3  18    1.74    2.18
  -3   3  17   -0.04    2.61
   3   3 -17   -2.87    3.76
   3  -3 -17   -3.57    3.80
  -3  -3  17   -0.02    1.07
  -3   3  16    0.59    4.51
   3   3 -16   18.86   10.54
   3  -3 -16    8.69    6.35
  -3  -3  16    5.17    6.40
  -3   3  15    3.10    4.03
   3   3 -15   10.95    8.25
   3  -3 -15    4.35    3.95
  -3  -3  15    0.67    2.88
  -3   3  14    1.65    1.55
   3   3 -14    8.48    6.97
   3  -3 -14   11.16    6.60
  -3  -3  14    9.25    6.71
   3   3 -14    5.38    3.84
  -3  -3  13    0.14    1.09
  -3   3  13    3.55    5.76
   3   3 -13   -0.22    3.38
   3  -3 -13   -1.03    3.40
  -3  -3  13    3.95    4.18
   3   3 -13   -2.43    2.65
   3   3 -12   17.19    7.28
  -3  -3  12   15.86    6.66
  -3   3  12   21.09    8.90
   3   3 -12   30.76   11.51
   3  -3 -12   19.59    8.30
  -3  -3  12   21.11   11.36
   3   3 -11   24.22    8.94
   3  -3 -11   18.94    8.12
  -3  -3  11   19.17    6.28
  -3   3  11   21.70   10.39
   3   3 -11   49.25   14.89
   3  -3 -11   21.67    8.58
  -3  -3  11   33.68   12.44
   3   3 -10    4.92    3.80
   3   3 -10    1.45    1.06
   3  -3 -10   10.09    6.43
  -3  -3  10    3.52    2.57
  -3   3  10    8.71    5.72
   3   3 -10    3.33    2.96
   3  -3 -10    3.18    0.86
  -3  -3  10    4.69    4.08
   3   3  -9   21.36    9.24
   3   3  -9   47.78   12.46
   3  -3  -9   50.78   13.68
  -3  -3   9   33.86    9.11
  -3   3   9   53.38   15.60
   3  -3  -9   55.21   12.99
  -3  -3   9   68.05   15.96
   3   3  -9   72.27   18.42
   3   3  -8    3.02    2.85
   3  -3  -8   13.76    6.24
   3   3  -8   13.78    8.39
  -3  -3   8    4.47    3.07
   3   3  -8   10.70    6.85
  -3   3   8    9.10    5.64
   3  -3  -8    8.30    4.85
  -3  -3   8   18.51    9.05
   3   3  -7    4.30    4.19
   3   3  -7   10.24    6.42
   3   3  -7    8.18    5.01
   3  -3  -7    5.65    4.62
  -3  -3   7    3.31    2.74
   3   3  -7    7.81    5.09
  -3   3   7   20.09    9.11
   3  -3  -7    7.33    4.55
  -3  -3   7   11.35    6.38
   3   3  -6   14.52    6.78
   3  -3  -6   11.84    5.39
   3   3  -6   14.75    5.86
   3  -3  -6   21.18    6.95
   3   3  -6   29.44   11.18
  -3  -3   6   16.85    6.21
  -3   3   6   19.81    9.02
   3  -3  -6   11.90    5.94
   3   3  -6   16.25    6.72
  -3  -3   6   26.38    9.04
   3   3  -5   40.56   11.91
   3  -3  -5   45.95   12.72
   3   3  -5   63.86   13.11
   3  -3  -5   62.17   13.30
   3   3  -5   86.37   19.14
   3   3  -5   55.94   13.47
  -3  -3   5   19.12    7.91
   3  -3  -5   52.69   12.10
  -3  -3   5   87.04   16.09
   3   3  -4    0.50    2.53
   3  -3  -4    0.53    2.90
   3   3  -4    6.47    4.33
   3  -3  -4    5.48    3.97
   3   3  -4    0.69    2.28
   3  -3  -4    1.83    2.52
  -3  -3   4    4.00    2.97
   3   3  -3   13.18    6.66
   3  -3  -3   12.27    6.97
   3   3  -3   16.31    5.69
   3  -3  -3   11.01    5.13
   3   3  -3   10.75    6.26
   3  -3  -3   12.32    6.38
  -3  -3   3   17.61    7.08
   3   3  -2    1.20    3.60
   3  -3  -2    1.10    1.31
   3   3  -2    3.98    1.12
   3  -3  -2    0.81    1.88
   3   3  -2    3.59    2.97
   3  -3  -2    2.76    2.48
  -3  -3   2   -0.82    3.17
   3   3  -1    5.22    3.60
   3  -3  -1    5.00    4.30
   3   3  -1   -0.36    1.84
   3   3  -1    2.07    2.72
   3  -3  -1    4.31    2.98
   3  -3  -1    5.63    4.59
  -3  -3   1    1.06    2.12
   3   3   0    2.40    2.73
   3  -3   0   -2.22    3.09
   3   3   0    1.33    2.60
   3  -3   0    1.32    2.11
   3   3   0    6.80    5.26
   3  -3   0    4.39    4.07
  -3  -3   0    1.67    1.02
   3   3   1   -0.47    3.49
   3  -3   1    2.11    1.65
   3   3   1    0.21    1.77
   3  -3   1    2.08    2.50
   3   3   1    4.60    4.86
  -3  -3  -1    4.59    2.48
   3   3   2   23.81    8.17
  -3  -3  -2   10.85    3.19
   3  -3   2   24.17    8.17
   3   3   2   18.53    6.30
   3  -3   2   20.43    6.81
   3   3   2   26.36    8.85
  -3  -3  -2    8.26    3.51
   3   3   3   21.59    7.57
  -3  -3  -3   13.64    4.05
   3  -3   3   21.03    9.33
   3   3   3   16.65    6.61
   3  -3   3   18.59    6.40
  -3  -3  -3   13.37    4.59
   3   3   3   11.24    5.29
   3   3   4   45.44   11.37
   3   3   4   40.35   11.08
  -3  -3  -4   35.72    7.12
   3  -3   4   40.61   11.22
   3   3   4   37.58    9.54
   3  -3   4   48.00   10.44
  -3  -3  -4   31.36    7.14
  -3   3  -4   21.22    5.71
   3  -3   5  141.22   21.68
   3   3   5  112.21   17.88
   3  -3   5  140.27   19.64
   3   3   5   97.04   18.28
  -3  -3  -5   96.88   14.35
   3   3   5  138.01   21.74
  -3   3  -5   68.16   12.90
  -3  -3  -5  113.71   15.18
   3  -3   6  185.34   25.45
   3   3   6  156.96   22.01
   3   3   6  140.74   22.60
   3  -3   6  177.35   22.92
  -3  -3  -6  108.10   16.68
   3   3   6  189.04   26.03
  -3   3  -6  106.28   17.29
  -3  -3  -6  152.36   19.36
   3   3   7   38.87   11.18
  -3  -3  -7   27.81    7.36
   3  -3   7   37.38   11.20
   3   3   7   33.23    9.06
   3  -3   7   35.48    9.18
  -3  -3  -7   22.15    5.78
  -3   3  -7   25.61    7.10
   3   3   8    5.44    4.01
  -3  -3  -8    3.89    2.81
   3  -3   8    0.86    0.59
   3   3   8    8.83    5.15
   3  -3   8    4.80    2.72
  -3   3  -8    2.64    2.41
  -3  -3  -9   12.56    5.57
   3  -3   9   11.34    6.51
   3   3   9    8.99    4.76
   3  -3   9   12.34    5.24
   3   3   9   19.91    7.57
  -3   3  -9   18.64    6.53
  -3   3 -10    3.54    3.58
  -3  -3 -10    0.58    0.96
   3  -3  10    1.54    0.45
   3   3  10    1.70    0.83
   3  -3  10    3.03    2.82
   3   3  10    6.98    3.93
  -3   3 -11    0.36    1.33
  -3  -3 -11    5.95    4.49
   3  -3  11    3.19    2.79
   3   3  11    2.67    2.93
   3  -3  11    1.41    1.45
   3   3  11    4.21    3.63
  -3   3 -12    1.19    2.14
  -3  -3 -12    0.16    1.44
   3  -3  12    0.58    1.28
   3  -3  12    2.06    2.25
   3   3  12   -1.61    3.13
   3   3  12    7.72    4.96
  -3   3 -13    5.44    5.01
  -3  -3 -13    1.94    3.28
   3  -3  13    3.61    4.24
   3  -3  13    3.00    3.35
   3   3  13    6.17    3.96
  -3   3 -14    3.05    3.81
  -3  -3 -14   -0.12    2.59
   3  -3  14   -2.13    3.05
   3  -3  14    0.06    2.10
   3   3  14   -1.56    2.14
  -3   3 -15    4.63    4.30
  -3  -3 -15    5.05    5.36
   3  -3  15    2.13    3.51
   3  -3  15    5.49    5.20
   3   3  15    5.83    4.83
  -3   3 -16   -0.76    1.68
  -3  -3 -16    1.78    3.61
   3  -3  16    3.76    5.84
   3  -3  16    4.91    4.78
   3   3  16    0.00    1.57
  -3   3 -17   -3.27    3.59
  -3  -3 -17    3.91    4.47
   3  -3  17    0.22    0.86
   3  -3  17    0.49    2.36
   3   3  17   -1.05    2.29
  -3   3 -18   -5.52    4.82
  -3  -3 -18    1.55    4.16
   3  -3  18    3.28    4.38
   3  -3  18    0.06    1.85
   3   3  18    0.66    1.76
  -3   3 -19   -3.73    4.10
  -3  -3 -19   -3.13    3.83
   3  -3  19    1.78    4.32
   3  -3  19   -4.24    3.89
   3   4 -20    2.26    4.71
  -3   4  19    9.92    8.41
   3   4 -19    6.18    6.43
   3  -4 -19    5.93    5.61
  -3  -4  19    4.58    6.41
  -3   4  18    0.59    0.37
   3   4 -18   -3.16    4.14
   3  -4 -18    2.18    2.64
  -3  -4  18    2.72    5.24
  -3   4  17   -0.66    2.44
   3   4 -17    9.21    7.75
   3  -4 -17    5.58    4.93
  -3  -4  17    4.40    5.00
  -3   4  16   -0.21    3.52
   3   4 -16    1.49    5.47
   3  -4 -16    4.00    3.15
  -3  -4  16    4.04    5.12
  -3   4  15    1.79    3.38
   3   4 -15   -3.01    3.82
   3  -4 -15    1.64    3.48
  -3  -4  15    1.54    0.42
   3   4 -14    0.55    1.30
  -3   4  14    6.90    5.13
   3   4 -14    4.79    2.64
   3  -4 -14   -0.91    4.44
  -3  -4  14    3.61    3.39
   3   4 -13    3.36    3.57
  -3   4  13   12.35    8.10
   3   4 -13    0.77    1.84
   3   4 -13   17.66    8.78
   3  -4 -13    8.79    5.34
  -3  -4  13   16.40    8.27
   3   4 -12   -4.54    3.67
   3  -4 -12   -2.07    2.88
  -3   4  12    9.04    5.70
   3   4 -12    0.93    2.98
   3   4 -12    0.28    2.15
   3  -4 -12    3.17    2.96
  -3  -4  12    6.36    6.11
   3   4 -11    9.77    5.30
   3  -4 -11   15.09    8.14
  -3   4  11   12.28    7.07
   3   4 -11   17.66   10.61
   3  -4 -11    6.02    3.50
  -3  -4  11   10.50    7.60
   3   4 -11    6.28    4.15
   3   4 -10    3.87    3.27
   3  -4 -10    4.99    4.12
  -3   4  10    3.25    3.54
   3   4 -10    0.41    3.00
   3   4 -10   -0.25    1.05
   3  -4 -10   -1.51    2.88
  -3  -4  10    5.53    5.12
   3   4  -9   48.23   13.25
   3   4  -9   28.60   11.06
   3  -4  -9   60.19   15.38
  -3   4   9   70.98   17.46
   3   4  -9   76.40   19.17
   3  -4  -9   48.81   12.48
  -3  -4   9   62.25   15.96
   3   4  -8   17.51    7.64
   3   4  -8   26.05    8.92
   3  -4  -8   32.57   10.28
  -3  -4   8   15.60    5.29
   3   4  -8   19.66    8.44
  -3   4   8   27.62   11.05
   3  -4  -8   17.60    6.88
  -3  -4   8   36.09   11.02
   3   4  -7    4.53    3.03
   3   4  -7    3.38    3.53
   3  -4  -7    4.94    3.35
   3   4  -7    1.73    2.28
  -3  -4   7    0.94    0.33
  -3   4   7    1.27    2.96
   3  -4  -7    4.78    4.32
  -3  -4   7    3.19    3.34
   3   4  -7    2.69    5.59
   3  -4  -6   24.66    8.78
   3   4  -6   14.72    6.95
   3   4  -6   25.80    8.22
   3  -4  -6   31.04   10.29
  -3  -4   6   12.95    5.11
  -3   4   6   38.96   13.55
   3  -4  -6   13.59    6.41
   3   4  -6   22.93    9.36
  -3  -4   6   42.83   11.91
   3  -4  -5    4.98    4.08
   3   4  -5   16.41    7.29
   3   4  -5    9.55    5.00
   3  -4  -5    6.78    4.11
  -3  -4   5    0.53    2.81
   3   4  -5    7.16    5.07
   3  -4  -5    6.49    3.54
  -3  -4   5   10.47    6.40
   3   4  -4   60.63   14.44
   3  -4  -4   71.76   16.08
   3   4  -4   54.40   12.27
   3  -4  -4   59.18   13.98
   3   4  -4   70.18   17.00
   3  -4  -4   40.31   11.23
  -3  -4   4   98.98   16.92
   3   4  -3   73.84   16.07
   3  -4  -3   97.61   19.24
   3   4  -3   78.98   15.54
   3  -4  -3  104.80   18.57
   3   4  -3   97.79   18.51
  -3  -4   3  131.79   19.55
   3  -4  -3   66.72   14.31
   3   4  -2    4.87    5.33
   3  -4  -2   -0.33    2.53
   3   4  -2   -0.24    1.76
   3  -4  -2   -2.28    0.88
   3   4  -2   -1.92    3.72
   3  -4  -2    1.47    1.42
  -3  -4   2   -2.03    1.13
   3   4  -1    2.85    4.02
   3  -4  -1   -0.06    1.19
   3   4  -1    4.45    3.08
   3  -4  -1    2.22    2.78
   3   4  -1    6.03    4.37
   3  -4  -1    1.77    1.91
  -3  -4   1    1.11    1.76
   3   4   0    9.55    5.88
   3  -4   0   12.68    6.40
   3   4   0    7.98    4.11
   3  -4   0    8.06    5.37
   3   4   0   14.94    6.73
   3  -4   0    6.08    3.41
  -3  -4   0   11.66    5.16
   3   4   1   10.28    5.97
  -3  -4  -1    8.56    3.33
   3  -4   1   16.75    8.77
   3   4   1    6.22    3.69
   3  -4   1   16.84    6.92
   3   4   1   10.57    6.43
  -3  -4  -1   16.62    5.74
   3   4   2   18.11    7.03
  -3  -4  -2    9.24    3.61
   3  -4   2   11.82    6.31
   3   4   2   11.75    4.71
   3  -4   2   16.62    6.60
   3   4   2   14.63    6.55
  -3  -4  -2   12.97    4.88
   3   4   3    6.00    2.47
  -3  -4  -3    8.88    3.59
   3  -4   3    6.46    3.68
   3   4   3    9.14    4.69
   3  -4   3    4.20    3.89
   3   4   3    5.96    4.77
  -3  -4  -3   11.56    4.81
   3   4   4    4.02    3.66
  -3  -4  -4    3.21    2.32
   3  -4   4   -0.06    2.46
   3   4   4    1.67    3.18
   3  -4   4    0.13    1.85
  -3  -4  -4    3.23    1.68
   3   4   4   -1.10    2.59
   3   4   5    5.62    4.46
   3   4   5    6.71    5.13
  -3  -4  -5    2.54    1.99
   3  -4   5    2.28    4.14
   3   4   5    5.21    2.19
   3  -4   5    5.05    3.63
  -3  -4  -5    5.56    3.63
  -3   4  -5    8.08    3.85
   3   4   6    3.85    3.35
   3   4   6    2.66    3.78
  -3  -4  -6    2.34    2.23
   3  -4   6    5.63    3.80
   3   4   6    2.35    2.80
   3  -4   6    4.39    2.20
  -3  -4  -6    2.53    2.29
  -3   4  -6    0.91    0.38
   3   4   7    7.28    4.42
  -3  -4  -7    8.96    4.66
   3  -4   7    8.56    5.26
   3   4   7    6.59    4.19
   3  -4   7    5.95    3.67
   3   4   7    7.55    4.91
  -3  -4  -7    5.89    3.16
  -3   4  -7    8.61    4.26
   3   4   8   -0.43    2.53
  -3  -4  -8    2.70    2.29
   3  -4   8    1.31    3.04
   3   4   8    5.07    4.39
   3  -4   8    0.66    0.76
   3   4   8    2.22    3.50
  -3   4  -8    3.76    3.55
   3   4   9    3.80    3.01
  -3  -4  -9    1.28    1.63
   3  -4   9   -0.09    0.71
   3  -4   9    1.71    2.62
   3   4   9    6.90    4.99
   3   4   9   -0.59    1.25
  -3   4  -9    0.27    1.32
   3   4  10    5.20    4.53
  -3  -4 -10    1.99    2.88
   3  -4  10    1.79    4.14
   3  -4  10    3.03    3.21
   3   4  10    2.84    2.87
  -3   4 -10    4.31    3.80
  -3  -4 -11   13.54    6.75
   3  -4  11    3.55    4.04
   3  -4  11   -1.87    2.28
   3   4  11    8.88    4.21
   3   4  11    0.86    1.49
  -3   4 -11    3.73    2.30
  -3  -4 -12    1.43    0.74
   3  -4  12    8.41    5.94
   3  -4  12   -2.88    2.84
   3   4  12    1.32    2.56
   3   4  12   -1.83    2.34
  -3   4 -12   -2.53    2.69
  -3   4 -13    8.34    5.47
  -3  -4 -13    7.09    5.06
   3  -4  13    8.32    5.94
   3  -4  13    4.42    4.18
   3   4  13    5.83    4.05
  -3   4 -14    3.93    3.52
  -3  -4 -14    8.71    6.04
   3  -4  14    8.14    5.79
   3  -4  14   15.89    7.52
   3   4  14    5.73    3.35
  -3   4 -15    0.00    1.58
  -3  -4 -15    2.47    1.49
   3  -4  15    2.32    3.78
   3  -4  15    0.81    2.34
   3   4  15    3.65    4.08
  -3   4 -16   -2.71    3.22
  -3  -4 -16    0.60    1.52
   3  -4  16    0.55    1.56
   3  -4  16    0.16    1.46
   3   4  16    1.14    0.53
  -3   4 -17    0.17    2.38
  -3  -4 -17    0.77    2.90
   3  -4  17    2.21    4.62
   3  -4  17    0.13    0.47
   3   4  17    0.93    1.20
  -3   4 -18   -1.52    2.57
  -3  -4 -18    0.11    2.14
   3  -4  18   -0.07    0.32
   3  -4  18    0.46    2.37
  -3  -4 -19    2.04    4.67
   3  -4  19   -0.68    1.68
   3   5 -19    0.16    2.82
  -3   5  18    3.54    6.30
   3   5 -18    1.02    4.01
   3  -5 -18   -1.08    2.15
  -3  -5  18   -0.87    2.29
  -3   5  17   25.34   11.18
   3   5 -17    7.82    7.27
   3  -5 -17    3.30    3.96
  -3  -5  17    3.53    5.16
  -3   5  16    6.59    6.13
   3   5 -16    1.43    3.01
   3  -5 -16    3.06    4.17
  -3  -5  16    4.96    5.79
   3   5 -15    0.82    1.91
  -3   5  15    0.35    1.66
   3   5 -15    2.51    5.01
   3  -5 -15    5.46    5.24
  -3  -5  15    0.20    2.58
   3   5 -14   -2.50    2.82
   3   5 -14   -5.47    4.38
  -3   5  14    0.34    2.29
   3   5 -14   -3.35    4.13
   3  -5 -14   -0.30    1.04
  -3  -5  14   -6.12    5.20
   3   5 -13   -1.57    2.20
   3  -5 -13    1.71    3.10
  -3   5  13   -2.48    4.57
   3   5 -13    4.77    5.71
   3   5 -13   -4.12    3.76
   3  -5 -13   -0.35    1.83
  -3  -5  13    4.34    4.10
   3   5 -12   15.87    6.72
   3   5 -12   11.60    6.82
   3  -5 -12   23.35   10.38
  -3   5  12   13.03    7.55
   3   5 -12   20.72   10.74
   3  -5 -12   20.13    8.17
  -3  -5  12   35.10   12.78
   3   5 -11    0.40    1.47
   3   5 -11    2.09    2.09
   3  -5 -11    9.04    7.38
  -3   5  11   11.39    7.21
   3   5 -11    0.27    1.16
   3  -5 -11    2.93    2.97
  -3  -5  11    2.11    3.30
   3   5 -10   16.56    7.07
   3  -5 -10   36.43   12.01
   3   5 -10   35.75   13.81
  -3   5  10   14.86    7.40
   3  -5 -10   16.09    6.94
   3   5 -10   11.06    6.57
  -3  -5  10   27.34   11.47
   3   5  -9   -1.03    3.68
   3  -5  -9    3.90    5.67
   3   5  -9   -1.85    3.82
   3   5  -9   -1.03    0.94
  -3   5   9    0.24    3.21
   3  -5  -9    1.58    3.37
  -3  -5   9    3.45    5.04
   3   5  -8    9.27    5.78
   3  -5  -8   15.78    7.55
   3   5  -8   10.29    6.08
  -3   5   8   19.92    9.58
   3  -5  -8    6.09    4.28
  -3  -5   8   15.26    6.95
   3   5  -7    7.07    4.41
   3   5  -7   -0.39    3.19
   3  -5  -7    4.63    5.20
  -3   5   7   11.20    6.86
   3  -5  -7    2.78    2.03
  -3  -5   7    5.65    3.84
   3   5  -6   10.40    6.11
   3   5  -6   11.51    6.31
   3   5  -6   11.04    4.86
   3  -5  -6   15.17    7.85
  -3   5   6   27.39   11.37
   3  -5  -6   11.88    5.89
  -3  -5   6   17.61    7.53
   3  -5  -5   14.55    6.45
   3   5  -5   12.20    5.87
   3   5  -5   19.19    8.37
   3   5  -5   10.85    6.03
   3  -5  -5   18.07    7.97
  -3   5   5   14.91    8.98
   3  -5  -5    4.41    2.72
  -3  -5   5   16.28    7.80
   3   5  -4    7.35    4.64
   3  -5  -4    3.29    3.08
   3   5  -4    7.38    4.17
   3   5  -4    9.30    5.64
   3  -5  -4   10.35    6.04
   3  -5  -4    4.06    2.86
  -3  -5   4   14.87    6.13
   3   5  -3    5.95    4.05
   3  -5  -3   11.48    7.10
   3   5  -3    4.31    4.52
   3   5  -3    1.92    3.34
   3  -5  -3    8.13    5.41
   3  -5  -3    6.52    3.82
  -3  -5   3   10.56    5.25
   3   5  -2   10.10    4.78
   3  -5  -2    2.82    4.86
   3   5  -2    8.30    5.48
   3   5  -2    9.23    4.44
   3  -5  -2    7.06    3.90
   3  -5  -2    4.84    3.59
  -3  -5   2    9.95    5.41
   3   5  -1   27.81    9.20
   3   5  -1   27.67    9.14
   3  -5  -1   33.96   10.90
   3   5  -1   28.17    8.85
   3  -5  -1   37.15   10.84
   3  -5  -1   17.02    6.00
  -3  -5   1   41.96   10.70
   3   5   0   70.32   15.52
   3   5   0   66.26   15.11
   3  -5   0   54.08   15.76
   3   5   0   44.82   11.97
   3  -5   0   92.45   16.99
  -3  -5   0   73.31   14.36
   3   5   1   22.55    8.27
   3   5   1   32.11    9.65
   3  -5   1   27.74    9.64
   3   5   1   23.90    7.61
   3  -5   1   30.90    9.82
  -3  -5  -1   41.77    9.94
   3   5   2    8.87    4.73
   3   5   2    9.81    5.55
  -3  -5  -2    4.81    2.75
   3  -5   2    5.86    5.58
   3   5   2    5.99    4.74
   3  -5   2    5.76    4.20
  -3  -5  -2    3.93    2.20
   3   5   3    2.43    2.88
   3   5   3    3.82    2.96
  -3  -5  -3    2.09    1.39
   3  -5   3    5.03    5.15
   3   5   3    2.89    2.60
   3  -5   3    0.49    0.91
  -3  -5  -3    1.64    1.19
   3   5   4    6.43    3.77
  -3  -5  -4    5.20    3.20
   3   5   4    9.01    5.48
   3  -5   4    1.86    1.29
   3   5   4    5.40    3.04
   3  -5   4   13.42    5.98
  -3  -5  -4    3.33    3.25
   3   5   5   -0.35    1.67
  -3  -5  -5    1.80    1.35
   3   5   5    7.53    5.48
   3  -5   5    0.02    1.31
   3   5   5    4.29    3.16
   3  -5   5    0.19    2.98
  -3  -5  -5    0.06    1.18
   3   5   6    3.66    3.90
  -3  -5  -6    0.35    1.69
   3  -5   6   -3.77    3.35
   3   5   6    0.21    1.68
   3   5   6   -0.21    1.84
   3  -5   6    4.42    4.22
  -3  -5  -6    1.89    2.06
  -3   5  -6    1.95    2.41
   3   5   7   -2.42    3.74
  -3  -5  -7   -2.90    2.47
   3  -5   7    0.35    1.01
   3   5   7   -0.04    0.31
   3  -5   7   -2.12    2.86
   3   5   7   -2.92    2.82
  -3  -5  -7    1.56    2.29
  -3   5  -7    1.24    1.69
   3   5   8   22.73    8.73
  -3  -5  -8   17.12    6.91
   3  -5   8   14.13    7.33
   3   5   8    9.22    4.50
   3  -5   8   17.67    7.22
  -3  -5  -8    9.06    4.39
   3   5   8    8.56    5.29
  -3   5  -8    7.49    4.49
   3   5   9    2.39    3.28
   3   5   9   -4.14    3.38
  -3  -5  -9   -0.13    1.00
   3  -5   9   -0.12    2.38
   3  -5   9    0.42    1.91
   3   5   9    0.19    0.98
  -3   5  -9    4.42    3.87
   3   5  10    6.42    4.34
  -3  -5 -10    4.37    4.33
   3  -5  10    7.78    5.69
   3  -5  10    5.19    4.54
   3   5  10    8.53    4.03
   3   5  10    4.17    3.52
  -3   5 -10    4.54    3.28
   3   5  11   15.38    6.84
  -3  -5 -11   18.35    7.48
   3  -5  11   23.19    9.28
   3  -5  11   16.78    7.28
   3   5  11   18.76    7.31
  -3   5 -11   17.71    7.49
   3   5  12   -1.06    2.84
  -3  -5 -12    2.05    3.27
   3  -5  12   -7.02    4.82
   3  -5  12    0.28    1.99
   3   5  12   -0.35    2.20
  -3   5 -12   -2.51    2.78
  -3  -5 -13   -3.01    3.13
   3  -5  13    3.08    3.64
   3  -5  13   -0.58    1.37
   3   5  13   -4.50    3.58
  -3   5 -13   -4.69    3.93
  -3  -5 -14    0.03    2.03
   3  -5  14    2.55    5.44
   3  -5  14    2.12    3.86
   3   5  14    0.68    2.10
  -3   5 -14    0.09    0.22
  -3  -5 -15    3.13    4.60
   3  -5  15    1.23    2.04
   3  -5  15    0.00    1.65
   3   5  15    1.25    2.67
  -3   5 -15    0.61    1.53
  -3  -5 -16    0.34    1.97
   3  -5  16    0.16    1.95
   3  -5  16   -1.93    2.65
   3   5  16   -2.46    2.84
  -3   5 -16   -3.73    3.87
  -3  -5 -17   -5.68    4.89
   3  -5  17    2.16    3.67
   3  -5  17    0.12    0.87
   3   5  17   -2.41    2.88
  -3   5 -17   -1.76    2.74
  -3  -5 -18    1.28    2.92
   3  -5  18   -1.01    2.03
   3   6 -19    0.77    3.94
   3   6 -18    1.48    3.27
   3  -6 -18   -3.10    3.67
  -3   6  17    3.94    5.73
   3   6 -17   -4.88    5.32
   3  -6 -17   -1.79    2.71
  -3  -6  17    8.66    8.42
  -3   6  16   -0.42    0.72
   3   6 -16    5.06    5.96
   3  -6 -16   -2.37    3.03
  -3  -6  16   -0.01    3.02
  -3   6  15    1.59    3.36
   3   6 -15    1.18    2.89
   3   6 -15   -4.07    3.90
   3  -6 -15   -4.15    3.90
  -3  -6  15    1.61    2.77
   3   6 -14   -0.31    1.86
   3   6 -14    0.27    2.27
  -3   6  14    3.82    4.13
   3   6 -14   -4.21    4.71
   3  -6 -14   -2.72    3.79
  -3  -6  14    1.58    2.58
   3   6 -13   -0.75    1.56
   3  -6 -13    5.29    6.08
  -3   6  13    0.66    1.23
   3   6 -13   -1.86    3.09
   3  -6 -13    1.04    3.54
  -3  -6  13    2.68    3.73
   3   6 -13   -4.58    4.04
   3   6 -12    0.90    1.03
   3  -6 -12    0.15    2.36
  -3   6  12    4.41    5.09
   3   6 -12   -2.54    1.40
   3   6 -12    1.28    4.67
   3  -6 -12   -3.77    3.86
  -3  -6  12   -0.43    4.28
   3   6 -11    6.77    4.68
   3  -6 -11    6.41    6.21
   3   6 -11    5.70    5.60
   3   6 -11   -0.32    3.94
  -3   6  11    1.26    2.25
   3  -6 -11   -3.23    3.08
  -3  -6  11    8.95    8.23
   3   6 -10    3.80    4.25
   3   6 -10   10.51    6.23
   3  -6 -10    2.37    3.87
  -3   6  10    2.10    2.44
   3  -6 -10    3.11    3.54
  -3  -6  10    8.19    7.58
   3   6  -9    6.39    4.77
   3   6  -9    1.27    1.99
   3  -6  -9    4.12    4.47
  -3   6   9    7.22    5.60
   3  -6  -9    3.37    3.03
  -3  -6   9    3.33    4.55
   3   6  -8   11.89    6.33
   3   6  -8   12.72    6.64
   3  -6  -8   16.03    7.78
  -3   6   8   11.97    7.58
   3  -6  -8    8.94    5.17
  -3  -6   8   18.71    9.08
   3   6  -7    0.59    2.45
   3   6  -7    6.42    4.47
   3  -6  -7   10.29    7.04
  -3   6   7   13.49    8.47
   3  -6  -7    4.99    3.27
  -3  -6   7   17.00    9.10
   3   6  -6   12.80    6.54
   3   6  -6   10.28    5.84
   3  -6  -6   14.93    7.96
  -3   6   6   13.91    9.46
   3  -6  -6   14.84    5.50
  -3  -6   6   40.26   12.45
   3   6  -5    2.29    1.24
   3   6  -5    4.09    4.08
   3  -6  -5    3.55    4.42
  -3   6   5   -1.05    3.99
   3  -6  -5    4.32    2.81
  -3  -6   5    1.79    3.81
   3   6  -5    4.59    4.88
   3  -6  -4   10.00    5.79
   3   6  -4    9.45    4.96
   3   6  -4   14.36    6.45
   3  -6  -4   18.08    7.70
   3  -6  -4    4.61    3.04
  -3  -6   4   17.37    7.53
   3   6  -4   13.43    7.08
   3  -6  -3    9.14    5.29
   3   6  -3    6.93    4.16
   3   6  -3    9.02    4.01
   3  -6  -3    6.78    3.64
  -3  -6   3    7.93    4.90
   3   6  -3    6.44    5.73
   3  -6  -2   90.51   18.36
   3   6  -2   74.23   16.28
   3   6  -2   49.37   12.38
   3  -6  -2   92.94   18.83
  -3  -6   2  102.18   18.46
   3   6  -2   70.01   15.69
   3  -6  -1   24.65    9.41
   3   6  -1   39.88   11.88
   3   6  -1   18.98    7.42
   3  -6  -1   51.24   13.33
  -3  -6   1   39.57   10.76
   3   6  -1   45.19   12.19
   3  -6   0   50.70   13.82
   3   6   0   45.78   12.51
   3   6   0   26.82    8.65
   3  -6   0   52.80   13.49
  -3  -6   0   62.23   13.80
   3   6   0   46.29   12.60
   3   6   1   46.27   11.93
   3  -6   1   49.98   13.41
   3   6   1   33.48    9.63
   3  -6   1   59.07   14.29
  -3  -6  -1   55.04   12.58
   3   6   1   52.57   13.31
   3   6   2   -0.36    2.84
   3  -6   2   -5.27    4.00
   3   6   2   -1.80    1.98
   3  -6   2   -3.49    2.52
  -3  -6  -2   -0.34    1.51
   3   6   2    0.37    3.18
   3   6   3    4.13    5.30
   3  -6   3    4.09    3.78
   3   6   3    3.32    3.29
   3  -6   3   -0.01    3.01
  -3  -6  -3    0.30    2.29
   3   6   3    5.64    3.56
   3   6   4    2.15    2.83
  -3  -6  -4   -0.61    2.48
   3  -6   4    4.08    4.44
   3   6   4    0.59    1.77
   3  -6   4   -0.76    0.62
  -3  -6  -4    3.15    2.25
   3   6   4    4.88    3.82
   3   6   5   -0.48    1.27
   3   6   5   -1.55    1.85
  -3  -6  -5    1.12    1.38
   3  -6   5   -0.12    0.68
   3   6   5    0.09    1.27
   3  -6   5    0.15    1.07
  -3  -6  -5    1.63    2.57
   3   6   6    1.68    0.21
   3   6   6    2.48    1.33
  -3  -6  -6    3.10    2.69
   3  -6   6   -4.35    3.69
   3   6   6    1.71    2.56
   3  -6   6    4.18    5.09
  -3  -6  -6    2.03    2.40
   3   6   7   -4.86    3.72
   3   6   7   -0.72    1.49
  -3  -6  -7    0.04    1.61
   3  -6   7   -0.33    1.17
   3   6   7   -3.17    2.71
   3  -6   7    6.84    5.54
  -3  -6  -7   -1.14    1.95
  -3   6  -7   -0.78    1.44
   3   6   8   12.74    6.83
  -3  -6  -8    7.40    4.73
   3   6   8    6.04    5.05
   3  -6   8    6.40    4.32
   3  -6   8   15.28    7.43
   3   6   8    6.89    4.90
  -3  -6  -8    5.24    2.95
  -3   6  -8    6.56    4.26
   3   6   9   13.26    6.81
  -3  -6  -9    7.41    5.22
   3  -6   9   13.60    7.49
   3   6   9    3.70    3.88
   3  -6   9   12.94    6.99
   3   6   9   13.68    6.03
  -3   6  -9   12.19    6.10
   3   6  10    8.14    5.95
  -3  -6 -10   10.60    6.52
   3  -6  10    4.75    4.19
   3  -6  10    7.81    6.15
   3   6  10   10.37    5.83
   3   6  10    2.36    3.70
  -3   6 -10    4.08    4.02
   3   6  11    1.37    2.04
  -3  -6 -11   -0.33    2.19
   3  -6  11    0.85    2.40
   3  -6  11    2.62    3.38
   3   6  11    0.14    1.74
  -3   6 -11   -2.80    2.96
  -3  -6 -12   -1.90    2.54
   3  -6  12    0.52    1.26
   3  -6  12    2.56    2.89
   3   6  12    7.52    5.06
  -3   6 -12   10.73    7.32
  -3  -6 -13   -7.71    5.20
   3  -6  13    0.02    0.69
   3  -6  13   -4.24    3.87
   3   6  13   -0.55    1.06
  -3   6 -13   -1.65    2.42
  -3  -6 -14    0.51    0.86
   3  -6  14   -3.57    3.61
   3  -6  14    1.97    3.15
   3   6  14    4.37    4.34
  -3   6 -14   -2.87    3.29
  -3  -6 -15    0.12    0.69
   3  -6  15   -1.54    2.41
   3  -6  15    0.88    0.86
   3   6  15    0.45    1.19
  -3   6 -15    0.82    2.06
  -3  -6 -16   -2.42    3.18
   3  -6  16    0.05    1.05
   3  -6  16   -1.45    2.40
   3   6  16    5.67    5.61
  -3   6 -16    0.55    4.11
  -3  -6 -17    0.50    0.51
   3  -6  17    1.20    3.31
   3   7 -18    0.06    1.29
   3   7 -17    2.62    6.81
   3  -7 -17   -1.72    2.68
  -3   7  16    4.25    4.51
   3   7 -16    2.08    2.24
   3  -7 -16    0.23    1.02
  -3  -7  16   -2.42    3.52
   3   7 -15   -4.69    4.28
  -3   7  15    8.47    7.36
   3   7 -15   -4.58    5.10
   3  -7 -15    0.43    2.89
  -3  -7  15   -5.43    5.17
   3  -7 -14    0.78    1.77
  -3   7  14    5.78    5.16
   3   7 -14   -1.91    2.71
   3  -7 -14    0.40    1.56
  -3  -7  14   12.95    8.70
   3   7 -13    1.61    2.84
   3  -7 -13   10.55    7.47
   3   7 -13    1.03    2.32
  -3   7  13   -0.01    3.12
   3  -7 -13    5.31    4.40
  -3  -7  13   10.45    7.53
   3   7 -12   -0.13    0.65
   3   7 -12    0.11    1.82
   3  -7 -12    0.62    2.46
  -3   7  12   -2.80    4.26
   3  -7 -12    1.38    2.30
  -3  -7  12    1.06    3.76
   3   7 -11    1.28    3.80
   3   7 -11    2.31    2.59
   3  -7 -11   -3.64    4.08
  -3   7  11   -2.52    3.00
   3  -7 -11   -0.66    0.36
  -3  -7  11    1.97    4.56
   3   7 -10    0.00    2.46
   3   7 -10    0.30    3.00
   3  -7 -10    4.07    4.82
  -3   7  10   -2.39    4.08
   3  -7 -10    3.90    2.81
  -3  -7  10    6.27    5.05
   3   7  -9   -0.90    0.58
   3  -7  -9    4.76    6.63
  -3   7   9    0.51    5.08
   3  -7  -9    1.36    1.84
  -3  -7   9    1.06    2.74
   3   7  -9    1.79    4.09
   3   7  -8    1.16    1.34
   3  -7  -8    3.43    3.82
  -3   7   8    1.71    2.15
   3  -7  -8    6.04    3.58
  -3  -7   8    3.49    3.88
   3   7  -8    6.84    4.98
   3   7  -7    7.87    5.16
   3  -7  -7    4.73    4.79
  -3   7   7    0.42    1.04
   3  -7  -7    2.78    2.72
   3   7  -7   -0.28    3.45
  -3  -7   7    6.88    5.29
   3   7  -6    5.54    4.42
   3  -7  -6   -2.01    2.77
  -3   7   6    5.12    6.10
   3   7  -6    8.12    5.87
   3  -7  -6    5.03    3.52
  -3  -7   6   20.42    8.45
   3   7  -5    4.82    4.96
   3  -7  -5    4.73    4.53
  -3   7   5   -2.11    5.19
   3   7  -5   -0.53    1.88
   3  -7  -5   -0.91    1.99
  -3  -7   5    5.99    6.29
   3   7  -4    7.49    5.53
   3  -7  -4    4.51    5.67
  -3   7   4   -3.38    3.61
   3   7  -4   -7.97    5.00
  -3  -7   4   -3.56    3.45
   3  -7  -3   10.71    5.77
   3   7  -3   13.27    6.18
   3  -7  -3   22.22    9.46
   3   7  -3   11.70    6.35
  -3  -7   3   16.77    7.76
   3  -7  -2    3.85    3.72
   3   7  -2    3.20    3.66
   3  -7  -2    0.77    3.25
   3   7  -2    9.29    5.73
  -3  -7   2    4.53    4.12
   3  -7  -1   -0.04    2.63
   3   7  -1    0.15    2.05
   3  -7  -1   -1.78    3.73
   3   7  -1   -1.28    2.12
  -3  -7   1    0.66    3.31
   3  -7   0    7.79    5.41
   3   7   0    1.44    2.49
   3  -7   0   10.51    5.62
   3   7   0    3.80    2.86
  -3  -7   0    9.90    6.54
   3  -7   1   -4.18    3.58
   3   7   1    3.41    3.56
   3   7   1   -0.96    2.44
   3  -7   1    1.69    3.41
   3   7   1   -0.61    1.08
  -3  -7  -1    0.31    3.02
   3  -7   2    1.20    1.96
   3   7   2    4.89    3.77
   3   7   2    2.17    2.28
   3  -7   2    3.77    2.64
   3   7   2    4.84    5.06
  -3  -7  -2    2.66    1.62
   3  -7   3    4.06    3.93
   3   7   3   11.99    5.71
   3   7   3    2.42    2.32
   3  -7   3    8.99    6.01
   3   7   3    4.32    2.95
  -3  -7  -3    5.58    3.91
   3   7   4    7.70    5.23
  -3  -7  -4   10.91    4.82
   3  -7   4    9.51    5.69
   3   7   4    6.94    3.53
   3  -7   4   15.02    8.48
   3   7   4   15.24    7.91
  -3  -7  -4    8.54    5.03
   3   7   5    0.53    0.85
  -3  -7  -5   -0.33    2.26
   3  -7   5    0.14    0.40
   3   7   5    2.00    2.00
   3  -7   5    2.33    3.07
  -3  -7  -5    0.48    1.06
   3   7   5    2.88    3.62
   3   7   6    2.37    1.64
  -3  -7  -6    2.93    2.49
   3  -7   6    5.59    4.30
   3   7   6    3.87    3.31
   3  -7   6    6.44    5.49
  -3  -7  -6    0.25    1.89
   3   7   6   -2.51    2.77
   3   7   7   12.14    6.79
  -3  -7  -7   21.86    8.05
   3  -7   7    9.17    5.65
   3   7   7   15.70    6.36
   3  -7   7   17.50    7.85
  -3  -7  -7   10.34    5.61
   3   7   7    2.45    2.84
   3   7   8    3.02    4.08
   3   7   8   12.58    6.52
  -3  -7  -8    7.09    4.91
   3  -7   8   10.89    6.88
   3  -7   8    7.77    5.88
   3   7   8    6.32    4.34
  -3  -7  -8    7.16    3.49
   3   7   9    9.90    6.20
   3   7   9   -1.30    2.08
  -3  -7  -9   -0.08    1.26
   3  -7   9    0.84    2.66
   3  -7   9   -4.68    4.12
   3   7   9   -2.34    2.42
  -3   7  -9   -0.43    1.14
   3   7  10    0.54    2.35
  -3  -7 -10   -0.41    1.13
   3   7  10    0.92    2.98
   3  -7  10    3.84    4.24
   3  -7  10   -0.17    0.89
   3   7  10   -0.25    1.38
  -3   7 -10    1.48    3.05
   3   7  11    1.99    2.74
  -3  -7 -11    2.18    2.97
   3  -7  11    0.11    2.84
   3  -7  11   -0.80    4.24
   3   7  11   -2.33    2.51
  -3   7 -11   -5.92    4.49
  -3  -7 -12   -1.52    2.34
   3  -7  12    2.52    3.49
   3  -7  12    5.30    6.44
   3   7  12    0.82    2.40
  -3   7 -12   -0.72    1.61
  -3  -7 -13   -1.44    2.35
   3  -7  13    1.20    3.86
   3  -7  13   11.54    6.87
   3   7  13    1.31    3.25
  -3   7 -13    1.79    4.30
  -3  -7 -14    2.23    3.83
   3  -7  14    1.45    2.51
   3   7  14   -0.64    1.41
  -3   7 -14   -0.01    1.69
  -3  -7 -15    0.03    1.17
   3  -7  15   -2.41    3.16
   3   7  15    0.30    1.47
  -3   7 -15   -2.30    3.13
  -3  -7 -16   -6.98    5.58
   3  -8 -16    1.27    3.27
   3  -8 -15    0.30    2.48
   3  -8 -14    2.68    3.74
   3   8 -14   -5.22    4.57
  -3   8  14    4.91    4.63
  -3  -8  14    3.03    4.02
   3  -8 -14    1.78    3.16
   3   8 -13   -4.31    4.11
   3   8 -13    1.51    2.37
   3  -8 -13    2.09    4.62
  -3   8  13    5.01    5.08
  -3  -8  13    7.36    6.88
   3  -8 -13    2.64    3.35
   3   8 -12    1.33    3.13
   3   8 -12   -1.51    3.13
   3  -8 -12    2.10    4.24
  -3   8  12    3.96    6.30
  -3  -8  12    3.59    4.89
   3  -8 -12    0.78    1.87
   3   8 -11    1.46    3.34
   3   8 -11    4.45    4.08
   3  -8 -11   -4.30    4.61
  -3  -8  11    0.02    2.63
   3  -8 -11   -1.51    2.16
   3   8 -10   -0.75    1.60
   3  -8 -10   -2.93    3.69
  -3   8  10   -0.88    2.15
  -3  -8  10    5.07    4.93
   3  -8 -10   -1.32    1.95
   3   8 -10   -1.89    2.65
   3   8  -9    0.93    1.92
   3  -8  -9   -0.11    1.44
  -3   8   9    0.65    2.48
   3   8  -9    2.24    3.75
  -3  -8   9    1.31    2.61
   3  -8  -9   -0.19    0.84
   3   8  -8    2.15    1.45
   3  -8  -8   13.58    8.71
  -3   8   8    0.63    3.48
   3   8  -8    2.11    2.88
  -3  -8   8    1.44    3.08
   3  -8  -8    1.77    1.49
   3   8  -7   19.36    8.39
   3  -8  -7   33.79   12.28
  -3   8   7   29.39   13.36
   3   8  -7   15.88    8.17
  -3  -8   7   31.06   11.07
   3   8  -6    8.44    6.01
   3   8  -6    8.25    5.83
  -3   8   6   11.24    9.26
  -3  -8   6   15.93   10.02
   3   8  -5   28.84   10.06
   3  -8  -5   37.15   12.90
   3   8  -5   29.17   10.66
  -3   8   5   30.07   13.71
  -3  -8   5   39.82   12.08
   3   8  -4    2.98    1.61
   3  -8  -4   -0.76    5.32
   3   8  -4   -0.42    0.65
  -3   8   4   -0.37    5.33
  -3  -8   4    2.37    5.01
   3   8  -3    4.50    3.79
   3  -8  -3   -1.06    2.47
   3   8  -3    2.45    2.00
  -3   8   3   -0.75    1.95
  -3  -8   3    5.78    4.84
   3  -8  -2    9.78    5.71
   3   8  -2    0.53    0.94
   3  -8  -2    9.42    6.54
   3   8  -2    4.85    4.52
  -3  -8   2   10.95    6.43
   3  -8  -1   21.32    8.44
   3   8  -1   20.32    8.19
   3  -8  -1   34.11   11.53
   3   8  -1   23.38    8.81
  -3  -8   1   20.85    8.77
   3  -8   0    1.66    1.71
   3   8   0    1.54    2.56
   3  -8   0    3.23    2.29
   3   8   0    2.14    2.47
  -3  -8   0    2.23    2.38
   3  -8   1   11.47    6.35
   3   8   1    4.98    3.37
   3  -8   1   13.92    7.25
   3   8   1    5.74    4.09
  -3  -8  -1    8.38    4.56
   3  -8   2   -1.05    2.34
   3   8   2    3.07    3.65
   3  -8   2    0.32    3.80
   3   8   2   -2.43    2.78
  -3  -8  -2    3.89    3.82
   3  -8   3    7.07    4.94
   3   8   3    0.88    1.66
   3  -8   3    7.29    6.00
   3   8   3    2.97    3.89
  -3  -8  -3    3.62    4.23
   3  -8   4    1.17    2.40
   3   8   4    5.48    5.26
   3  -8   4    3.60    3.34
   3   8   4    9.42    5.52
  -3  -8  -4    4.56    4.13
  -3  -8  -5    0.25    2.66
   3  -8   5   -5.30    4.17
   3   8   5    5.60    4.59
   3  -8   5    3.37    6.27
   3   8   5    1.65    1.19
  -3  -8  -5    2.10    1.98
  -3  -8  -6   -0.83    1.53
   3   8   6    0.95    2.26
   3  -8   6    2.06    3.63
   3  -8   6    6.71    6.47
   3   8   6    2.38    2.72
  -3  -8  -6    2.92    3.87
  -3  -8  -7   -0.16    0.72
   3   8   7    3.57    3.44
   3  -8   7    2.90    2.53
   3  -8   7    1.20    1.49
  -3  -8  -7    2.12    2.57
   3   8   7    5.68    4.93
   3   8   8   -0.38    1.75
  -3  -8  -8   -2.41    2.71
   3  -8   8    0.09    0.55
   3   8   8    1.95    1.79
   3  -8   8    0.25    2.80
  -3  -8  -8    3.40    3.41
   3   8   8   -0.02    1.64
   3   8   9   -4.32    3.89
  -3  -8  -9    4.41    4.53
   3  -8   9    0.31    2.28
   3  -8   9   -0.34    1.84
   3   8   9    1.59    2.21
   3   8   9    3.76    4.79
   3   8  10   -2.01    2.68
  -3  -8 -10   -0.79    1.63
   3  -8  10   -1.95    2.84
   3   8  10   -0.44    1.08
   3   8  11   -1.58    2.39
  -3  -8 -11   -4.55    4.06
   3  -8  11    0.14    2.20
   3   8  11   -1.29    1.89
  -3   8 -11    3.18    4.19
  -3  -8 -12    0.04    1.34
   3  -8  12    0.26    1.06
   3   8  12    3.31    3.74
  -3   8 -12    0.14    0.92
  -3  -8 -13    1.34    1.56
   3  -8  13    2.86    4.64
   3   8  13   -0.55    1.29
  -3  -8 -14    3.93    5.61
   3   8  14   -0.88    1.67
   3   8  15    0.87    2.59
   3  -9 -15    0.22    0.81
   3   9 -14   35.83   12.87
   3  -9 -14    1.89    3.55
   3   9 -13    0.04    2.45
   3   9 -13    2.48    3.63
   3  -9 -13   -6.67    6.22
  -3   9  13   -3.26    4.05
  -3  -9  13    3.78    6.38
   3  -9 -13    1.93    3.41
   3   9 -12    0.50    1.36
   3  -9 -12    1.41    3.33
  -3   9  12    0.21    3.08
  -3  -9  12   -0.24    2.34
   3  -9 -12   -3.86    3.60
   3   9 -12   -1.08    2.08
   3   9 -11   -0.30    1.05
  -3   9  11    1.50    3.24
  -3  -9  11    3.97    6.53
   3  -9 -11   -1.60    2.25
   3   9 -11   -4.52    4.26
   3   9 -10    0.05    0.96
   3  -9 -10   -0.06    1.87
  -3   9  10    0.49    1.35
   3   9 -10    2.12    2.91
  -3  -9  10    4.69    5.61
   3   9  -9   -1.66    2.45
   3  -9  -9   -0.78    2.06
  -3   9   9   -0.21    1.81
   3   9  -9   -6.10    4.84
  -3  -9   9    1.79    3.40
   3   9  -8   -0.40    1.18
   3  -9  -8    2.93    5.98
   3   9  -8   -0.78    3.85
  -3   9   8    2.91    5.13
  -3  -9   8    0.45    2.66
   3   9  -7    1.04    1.58
   3  -9  -7    9.35    7.48
   3   9  -7    7.97    6.49
  -3   9   7    7.19    5.56
  -3  -9   7   -1.08    3.14
   3   9  -6   -3.58    3.51
   3  -9  -6    1.23    2.57
   3   9  -6    1.61    3.47
  -3   9   6    5.30    5.98
  -3  -9   6   -2.04    2.91
   3   9  -5   27.40   10.17
   3  -9  -5   43.51   14.31
   3   9  -5   35.94   12.16
  -3   9   5   42.92   15.22
  -3  -9   5   46.33   14.37
   3   9  -4    5.49    3.86
   3  -9  -4   12.12    8.03
   3   9  -4    9.57    7.60
  -3   9   4    3.87    5.92
  -3  -9   4    9.88    7.23
   3   9  -3   12.29    6.69
   3  -9  -3   25.50   10.81
   3   9  -3   19.73    8.55
  -3   9   3   10.40    9.48
  -3  -9   3   28.75   10.93
   3   9  -2    2.45    2.58
   3   9  -2   12.13    7.14
   3  -9  -2   12.36    8.67
  -3   9   2    3.33    6.00
  -3  -9   2    3.46    4.64
   3  -9  -1    0.46    0.58
   3   9  -1    2.42    2.83
   3   9  -1    7.72    6.74
   3  -9  -1    0.80    4.43
  -3  -9   1    5.73    5.08
   3  -9   0    0.48    0.97
   3   9   0    2.27    0.21
   3   9   0    3.16    2.97
   3  -9   0    4.43    3.84
  -3  -9   0   -5.79    4.51
   3  -9   1    0.49    0.82
   3   9   1   -0.21    2.84
   3   9   1    0.16    2.64
   3  -9   1   -0.32    2.71
  -3  -9  -1   -1.63    2.35
   3  -9   2    0.61    0.43
   3   9   2    0.42    2.40
   3   9   2    0.26    2.64
   3  -9   2    7.70    7.34
  -3  -9  -2    2.37    1.01
   3  -9   3   -0.18    0.36
   3   9   3    6.97    5.17
   3   9   3    2.98    4.13
   3  -9   3    2.51    5.10
  -3  -9  -3    0.22    0.88
   3   9   4    3.75    4.01
   3   9   4   -9.58    5.71
   3  -9   4    1.49    1.10
  -3  -9  -4    1.85    3.30
   3   9   5   -2.43    3.39
   3  -9   5    0.62    1.86
   3   9   5    0.61    3.57
  -3  -9  -5   -3.20    3.25
  -3  -9  -6    5.24    4.60
   3   9   6   -2.69    3.10
   3  -9   6    2.77    3.42
   3   9   6    0.20    2.09
  -3  -9  -6   -2.83    3.06
  -3  -9  -7    2.91    3.66
   3   9   7    5.55    4.41
   3  -9   7   -4.24    4.26
   3   9   7    0.23    0.91
  -3  -9  -7    0.32    1.03
  -3  -9  -8    0.86    2.91
   3   9   8   -2.87    3.23
   3  -9   8    4.73    5.48
   3   9   8   -2.40    2.89
  -3  -9  -8    0.56    1.78
  -3  -9  -9   -3.08    3.30
   3   9   9    2.93    3.87
   3  -9   9   -3.49    3.93
   3   9   9    0.00    2.11
   3   9  10   -0.64    1.55
  -3  -9 -10    4.53    4.93
   3  -9  10   -2.27    3.21
   3   9  11    0.00    0.84
  -3  -9 -11   -4.80    4.31
   3  -9  11   -4.41    4.53
  -3  -9 -12   -6.15    5.07
   3  10 -13   -3.85    3.95
   3  10 -13   -3.07    3.67
   3  10 -12   -0.89    1.89
   3  10 -12    2.45    3.99
   3  10 -11    1.24    2.63
   3 -10 -11    1.72    5.62
  -3  10  11    0.42    1.56
   3  10 -11   -0.84    1.89
   3  10 -10   -2.83    3.32
   3 -10 -10   -1.43    2.80
  -3  10  10   -2.84    3.77
   3  10 -10   -3.37    3.75
  -3 -10  10    0.13    1.79
   3  10  -9   -3.96    3.90
   3 -10  -9    0.79    2.88
   3  10  -9   -0.89    1.92
  -3  10   9    0.03    0.41
  -3 -10   9   -6.80    5.72
   3  10  -8    4.59    4.22
   3 -10  -8    1.28    2.56
   3  10  -8    5.35    5.60
  -3  10   8    0.52    2.50
  -3 -10   8    9.48    7.88
   3  10  -7   -5.84    4.68
   3 -10  -7    2.33    2.73
   3  10  -7    0.02    0.30
  -3  10   7   -1.62    2.84
  -3 -10   7    7.30    6.74
   3  10  -6    2.27    3.52
   3 -10  -6    6.14    5.36
   3  10  -6    4.72    4.21
  -3  10   6    6.48    7.00
  -3 -10   6    2.08    2.71
   3  10  -5   -1.78    3.18
   3  10  -5    0.00    1.73
   3 -10  -5    0.97    4.29
  -3  10   5    5.94    6.44
  -3 -10   5    1.46    3.08
   3  10  -4   -1.69    0.97
   3  10  -4    1.33    0.61
   3 -10  -4   -0.50    2.13
  -3  10   4    2.15    3.77
  -3 -10   4   -1.65    2.62
   3  10  -3   -5.12    3.55
   3  10  -3    1.50    3.27
   3 -10  -3   -4.67    4.89
  -3  10   3    0.20    2.00
  -3 -10   3    0.21    1.51
   3  10  -2    7.30    4.87
   3  10  -2    5.93    4.69
   3 -10  -2    1.65    2.94
  -3  10   2    1.82    3.99
  -3 -10   2   10.65    6.03
   3  10  -1   -6.39    4.83
   3  10  -1    1.88    1.48
   3 -10  -1   -1.59    5.79
  -3  10   1   -1.79    3.76
  -3 -10   1    0.33    1.88
   3  10   0   -7.08    5.08
   3  10   0   -1.81    3.89
   3 -10   0    0.60    1.67
  -3  10   0   -0.07    4.70
  -3 -10   0   -4.43    4.11
   3  10   1    0.12    2.92
   3  10   1    7.92    5.96
   3 -10   1    7.72    6.15
  -3 -10  -1    2.75    3.70
   3  10   2    0.27    2.11
   3  10   2    4.00    4.15
   3 -10   2    8.18    6.86
  -3 -10  -2    5.33    5.99
   3  10   3    2.55    3.95
   3  10   3    1.48    2.47
   3 -10   3    1.74    4.68
  -3 -10  -3   -8.16    5.47
   3  10   4    1.31    1.95
   3  10   4    3.87    4.36
   3 -10   4   -4.34    4.44
  -3 -10  -4    0.14    3.79
   3  10   5   -4.61    4.16
   3  10   5    4.90    3.80
   3 -10   5    3.17    4.43
  -3 -10  -5   -0.58    1.46
  -3 -10  -6    2.77    3.70
   3  10   6   -0.60    1.52
   3  10   6    0.42    1.25
   3 -10   6    1.44    4.06
  -3 -10  -6    0.84    2.35
  -3 -10  -7   -4.01    3.81
   3  10   7    0.83    0.39
   3 -10   7    3.27    4.23
   3  10   7   -5.56    4.55
  -3 -10  -7    4.12    5.78
  -3 -10  -8    2.73    4.22
   3  10   8    9.45    6.69
   3 -10   8    0.78    1.97
   3  10   8    0.26    2.75
  -3 -10  -8    1.20    3.15
   3  10   9    5.28    5.21
   3 -10   9    8.73    8.20
   3  10   9    2.65    4.67
   3  10  10    0.18    0.55
   3  11  -8    9.35    6.68
   3  11  -8    8.96    7.87
  -3  11   8    6.53    6.39
   3  11  -7    0.42    0.54
   3 -11  -7    0.04    1.88
   3  11  -7   -0.12    0.71
  -3  11   7   -1.39    2.64
  -3 -11   7    3.48    6.19
   3  11  -6    0.32    1.36
   3  11  -6    0.62    3.68
   3 -11  -6    1.72    4.03
  -3  11   6   -0.41    1.45
  -3 -11   6   -2.53    3.45
   3  11  -5   -1.02    2.06
   3  11  -5   -5.59    4.71
   3 -11  -5   -6.56    5.84
  -3  11   5   -2.45    3.54
  -3 -11   5   -2.99    3.72
   3  11  -4   -2.43    3.13
   3  11  -4    1.17    2.94
   3 -11  -4   -6.74    5.87
  -3  11   4   -1.10    2.41
  -3 -11   4    1.14    3.61
   3  11  -3   -1.75    1.10
   3  11  -3    0.43    2.31
   3 -11  -3   -0.34    1.32
  -3  11   3    1.77    3.92
  -3 -11   3    3.73    4.50
   3  11  -2   -4.18    4.04
   3  11  -2   -3.88    3.90
   3 -11  -2   -4.09    4.54
  -3  11   2   -1.22    2.57
  -3 -11   2    0.26    1.63
   3  11  -1   -7.00    5.21
   3  11  -1    0.02    3.58
   3 -11  -1    1.69    4.62
  -3  11   1   -5.96    5.69
  -3 -11   1    1.73    5.00
   3  11   0   18.62    8.23
   3  11   0    4.96    3.86
   3 -11   0   12.54    8.64
  -3  11   0    2.73    5.22
  -3 -11   0   13.14    8.33
   3  11   1    0.32    1.66
   3  11   1   -0.76    1.81
   3 -11   1    0.61    2.86
  -3  11  -1    5.55    5.21
  -3 -11  -1   -0.19    3.44
   3  11   2   -5.32    4.53
   3  11   2   -3.70    3.83
   3 -11   2   -5.05    5.02
  -3 -11  -2    0.05    1.16
   3  11   3   -1.98    2.78
   3  11   3    0.31    2.00
   3 -11   3    0.38    3.60
  -3 -11  -3    0.35    2.66
   3  11   4   -0.62    1.57
   3  11   4    5.80    4.83
   3 -11   4    0.03    0.83
  -3 -11  -4    0.44    2.38
   3  11   5    2.06    2.62
   3  11   5   -0.21    0.92
   3 -11   5    1.41    4.96
  -3 -11  -5    1.63    3.62
   3  11   6   -2.99    3.49
   3  11   6    3.36    4.77
  -3 -11  -6    1.53    3.87
   3  11   7    0.00    0.75
   3  11   7   -1.08    2.08
  -3 -11  -7   -3.05    3.52
   3  11   8    1.11    2.89
   3  11   8    3.33    4.37
  -3 -11  -8    0.00    0.88
   3  11   9   -3.90    4.06
   3  11  10    4.33    5.29
  -3  12   5    5.84    6.19
  -3  12   4    3.82    4.67
  -3  12   3    0.69    1.80
  -3  12   2    2.54    3.24
  -3  12   1    0.48    2.06
  -3  12   0   -1.09    2.46
  -4   0  18   -6.90    5.74
  -4   0  17   -2.09    3.10
  -4   0  16    1.30    1.79
   4   0 -16    4.36    5.61
  -4   0  15    0.96    3.07
   4   0 -15    4.11    5.12
  -4   0  14    0.28    1.06
   4   0 -14   -6.48    5.54
  -4   0  13   -0.46    1.77
   4   0 -13    0.96    2.09
  -4   0  12    4.13    5.39
   4   0 -12    3.74    3.90
  -4   0  11    0.21    1.00
   4   0 -11   -0.85    2.12
  -4   0  10   31.76   12.92
   4   0 -10   49.91   15.12
  -4   0   9    0.74    1.40
   4   0  -9    0.20    0.44
   4   0  -8   15.23    6.50
  -4   0   8   12.25    7.85
   4   0  -8   19.35    9.10
   4   0  -7   -0.38    3.95
   4   0  -7   -1.25    1.83
  -4   0   7   -0.06    6.81
   4   0  -7    1.17    1.35
   4   0  -6    8.88    3.89
   4   0  -6    5.86    4.91
  -4   0   6   -1.50    4.98
   4   0  -6    3.25    2.55
  -4   0   6    7.60    4.86
   4   0  -5   -2.65    1.79
   4   0  -5   -3.87    3.05
   4   0  -5    3.04    5.12
   4   0  -5    3.48    1.57
  -4   0   5    0.98    1.53
   4   0  -4   10.63    5.96
   4   0  -4    6.07    5.48
   4   0  -4    2.46    2.75
  -4   0   4    4.88    3.94
   4   0  -3   -4.65    3.85
   4   0  -3   -2.13    3.77
  -4   0   3   -0.18    1.77
   4   0  -2   65.47   15.48
   4   0  -2   53.61   15.08
  -4   0   2   28.64    9.11
   4   0  -1   -2.84    3.42
   4   0  -1    7.43    4.86
   4   0   0   35.80   11.56
   4   0   0   41.14   12.97
   4   0   1    2.33    2.47
   4   0   1    2.96    3.06
   4   0   2   27.85   10.13
   4   0   2   52.71   13.84
   4   0   3    0.27    0.49
   4   0   3   -0.98    1.42
   4   0   4   12.27    6.91
   4   0   5    0.81    1.07
   4   0   6    1.23    1.25
   4   0   7   -1.81    1.97
   4   0   8   -0.96    1.81
   4   0   9    2.03    3.59
   4   0  10    2.40    3.26
   4   0  11    5.58    5.47
   4   0  12    1.33    2.26
   4   0  13    2.80    4.01
   4   0  14    2.49    4.66
  -4   1  18   -3.69    4.31
  -4   1  17    1.21    3.53
  -4   1  16    0.79    1.54
   4   1 -16   -2.93    3.94
   4  -1 -16    0.51    3.38
  -4  -1  15   -0.08    0.86
  -4   1  15    1.07    3.56
   4   1 -15   -3.52    4.24
   4  -1 -15    1.63    3.38
  -4  -1  14    0.13    2.57
  -4   1  14   -0.13    2.02
   4   1 -14   -1.53    2.77
   4  -1 -14   -4.46    4.52
  -4  -1  13   -0.43    1.52
  -4   1  13   -0.25    2.67
   4   1 -13   -1.18    2.38
   4  -1 -13   -1.78    1.58
  -4  -1  12   -4.67    4.12
  -4   1  12   -0.09    3.25
   4   1 -12   -0.30    2.48
   4  -1 -12   -2.67    3.38
   4   1 -12    2.83    3.43
  -4  -1  11    0.16    2.42
  -4   1  11    2.01    3.43
   4   1 -11    0.64    1.35
   4  -1 -11    2.49    3.38
   4   1 -11    2.11    3.79
  -4  -1  10    0.78    1.83
  -4   1  10    6.78    7.04
   4   1 -10    8.37    6.39
   4  -1 -10   10.81    6.85
   4   1 -10    8.75    5.14
  -4  -1   9    9.55    6.74
  -4   1   9   17.80    9.34
   4   1  -9   33.08   12.57
   4  -1  -9   25.79   10.52
   4   1  -9   19.53    8.85
  -4  -1   9   22.87    9.70
   4  -1  -8   30.29   11.10
   4   1  -8   35.19   11.34
   4   1  -8   51.48   15.86
  -4  -1   8   26.28   11.66
  -4   1   8   19.86   11.69
   4  -1  -8   47.51   14.17
   4   1  -8   53.46   14.72
  -4  -1   8   44.95   12.95
   4  -1  -7    5.30    4.85
   4   1  -7    2.91    3.12
   4  -1  -7    2.09    2.34
   4   1  -7    9.91    7.58
  -4  -1   7    0.42    3.03
  -4   1   7    1.13    3.20
   4  -1  -7    9.62    5.76
   4   1  -7    9.84    6.21
  -4  -1   7    8.01    5.13
   4  -1  -6   11.12    6.37
   4   1  -6    6.42    4.80
   4  -1  -6    5.10    4.17
   4   1  -6    9.93    7.08
   4  -1  -6    1.60    3.04
  -4  -1   6    8.56    7.38
  -4   1   6    3.37    2.27
  -4  -1   6    3.47    2.85
   4   1  -6    4.11    4.16
   4  -1  -5    0.06    4.86
   4   1  -5   -3.36    3.27
   4  -1  -5    1.24    2.20
   4   1  -5    5.69    3.35
   4  -1  -5    5.41    5.91
  -4  -1   5    4.22    2.62
   4   1  -5    2.50    3.84
   4  -1  -4    3.79    3.43
   4   1  -4    6.26    4.53
   4  -1  -4   -0.06    2.12
   4  -1  -4    0.66    1.96
  -4  -1   4   -0.58    0.86
   4   1  -4    1.08    2.04
   4  -1  -3   -1.29    3.74
   4   1  -3    1.47    2.16
   4  -1  -3   -2.02    3.03
   4  -1  -3    3.57    1.79
  -4  -1   3    3.32    3.35
  -4   1   3   -3.90    2.89
   4   1  -3    2.32    4.96
   4  -1  -2    5.09    4.70
   4   1  -2    3.01    3.66
   4  -1  -2    2.01    2.07
  -4  -1   2    0.11    1.05
   4   1  -2   -0.04    3.00
   4  -1  -1    7.30    4.85
   4   1  -1    8.72    5.25
   4  -1  -1    9.71    4.48
  -4  -1   1    8.09    4.30
   4   1  -1   12.20    6.07
   4  -1   0   14.43    6.16
   4   1   0   12.70    7.13
   4  -1   0   10.31    5.01
   4   1   0   10.53    5.96
   4  -1   1    5.66    5.09
   4   1   1    3.68    3.78
   4  -1   1   -0.26    1.20
   4   1   1    3.31    4.33
   4  -1   2    1.47    2.19
   4   1   2    4.37    3.45
   4   1   2    2.82    2.81
   4  -1   3   11.36    5.75
   4   1   3   -1.81    3.20
   4   1   3    5.09    5.13
   4  -1   4    9.39    6.18
   4   1   4    3.79    3.28
   4   1   4    6.20    3.87
   4  -1   5   -0.96    1.74
   4   1   5    2.34    2.40
   4   1   5   -8.50    5.56
   4  -1   6   -0.04    0.72
   4   1   6   -2.47    3.91
   4   1   6   -0.66    3.17
   4  -1   7    0.78    4.48
   4   1   7   -2.66    2.97
   4   1   7    2.31    3.20
   4  -1   8    2.48    3.15
   4   1   8   -1.90    2.50
   4  -1   9    6.77    4.98
   4   1   9    3.74    3.61
   4  -1  10    4.30    5.02
   4   1  10   -1.13    1.42
   4  -1  11   -3.65    3.66
   4   1  11    0.91    2.36
   4  -1  12    1.01    1.77
   4   1  12    3.49    3.53
   4  -1  13    1.87    2.80
   4   1  13    0.69    1.43
   4  -1  14   -0.62    1.57
   4   1  14    1.27    2.05
  -4   2  17    3.48    5.34
  -4   2  16    0.01    2.75
   4   2 -16   -1.07    2.42
   4  -2 -16    0.12    1.06
  -4  -2  16   -0.03    0.99
  -4   2  15    2.50    3.01
   4   2 -15    1.46    1.38
   4  -2 -15    0.03    1.60
  -4  -2  15   -2.91    3.64
  -4   2  14    4.69    5.74
   4   2 -14    4.80    4.76
   4  -2 -14    4.61    4.77
  -4  -2  14    3.51    4.35
  -4   2  13    4.11    5.45
   4   2 -13    3.18    5.14
   4  -2 -13    0.06    1.34
   4   2 -13   -4.22    3.97
  -4  -2  13    0.70    1.71
  -4   2  12    4.76    5.60
   4   2 -12    3.71    4.92
   4  -2 -12    2.82    3.53
   4   2 -12    2.27    3.52
  -4  -2  12    0.02    2.15
  -4  -2  11    1.72    3.18
  -4   2  11    1.10    2.29
   4   2 -11    1.28    4.04
   4  -2 -11    0.06    1.07
   4   2 -11    1.24    2.33
  -4  -2  11    2.68    5.60
  -4  -2  10    8.50    6.10
  -4   2  10   11.82    7.33
   4   2 -10   14.35    8.95
   4  -2 -10    7.84    6.01
  -4  -2  10   13.25    8.30
   4   2 -10   11.45    7.15
   4  -2  -9    4.06    4.70
  -4  -2   9    1.99    3.61
   4   2  -9    0.43    4.83
  -4   2   9    0.59    3.24
   4  -2  -9    3.57    3.31
  -4  -2   9    3.28    4.12
   4   2  -9    1.24    3.35
   4   2  -8   10.97    6.95
   4  -2  -8    3.80    4.63
   4   2  -8   11.82    7.69
  -4  -2   8   11.22    6.87
  -4   2   8    3.96    2.07
   4  -2  -8   12.30    6.83
  -4  -2   8   12.96    8.14
   4   2  -8   11.46    6.75
   4  -2  -7    0.62    3.19
   4   2  -7    5.69    5.47
   4  -2  -7   20.47    9.08
   4   2  -7    8.95    8.03
  -4  -2   7    2.84    3.39
  -4   2   7    7.84    7.36
   4  -2  -7    7.93    6.16
  -4  -2   7   14.07    8.11
   4   2  -7   16.04    8.15
   4  -2  -6    2.27    5.16
   4   2  -6    4.41    4.48
   4  -2  -6    7.91    5.73
   4   2  -6    3.86    2.23
  -4  -2   6    0.95    3.71
   4  -2  -6   -3.96    4.76
  -4   2   6    2.53    5.45
  -4  -2   6    8.20    5.82
   4   2  -6    1.81    3.52
   4  -2  -5   -1.25    3.17
   4   2  -5    0.29    3.32
   4  -2  -5   -0.50    2.77
   4  -2  -5   -5.91    4.57
  -4  -2   5    1.85    2.18
   4   2  -5    2.00    2.41
   4  -2  -4    5.45    3.97
   4   2  -4    2.63    2.77
   4  -2  -4    1.80    3.74
   4  -2  -4    1.97    1.92
  -4  -2   4    5.16    4.15
   4   2  -4    2.54    1.44
   4  -2  -3    2.52    2.83
   4   2  -3   17.44   11.60
   4  -2  -3    3.67    3.41
   4  -2  -3    4.29    3.72
  -4  -2   3    0.29    1.42
   4   2  -3    0.47    3.72
   4  -2  -2    8.09    5.32
   4   2  -2    8.61    6.45
   4  -2  -2    6.51    4.24
  -4  -2   2    1.13    2.16
   4   2  -2    5.35    4.69
   4  -2  -1    3.06    2.86
   4   2  -1    7.48    6.10
   4  -2  -1    3.29    3.23
  -4  -2   1    2.31    3.05
   4   2  -1    7.17    6.59
   4  -2   0    4.15    4.04
   4   2   0    1.25    1.18
   4  -2   0    4.97    3.15
  -4  -2   0   -1.26    1.14
   4   2   0    5.27    5.34
   4  -2   1   -1.60    1.17
   4   2   1    4.56    4.60
   4  -2   1    5.36    3.60
   4   2   1   -0.58    3.63
   4  -2   2    7.02    5.60
   4   2   2   10.03    6.48
   4  -2   2    6.39    3.81
   4   2   2    1.19    2.03
   4  -2   3    6.99    4.79
   4   2   3    2.47    2.80
   4  -2   3    7.51    4.44
   4   2   3   17.43    8.09
   4  -2   4    1.43    3.51
   4   2   4   -1.11    3.10
   4  -2   4   -0.85    1.63
   4   2   4    5.32    4.65
   4  -2   5    9.00    6.00
   4   2   5    8.79    5.34
   4  -2   5    3.60    3.08
   4   2   5    3.13    1.50
   4  -2   6   46.35   13.98
   4   2   6   38.50   11.62
   4  -2   6   25.05    8.22
   4   2   6   51.71   14.75
   4  -2   7    6.19    5.50
   4   2   7    6.57    4.63
   4   2   7    5.03    4.96
   4  -2   8   -1.29    2.78
   4   2   8    5.53    4.24
   4   2   8    0.64    1.10
   4  -2   9    1.92    3.33
   4   2   9    1.69    2.43
   4   2   9    0.88    2.80
   4  -2  10    0.39    1.21
   4   2  10    2.16    1.65
   4   2  10   -5.92    4.69
   4  -2  11   -0.61    1.71
   4   2  11    2.61    3.08
   4  -2  12    0.88    3.36
   4   2  12   -0.23    1.05
   4  -2  13    2.19    4.54
   4   2  13   -2.06    2.74
   4  -2  14    4.43    5.20
   4   2  14   -4.44    4.09
  -4   3  16    4.28    6.72
   4   3 -16    7.31    7.80
   4  -3 -16    9.10    7.77
  -4  -3  16    3.01    6.36
  -4   3  15    0.64    2.07
   4   3 -15   -2.83    4.01
   4  -3 -15   -2.80    3.56
  -4  -3  15    4.55    5.60
  -4   3  14    0.55    1.82
   4   3 -14    3.81    5.67
   4  -3 -14    0.41    2.50
  -4  -3  14    3.16    3.79
  -4   3  13    0.89    1.89
   4   3 -13    2.37    5.39
   4  -3 -13    5.96    5.78
  -4  -3  13   -0.89    1.97
   4   3 -13    3.04    3.20
  -4   3  12    2.12    1.51
   4   3 -12   -3.02    3.95
   4  -3 -12    2.76    4.22
  -4  -3  12   -3.76    3.96
   4   3 -12   -3.40    3.62
  -4   3  11    1.48    4.10
   4   3 -11   -0.25    0.95
   4  -3 -11    7.18    6.29
  -4  -3  11    2.51    5.08
   4   3 -11    5.48    5.05
   4  -3 -10    6.33    6.73
   4   3 -10   20.84   11.43
  -4   3  10    6.65    6.22
   4  -3 -10   10.51    6.25
  -4  -3  10    2.84    1.65
   4   3 -10    6.45    5.48
   4  -3  -9    4.83    4.07
   4   3  -9   -1.01    3.01
  -4   3   9    6.44    5.21
   4  -3  -9    4.55    2.91
  -4  -3   9    3.86    4.98
   4   3  -9    2.81    2.74
   4   3  -8   15.63    7.40
   4  -3  -8   11.41    7.78
   4   3  -8   37.08   13.83
  -4   3   8   13.53    9.69
   4  -3  -8    4.70    3.98
  -4  -3   8   17.27    8.99
   4   3  -8   11.31    6.46
   4  -3  -7   -0.28    4.77
   4   3  -7   10.34    6.25
   4  -3  -7    4.25    4.57
  -4   3   7    8.24    6.08
  -4  -3   7   10.59    6.39
   4   3  -7    2.37    3.48
   4  -3  -6    5.15    4.34
   4   3  -6    2.36    3.33
   4  -3  -6    7.45    5.32
  -4  -3   6    2.65    3.08
  -4   3   6    7.86    7.70
   4  -3  -6   -1.36    2.69
  -4  -3   6    2.36    3.27
   4   3  -6    3.53    0.55
   4  -3  -5    2.16    3.67
   4   3  -5   -5.08    4.12
   4  -3  -5    1.12    1.95
   4  -3  -5    1.44    1.84
  -4  -3   5    0.29    2.18
  -4  -3   5    1.86    2.07
   4   3  -5    2.31    1.81
   4  -3  -4    0.21    2.84
   4   3  -4    1.74    5.28
   4  -3  -4    6.42    4.97
   4  -3  -4   -2.09    3.69
  -4  -3   4    1.28    0.97
   4  -3  -3   15.15    8.15
   4   3  -3    5.95    5.30
   4  -3  -3    9.46    5.47
   4  -3  -3    5.30    4.43
  -4  -3   3    9.19    5.26
   4   3  -3    3.42    3.10
   4  -3  -2   10.59    6.45
   4   3  -2    8.59    5.18
   4  -3  -2    9.15    5.61
   4  -3  -2    7.59    4.93
  -4  -3   2    4.44    3.25
   4   3  -2    5.60    4.47
   4  -3  -1    8.44    4.94
   4   3  -1    2.99    2.99
   4  -3  -1    1.66    2.98
  -4  -3   1    2.59    2.03
   4   3  -1   -0.37    2.51
   4  -3   0   -3.43    4.13
   4   3   0    0.88    2.82
   4  -3   0    0.04    1.20
  -4  -3   0    1.71    2.36
   4   3   0   -2.22    3.22
   4  -3   1   -0.82    1.67
   4   3   1    0.18    1.45
   4  -3   1    2.32    3.15
   4   3   1   -0.09    2.06
   4  -3   2   -1.20    1.95
   4   3   2    1.48    3.68
   4  -3   2    7.13    4.75
   4   3   2   -0.09    2.74
   4  -3   3   14.19    6.91
   4   3   3   15.10    7.19
   4  -3   3    8.95    5.57
   4   3   3   15.20    7.13
   4  -3   4    9.37    7.63
   4   3   4    7.17    4.78
   4  -3   4   15.81    7.83
   4   3   4   19.72    8.53
   4  -3   5   33.21   11.60
   4   3   5   21.37    8.09
   4  -3   5   13.93    6.42
   4   3   5   27.14   10.66
   4  -3   6   20.01    8.64
   4   3   6   11.54    6.49
   4  -3   6    8.08    5.24
   4   3   6   21.63    9.09
   4  -3   7   19.22    9.23
   4   3   7   11.21    6.56
   4  -3   7    9.05    5.33
   4   3   7   17.88    9.76
   4  -3   8    0.76    1.77
   4   3   8    0.57    2.00
   4  -3   8   -3.96    3.25
   4   3   8    5.30    5.07
   4  -3   9   -0.31    1.60
   4   3   9   -1.63    1.02
   4  -3   9    1.32    2.76
   4   3   9    2.52    3.67
   4  -3  10   -0.12    0.75
   4   3  10    0.51    1.65
   4  -3  10    0.00    3.06
   4   3  10   -1.71    2.57
   4  -3  11   -4.35    4.15
   4   3  11    1.57    2.24
   4   3  11   -2.47    3.08
   4  -3  12    1.73    2.38
   4   3  12    0.45    0.86
   4  -3  13   -2.55    3.23
   4   3  13    2.00    2.98
   4  -3  14   -0.03    1.73
   4  -4 -16   -4.57    4.68
  -4   4  15    0.25    1.14
   4   4 -15   -0.23    1.18
   4  -4 -15   -4.36    4.46
  -4  -4  15   -4.09    4.50
  -4   4  14    0.91    3.75
   4   4 -14   -7.52    6.55
   4  -4 -14    0.68    1.98
  -4  -4  14    2.68    4.57
  -4   4  13    0.05    1.29
   4   4 -13    0.87    2.41
   4  -4 -13    0.31    1.83
  -4  -4  13    1.25    1.28
   4   4 -13    0.71    2.56
  -4   4  12   -6.27    5.60
   4   4 -12    2.73    3.85
   4  -4 -12   -0.11    0.69
  -4  -4  12   -0.14    0.80
   4   4 -12   -5.43    4.64
   4  -4 -11   -0.76    1.83
   4   4 -11   -2.17    4.38
  -4   4  11    0.55    3.63
   4  -4 -11    3.26    3.67
  -4  -4  11    0.33    2.17
   4   4 -11   -1.09    2.16
   4  -4 -10   -0.62    2.08
   4   4 -10    6.92    5.24
  -4   4  10    2.78    3.85
   4  -4 -10    1.50    0.93
  -4  -4  10   10.35    8.96
   4   4 -10    3.34    2.77
   4   4  -9   10.27    6.64
   4  -4  -9   -0.14    3.35
  -4   4   9    4.17    3.58
   4  -4  -9   -0.18    0.75
  -4  -4   9    6.12    5.70
   4   4  -8    3.92    4.20
   4  -4  -8   -3.33    3.54
  -4   4   8    1.48    5.63
   4  -4  -8   -0.39    2.70
  -4  -4   8    2.49    3.92
   4   4  -7    9.75    5.96
   4  -4  -7    8.15    5.65
   4   4  -7   12.79    7.25
   4  -4  -7   20.22    9.26
  -4   4   7   11.68    8.53
   4  -4  -7    9.94    6.00
  -4  -4   7   23.27    9.76
   4   4  -6    0.75    2.02
   4  -4  -6    3.23    3.14
   4   4  -6   -1.64    3.48
   4  -4  -6    2.38    3.52
  -4   4   6    4.35    2.59
   4  -4  -6    2.56    2.96
  -4  -4   6    0.31    2.77
   4   4  -5    8.56    5.04
   4  -4  -5    6.70    5.13
   4   4  -5   11.67    6.64
   4  -4  -5   15.21    7.66
   4   4  -5   14.89    8.03
   4  -4  -5    7.75    5.38
  -4  -4   5   14.43    7.44
   4   4  -4   15.69    7.95
   4   4  -4   14.87    7.86
   4  -4  -4    8.50    6.50
   4   4  -4   12.02    6.57
   4  -4  -4   25.55    9.57
   4  -4  -4   15.28    7.08
  -4  -4   4   18.43    8.13
   4   4  -3    0.09    3.41
   4  -4  -3   -1.61    3.02
   4   4  -3   -1.21    1.97
   4  -4  -3    1.37    2.90
   4   4  -3    0.64    3.51
  -4  -4   3   -0.49    1.45
   4   4  -2    8.35    5.08
   4  -4  -2   10.07    6.68
   4   4  -2    5.94    3.64
   4  -4  -2   -1.45    2.85
   4   4  -2    4.78    4.53
  -4  -4   2   11.02    5.75
   4   4  -1    4.08    2.41
   4  -4  -1   10.46    5.47
   4   4  -1    3.11    3.29
   4  -4  -1   11.25    6.25
   4   4  -1   -0.09    1.50
  -4  -4   1    3.97    2.95
   4   4   0    1.22    1.31
   4  -4   0    1.64    4.90
   4   4   0    2.56    4.82
   4  -4   0   -1.16    1.90
  -4  -4   0    2.48    2.83
   4   4   0    3.29    3.07
   4   4   1    6.15    5.38
   4  -4   1   12.97    7.84
   4   4   1    1.08    2.78
   4  -4   1    7.25    4.98
  -4  -4  -1    6.75    4.01
   4   4   1    7.70    5.25
   4   4   2   11.71    6.44
   4  -4   2    3.53    4.15
   4   4   2    9.92    6.32
   4  -4   2    9.64    5.99
   4   4   3   10.75    7.00
   4  -4   3   11.02    6.87
   4   4   3    6.64    5.11
   4  -4   3   10.60    5.63
   4   4   4    2.47    3.96
   4  -4   4    0.09    0.33
   4   4   4    0.24    3.23
   4  -4   4    1.50    1.80
   4   4   5    1.79    3.48
   4  -4   5    5.07    6.08
   4   4   5   -3.84    3.46
   4  -4   5    1.14    3.47
   4  -4   6   -1.94    4.51
   4   4   6    0.39    2.74
   4  -4   6    2.25    2.28
   4   4   6    0.13    2.96
   4  -4   7    6.36    5.27
   4   4   7    7.84    5.78
   4  -4   7    7.27    4.75
   4   4   7   12.85    7.51
   4  -4   8    9.91    6.38
   4   4   8    4.73    4.86
   4  -4   8    1.29    1.86
   4   4   8   11.70    7.21
   4  -4   9    2.26    2.92
   4   4   9    1.59    2.71
   4  -4   9    1.49    2.55
   4   4   9    4.24    5.03
   4  -4  10    2.77    4.61
   4   4  10    2.54    3.51
   4  -4  10   -0.48    1.22
   4   4  10    1.17    2.73
   4  -4  11   -1.33    2.34
   4   4  11    0.86    2.29
   4  -4  11    0.61    1.40
   4   4  11   -2.29    3.02
   4  -4  12    2.40    4.13
   4   4  12    0.06    1.81
   4  -4  12    1.27    1.80
   4  -4  13    5.13    5.83
   4   4  13    3.74    4.06
   4  -4  13    0.08    1.36
   4  -4  14    0.66    1.84
   4  -5 -15    3.37    4.54
  -4   5  14    1.60    4.26
   4   5 -14   -1.47    5.44
   4  -5 -14    0.84    2.46
  -4  -5  14   -1.66    2.85
   4   5 -13   -5.02    5.40
  -4   5  13    5.18    7.30
   4  -5 -13    0.65    1.66
  -4  -5  13    5.75    6.74
   4   5 -13   -4.46    4.25
   4   5 -12    0.47    1.09
   4  -5 -12    1.61    3.76
   4   5 -12   -0.18    3.98
  -4   5  12   -1.11    4.02
   4  -5 -12   -0.94    1.94
  -4  -5  12    1.97    2.84
   4   5 -11    4.51    4.14
   4  -5 -11   10.85    8.11
  -4   5  11    8.42    7.59
   4  -5 -11    0.50    1.40
  -4  -5  11    4.20    5.81
   4   5 -10    1.51    2.45
   4  -5 -10    0.10    1.10
  -4   5  10    1.42    5.56
   4   5 -10    2.93    4.93
   4  -5 -10    0.00    1.29
  -4  -5  10   -1.33    2.37
   4   5  -9    3.56    4.58
   4  -5  -9   -0.03    1.38
  -4   5   9   -3.30    4.28
   4   5  -9    3.20    3.24
   4  -5  -9    2.86    3.21
  -4  -5   9    1.75    5.04
   4   5  -8    2.87    2.91
   4   5  -8    8.00    7.01
   4  -5  -8    7.26    6.11
  -4   5   8    6.63    5.70
   4  -5  -8    3.88    2.95
  -4  -5   8    1.78    4.57
   4   5  -7    4.94    4.55
   4   5  -7    4.88    3.12
   4  -5  -7    5.63    5.28
  -4   5   7    9.54    7.14
   4  -5  -7   -2.29    3.96
   4   5  -7    4.59    5.57
  -4  -5   7    7.55    5.86
   4   5  -6    8.68    6.06
   4  -5  -6    1.11    0.65
   4   5  -6    0.83    1.43
   4  -5  -6   10.36    7.56
   4   5  -6    2.50    5.92
  -4   5   6    8.38    6.02
   4  -5  -6    3.86    3.10
  -4  -5   6    1.91    2.56
   4   5  -5    3.00    4.32
   4  -5  -5    7.36    5.19
   4   5  -5    3.49    4.02
   4   5  -5    3.69    3.67
   4  -5  -5    0.14    1.77
  -4   5   5    5.11    7.97
  -4  -5   5    4.79    4.72
   4   5  -4    2.90    2.48
   4  -5  -4    4.37    4.17
   4   5  -4    1.77    3.33
   4   5  -4    3.57    3.70
   4  -5  -4    8.93    6.59
  -4  -5   4    7.94    6.08
   4   5  -3    2.90    3.22
   4  -5  -3   -1.89    3.50
   4   5  -3    0.24    2.04
  -4  -5   3    0.32    1.66
   4   5  -2   19.78    8.42
   4   5  -2   24.84   10.14
   4  -5  -2   26.39   11.38
   4   5  -2   20.99    8.64
   4  -5  -2   32.99   10.90
  -4  -5   2   25.18    9.83
   4   5  -1    6.23    5.77
   4   5  -1   12.84    7.23
   4  -5  -1   12.93    7.80
   4   5  -1    8.46    5.53
   4  -5  -1   21.25    8.81
  -4  -5   1   10.84    6.48
   4   5   0   15.03    7.68
   4   5   0    6.37    5.48
   4  -5   0   17.82    9.65
   4   5   0   10.85    6.10
   4  -5   0   14.48    7.67
  -4  -5   0   11.27    6.08
   4   5   1   17.20    8.46
   4  -5   1   12.74    7.87
   4   5   1    9.48    6.56
   4   5   1    8.20    5.84
   4  -5   1   18.13    7.74
  -4  -5  -1   14.08    6.25
   4   5   2   14.20    7.03
   4  -5   2   15.89    9.40
   4   5   2   15.53    7.50
   4   5   2    9.92    7.44
   4  -5   2   15.78    7.37
  -4  -5  -2   10.76    5.01
   4   5   3    7.50    4.43
   4  -5   3    3.18    4.07
   4   5   3    7.58    4.95
   4  -5   3    5.38    3.88
   4   5   3    5.09    5.40
   4   5   4    3.71    5.02
   4   5   4   -1.82    2.58
   4  -5   4   -2.35    3.07
   4   5   4    0.86    2.18
   4  -5   4   -2.81    2.96
   4   5   5    0.65    2.78
   4  -5   5   -5.68    4.81
   4   5   5   -4.12    3.59
   4  -5   5   -3.94    3.52
   4   5   5   -1.52    2.37
   4   5   6   -2.92    3.42
   4  -5   6    1.73    3.43
   4  -5   6    0.60    1.73
   4   5   6    1.37    2.43
   4   5   7    0.00    3.72
   4  -5   7    0.58    1.75
   4  -5   7   -3.03    3.11
   4  -5   8    0.14    3.57
   4   5   8    5.09    3.52
   4  -5   8    0.92    2.07
   4   5   8   -3.97    4.00
   4  -5   9    1.46    2.50
   4   5   9   -5.24    4.14
   4  -5   9    0.41    1.68
   4   5   9    1.92    2.56
   4  -5  10    0.15    2.72
   4  -5  10   -1.47    2.27
   4   5  10    1.06    3.31
   4  -5  11    1.73    4.33
   4   5  11    1.00    1.42
   4  -5  11   -1.64    2.39
   4   5  11    2.79    3.65
   4  -5  12   -2.46    3.29
   4   5  12    1.79    3.28
   4  -5  12    2.31    3.84
   4  -5  13    4.41    6.58
   4  -5  13   -0.47    1.33
   4  -5  14    0.00    1.72
   4  -6 -14    1.58    3.88
   4   6 -13    4.60    4.92
   4  -6 -13    1.86    3.19
   4  -6 -13    0.82    2.11
  -4  -6  13    0.95    2.46
   4   6 -12    1.25    3.35
   4  -6 -12    2.18    4.39
  -4   6  12    0.45    2.19
   4  -6 -12    0.83    2.05
  -4  -6  12    0.33    1.54
   4   6 -12    0.01    1.42
   4   6 -11   -2.61    3.27
   4   6 -11    1.58    2.94
   4  -6 -11    0.97    3.17
  -4   6  11   -2.13    5.96
   4  -6 -11   -2.39    3.34
  -4  -6  11    1.71    3.46
   4   6 -10   -3.20    3.61
   4  -6 -10   -6.34    5.45
  -4   6  10    4.99    4.92
   4  -6 -10   -0.34    1.85
  -4  -6  10    4.82    5.84
   4   6  -9    3.01    3.84
   4   6  -9    2.02    5.10
   4  -6  -9    1.65    5.07
  -4   6   9    5.36    5.70
   4  -6  -9    1.54    3.90
  -4  -6   9    5.01    5.00
   4   6  -8    6.28    6.27
   4  -6  -8    7.87    7.78
  -4   6   8   -7.67    6.56
  -4  -6   8    0.32    1.16
   4   6  -8   -3.16    3.61
   4   6  -7   -6.41    5.03
   4  -6  -7   -5.86    4.95
  -4   6   7   -1.52    3.86
   4   6  -7    8.98    6.41
  -4  -6   7    3.14    3.86
   4   6  -6    0.71    2.86
   4  -6  -6   -4.40    4.18
   4   6  -6    0.37    0.60
  -4   6   6    2.30    5.05
  -4  -6   6    1.80    3.84
   4   6  -5    0.47    1.60
   4  -6  -5    1.01    2.07
   4  -6  -5    1.32    2.85
   4   6  -5   10.84    6.44
  -4   6   5   -0.52    4.05
  -4  -6   5    3.21    4.41
   4   6  -4   -1.60    3.85
   4  -6  -4    5.15    5.83
   4   6  -4   -4.16    4.03
   4  -6  -4   -0.57    2.89
  -4  -6   4    0.68    2.50
   4   6  -3    0.65    2.41
   4  -6  -3    6.85    6.72
   4   6  -3    4.50    3.35
   4  -6  -3    6.41    5.67
  -4  -6   3   -6.04    4.59
   4   6  -2    2.91    4.61
   4  -6  -2    3.54    4.61
   4   6  -2    1.64    4.96
   4   6  -2    0.15    2.14
   4  -6  -2    2.79    2.80
  -4  -6   2    3.16    3.80
   4   6  -1    7.23    5.77
   4  -6  -1   -3.18    3.64
   4   6  -1    8.19    5.43
   4   6  -1    1.57    2.11
   4  -6  -1    4.50    5.12
  -4  -6   1    1.50    2.30
   4   6   0    8.15    5.74
   4  -6   0    9.00    6.88
   4   6   0    4.92    2.06
   4   6   0    4.14    3.77
   4  -6   0    8.72    5.59
  -4  -6   0    9.90    6.38
   4   6   1    2.15    1.99
   4  -6   1    4.33    4.22
   4   6   1    3.59    4.42
   4   6   1    2.34    2.06
   4  -6   1    1.00    2.38
  -4  -6  -1    5.49    5.45
   4   6   2   -1.66    3.03
   4  -6   2    1.26    5.21
   4   6   2    1.69    2.61
   4   6   2   -1.27    3.64
   4  -6   2   -1.65    2.39
  -4  -6  -2   -2.53    2.68
   4   6   3    0.65    3.02
   4  -6   3   -0.37    1.78
   4   6   3   -1.98    2.49
   4  -6   3   -2.26    2.80
   4   6   3   -3.08    3.41
   4   6   4    5.05    4.77
   4  -6   4    1.38    2.41
   4   6   4    2.80    2.98
   4  -6   4    0.17    1.81
   4   6   4   -2.14    2.84
   4   6   5    4.74    5.24
   4  -6   5   -2.97    3.55
   4   6   5   -0.99    1.77
   4  -6   5   -3.72    3.59
   4   6   5   -1.06    2.00
   4   6   6    1.29    1.33
   4   6   6    2.24    2.91
   4  -6   6    0.47    1.07
   4   6   6    0.58    2.16
   4  -6   6   -4.12    3.79
   4   6   7    1.74    3.28
   4  -6   7    0.11    0.90
   4   6   7   -2.75    2.97
   4  -6   7   -2.49    2.96
   4   6   7    4.30    7.00
   4   6   8   -2.15    2.99
   4  -6   8    4.05    5.39
   4   6   8    0.69    2.39
   4  -6   8    2.86    4.34
   4   6   8    0.08    0.61
   4   6   9    7.34    6.21
   4  -6   9    0.03    0.45
   4   6   9    2.15    2.36
   4  -6   9    2.30    2.87
   4  -6  10   -5.33    4.89
   4  -6  10    1.05    3.30
   4  -6  11    1.41    3.77
   4   6  11    0.00    1.34
   4  -6  11   -2.40    3.04
   4   6  11    3.83    5.08
   4  -6  12    5.81    6.39
   4   6  12   -2.24    2.82
   4  -6  12    3.93    4.86
   4  -6  13   -2.05    3.08
   4  -7 -14    6.32    6.20
   4   7 -13    3.13    4.02
   4  -7 -13    0.60    2.38
   4   7 -13    3.01    4.27
   4   7 -12   -1.94    2.89
   4   7 -12   -0.22    1.01
   4   7 -11   -3.01    3.57
   4  -7 -11   -0.63    1.84
  -4   7  11    1.03    1.40
  -4  -7  11    2.91    2.35
   4   7 -11   -1.91    3.64
   4   7 -10   -0.29    2.29
   4  -7 -10    0.17    2.42
   4   7 -10   -2.85    3.54
  -4   7  10    1.86    6.20
  -4  -7  10    2.07    2.47
   4   7  -9    0.12    0.71
   4  -7  -9    2.68    5.14
   4   7  -9   -1.00    2.08
  -4   7   9   -0.32    2.06
  -4  -7   9    0.00    2.47
   4   7  -8   -1.14    2.15
   4   7  -8    4.78    4.91
   4  -7  -8    6.23    6.04
  -4   7   8   -9.30    7.40
  -4  -7   8    2.26    3.14
   4   7  -7    2.17    0.93
   4   7  -7   -2.68    3.29
   4  -7  -7   -2.33    3.21
  -4   7   7   -1.21    5.12
  -4  -7   7   -5.12    4.66
   4   7  -6    0.42    1.03
   4  -7  -6    2.15    3.36
  -4   7   6    1.16    2.66
  -4  -7   6    4.65    6.03
   4   7  -6   -6.18    5.04
   4   7  -5    0.22    1.61
   4  -7  -5    0.17    2.60
  -4   7   5   -0.73    1.79
  -4  -7   5   -1.02    2.02
   4   7  -5    4.63    5.56
   4  -7  -4    3.78    4.66
   4   7  -4    5.85    5.57
   4  -7  -4    3.88    3.92
  -4   7   4    0.12    2.87
  -4  -7   4    2.49    3.79
   4   7  -4    0.00    1.63
   4  -7  -3   -2.16    3.03
   4   7  -3   -1.59    1.98
   4  -7  -3   -0.03    2.20
  -4  -7   3    0.35    1.19
   4   7  -3   -2.76    5.24
   4   7  -2    2.84    2.99
   4  -7  -2    0.19    1.28
   4  -7  -2    1.90    1.28
   4   7  -2   -4.31    4.39
  -4  -7   2    0.16    0.70
   4   7  -1    6.28    5.56
   4  -7  -1   -0.67    1.68
   4  -7  -1    1.65    3.31
   4   7  -1   -0.81    4.12
  -4  -7   1    0.37    2.68
   4   7   0    1.66    3.10
   4  -7   0   11.39    7.41
   4  -7   0    5.52    5.38
  -4  -7   0    0.76    1.26
   4   7   0    4.17    4.90
   4   7   1    0.41    3.14
   4  -7   1    1.25    3.58
   4  -7   1    5.69    6.02
  -4  -7  -1    2.86    3.97
   4   7   1   -0.73    1.70
   4   7   2   -8.03    5.66
   4  -7   2    4.17    4.40
   4  -7   2    0.37    1.40
  -4  -7  -2    0.06    0.44
   4   7   2    2.62    4.66
   4   7   3   -5.71    4.79
   4  -7   3   -2.13    3.00
   4  -7   3    0.49    2.76
  -4  -7  -3    0.99    2.44
   4   7   3   -0.09    0.61
   4   7   4    0.28    1.05
   4   7   4   -2.90    4.44
   4  -7   4    4.75    4.83
   4  -7   4    1.97    2.02
   4   7   5   -3.77    3.93
   4   7   5    0.19    0.86
   4  -7   5    1.85    2.11
   4  -7   5    0.00    2.62
   4   7   6   -2.87    3.47
   4  -7   6   -2.22    3.12
   4   7   6    0.29    0.63
   4   7   6    0.82    2.17
   4  -7   6   -2.29    2.98
   4   7   7    2.03    2.98
   4  -7   7    0.00    1.42
   4   7   7    0.39    1.34
   4  -7   7    2.20    3.09
   4   7   7    0.61    1.55
   4   7   8    0.28    2.22
   4  -7   8   -1.55    2.63
   4   7   8    0.00    1.20
   4  -7   8   -6.60    5.10
   4   7   8    1.14    2.22
   4   7   9   -5.61    4.92
   4  -7   9    0.04    2.51
   4   7   9    0.00    2.25
   4  -7   9    7.78    6.85
   4   7  10   -3.87    4.12
   4  -7  10    3.35    5.15
   4   7  10    0.08    0.54
   4  -7  10   -3.64    3.89
   4  -7  11    0.77    3.41
   4   7  11    0.09    2.13
   4  -7  12   -5.41    5.08
   4   8 -11    4.83    5.47
   4   8 -10    0.01    2.42
   4   8 -10   -1.24    2.31
   4   8  -9   -1.05    2.12
   4  -8  -9   -4.77    4.96
  -4  -8   9    0.05    2.01
   4   8  -9   -1.47    2.56
   4   8  -8    0.09    2.34
   4  -8  -8    0.24    2.30
  -4   8   8   -0.54    2.62
  -4  -8   8    0.02    3.48
   4   8  -8   -1.64    3.26
   4   8  -7    0.57    1.83
   4  -8  -7    4.31    6.59
  -4   8   7    1.50    1.22
   4   8  -7    3.86    4.59
  -4  -8   7    0.59    2.53
   4   8  -6    1.36    3.34
   4  -8  -6    5.38    7.34
   4   8  -6    3.23    5.00
  -4   8   6    1.73    2.01
  -4  -8   6    0.43    0.96
   4   8  -5   -2.06    2.91
   4  -8  -5    0.58    3.89
   4   8  -5   -1.99    2.89
  -4   8   5   -1.03    2.55
  -4  -8   5   -2.25    3.10
   4   8  -4    7.17    5.70
   4  -8  -4    4.79    3.87
   4   8  -4    3.88    4.51
  -4   8   4   12.79    9.78
  -4  -8   4    2.07    3.77
   4  -8  -3   -1.99    2.92
   4   8  -3    5.16    3.88
   4  -8  -3   -7.75    5.82
   4   8  -3    4.96    5.25
  -4   8   3    4.01    5.52
  -4  -8   3    0.31    3.21
   4  -8  -2   -2.07    2.99
   4   8  -2   -0.61    3.44
   4  -8  -2   -4.79    4.54
   4   8  -2    2.37    3.34
  -4  -8   2    7.73    5.46
   4  -8  -1   -2.72    3.43
   4   8  -1   -7.05    5.37
   4  -8  -1   -5.11    4.68
   4   8  -1   14.17    7.81
  -4  -8   1    0.21    1.66
   4  -8   0    2.50    4.85
   4   8   0   -1.36    2.10
   4  -8   0   -0.40    1.30
   4   8   0   -6.03    4.94
  -4  -8   0    0.17    1.03
   4   8   1   -2.94    3.48
   4  -8   1   -4.05    4.17
   4  -8   1   -4.61    4.42
   4   8   1    2.66    3.88
  -4  -8  -1   -2.06    2.69
   4   8   2    4.53    4.50
   4  -8   2   -4.35    4.35
   4  -8   2    3.66    5.02
   4   8   2    3.41    4.08
  -4  -8  -2    2.48    2.70
   4   8   3   -0.21    1.67
   4  -8   3   -0.94    2.02
   4  -8   3    0.63    1.72
   4   8   3    0.00    1.30
  -4  -8  -3   -6.02    4.48
   4   8   4    2.56    4.36
   4  -8   4   -4.81    4.59
   4  -8   4    4.04    5.40
   4   8   4   -3.99    4.02
   4   8   5    1.49    3.31
   4  -8   5   -3.45    3.90
   4  -8   5    7.78    6.04
   4   8   5    1.88    2.57
   4   8   6    2.00    3.72
   4  -8   6   -0.49    1.48
   4  -8   6    1.52    3.97
   4   8   6   -2.41    3.13
   4   8   7   -1.91    2.88
   4   8   7    3.45    4.82
   4  -8   7    0.11    0.80
   4  -8   7    0.84    3.38
   4   8   8   -1.43    2.52
   4  -8   8    0.65    1.73
   4   8   8    0.47    3.09
   4  -8   8    0.00    1.02
   4   8   9    0.65    2.10
   4   8  10   -3.18    3.80
  -4  -9   7   -2.29    3.32
  -4  -9   6    7.37    7.73
   4   9  -5    5.53    4.85
   4   9  -5    0.05    1.21
   4  -9  -5    0.28    1.19
  -4   9   5    2.04    5.08
  -4  -9   5    0.05    0.48
   4   9  -4    4.52    5.67
   4   9  -4   22.36    9.12
   4  -9  -4   10.58    7.69
  -4   9   4    8.37    8.66
  -4  -9   4    7.79    6.89
   4   9  -3    4.05    3.38
   4   9  -3    4.36    4.79
   4  -9  -3   -3.52    4.10
  -4   9   3   -4.80    4.59
  -4  -9   3    2.28    4.11
   4   9  -2   -1.85    2.81
   4   9  -2    1.17    2.14
   4  -9  -2    1.76    4.94
  -4   9   2    4.88    7.10
  -4  -9   2    1.31    2.33
   4  -9  -1    0.12    2.80
   4   9  -1    0.75    2.56
   4   9  -1    0.00    3.34
   4  -9  -1    0.31    1.81
  -4  -9   1   -2.19    2.98
   4  -9   0    0.05    1.30
   4   9   0   -3.65    3.95
   4   9   0   -1.52    2.54
   4  -9   0    1.16    3.81
  -4  -9   0   -3.98    3.95
   4  -9   1    0.10    2.02
   4   9   1   -0.36    2.38
   4   9   1    2.82    3.97
   4  -9   1   -5.31    4.97
  -4  -9  -1    0.50    2.88
   4  -9   2    3.77    5.89
   4   9   2   -0.57    2.02
   4   9   2   -0.91    1.96
   4  -9   2    2.91    4.88
  -4  -9  -2    0.00    2.53
   4   9   3    0.82    2.45
   4  -9   3    0.00    2.21
   4   9   3    1.90    4.13
   4  -9   3   -5.02    4.82
  -4  -9  -3   -3.39    3.54
   4   9   4   -1.16    2.25
   4   9   4    1.39    4.15
   4   9   5   -0.93    2.03
   4   9   5    3.60    4.02
   4   9   6    0.21    3.44
   4   9   6    3.35    4.00
   4   9   7   -4.64    4.58
   4   9   7    3.25    4.86
  -4 -10   3    0.06    2.06
  -4 -10   2    1.79    5.03
  -4 -10   1    0.03    2.18
  -4 -10   0   -5.80    4.99
  -4 -10  -1   -3.83    4.00
  -4 -10  -2    2.88    4.83
  -4 -10  -3   -5.87    4.90
  -5   0  12    0.00    1.27
  -5   0  11    1.87    3.96
  -5   0  11    0.00    0.78
   5   0 -10    0.76    0.69
  -5   0  10   -5.72    5.32
  -5   0  10    0.70    1.56
   5   0  -9   -3.21    4.08
  -5   0   9    0.07    2.30
   5   0  -8    1.27    5.28
   5   0  -8    1.31    3.00
  -5   0   8    1.66    3.02
   5   0  -7    5.27    4.26
  -5   0   7    1.29    4.89
   5   0  -6   -3.93    4.33
  -5   0   6   -2.75    3.80
   5   0  -5   -4.89    4.76
  -5   0   5   -0.01    2.26
   5   0  -4    0.70    1.88
   5   0  -3    0.19    3.49
   5   0  -2    0.08    0.61
   5   0  -1   -3.57    4.02
   5   0   0   -0.67    2.40
   5   0   1    9.26    6.65
   5   0   2   -1.81    1.16
   5   0   3    0.04    0.45
   5   0   4    1.06    1.56
   5   0   5    2.07    3.08
   5   0   6    2.35    3.97
  -5   1  12    2.88    5.15
  -5  -1  12    2.44    4.95
  -5   1  12   -0.02    2.67
  -5   1  11   -0.13    3.53
   5  -1 -11    2.92    4.17
  -5  -1  11   -1.09    2.12
  -5   1  11    2.57    3.16
   5   1 -10    1.47    4.03
  -5   1  10   -4.62    4.93
   5  -1 -10    1.24    1.58
  -5  -1  10    0.29    1.36
   5   1  -9    4.38    5.52
   5  -1  -9    0.10    2.86
  -5   1   9   -2.91    3.97
  -5  -1   9    0.73    2.18
   5  -1  -8   -6.01    5.42
   5   1  -8    0.01    2.54
   5  -1  -8   -2.57    3.55
  -5   1   8   -2.62    3.82
   5  -1  -7    3.31    5.15
   5   1  -7    5.29    5.01
   5  -1  -7    0.52    1.85
  -5  -1   7    3.88    4.87
  -5   1   7   -0.97    2.51
   5  -1  -6    3.67    3.18
   5   1  -6    1.52    1.60
  -5  -1   6    0.12    3.54
  -5   1   6   -5.74    5.63
   5  -1  -5    3.09    4.59
   5   1  -5    1.52    1.70
  -5  -1   5   -0.24    2.74
  -5   1   5   -8.30    6.77
   5   1  -5    2.85    3.51
   5  -1  -4    1.02    3.69
   5   1  -4    1.75    4.09
   5   1  -4   -2.67    3.51
   5  -1  -3    0.01    3.26
   5   1  -3   -0.90    2.01
   5   1  -3    3.36    1.61
   5  -1  -2   -2.63    3.50
   5   1  -2    2.05    3.11
   5   1  -2    0.68    4.17
   5  -1  -1   12.07    7.56
   5   1  -1    0.20    1.57
   5   1  -1    8.75    6.47
   5  -1   0    0.10    2.93
   5   1   0    3.10    5.30
   5   1   0    6.15    5.52
   5  -1   1    8.28    6.42
   5   1   1    1.43    4.19
   5  -1   2    1.91    4.18
   5   1   2   -2.93    3.61
   5  -1   3   -3.76    4.18
   5   1   3    0.92    2.01
   5  -1   4    2.14    3.07
   5   1   4   -1.95    2.93
   5  -1   5   10.50    6.36
   5   1   5   -5.93    5.08
   5  -1   6   -2.03    3.05
   5   1   6   -2.66    3.42
  -5  -2  12    0.27    4.21
  -5   2  11   -5.34    5.48
   5  -2 -11    0.13    3.12
   5   2 -11    3.60    4.52
  -5  -2  11    0.11    3.17
  -5   2  10   -2.60    3.80
   5  -2 -10   -1.21    2.48
   5   2 -10   -3.01    3.77
  -5  -2  10    0.00    2.64
   5  -2  -9    6.81    6.56
  -5   2   9   -0.11    5.35
   5   2  -9   -0.50    1.53
  -5  -2   9   -5.18    4.52
   5   2  -8    0.55    0.54
   5  -2  -8    0.08    3.01
  -5   2   8    6.18    7.07
   5   2  -8    1.78    1.53
   5  -2  -7    0.41    2.44
   5   2  -7    0.09    1.51
   5  -2  -7    0.04    2.09
  -5   2   7    8.51   10.81
   5   2  -7    1.16    3.39
   5  -2  -6   11.97    8.39
   5   2  -6    7.51    6.63
   5  -2  -6    6.56    6.16
  -5   2   6    8.08    9.00
   5   2  -6   13.25    7.70
   5  -2  -5    5.43    5.29
   5   2  -5   -0.37    1.29
  -5   2   5   -1.91    3.34
   5   2  -5    5.90    5.58
   5  -2  -4   -3.70    4.23
   5   2  -4   -2.34    3.22
   5   2  -4    5.45    5.53
   5  -2  -3    0.69    4.72
   5   2  -3    2.88    3.95
   5   2  -3   -0.04    3.55
   5  -2  -2    1.89    1.89
   5   2  -2   -1.63    2.67
   5   2  -2    2.57    4.55
   5  -2  -1   -1.27    1.22
   5   2  -1    0.92    3.64
   5   2  -1   -0.21    0.65
   5  -2   0   -0.92    2.08
   5   2   0   -3.70    4.01
   5   2   0    7.51    7.58
   5  -2   1   -8.93    6.52
   5   2   1    0.27    2.15
   5   2   1   -6.28    5.45
   5  -2   2   -4.67    4.71
   5   2   2    1.75    2.96
   5   2   2   -9.74    6.79
   5  -2   3    1.30    2.05
   5   2   3    3.43    3.85
   5   2   3    1.46    2.54
   5  -2   4   -2.23    3.23
   5   2   4    2.50    4.02
   5   2   4    2.01    4.49
   5  -2   5    1.11    3.39
   5   2   5    2.57    4.91
   5   2   5    8.65    6.47
   5  -2   6   -0.08    1.57
   5   2   6    0.35    2.83
   5   2   6   -4.06    4.39
   5  -3 -11    1.56    4.09
  -5  -3  11    2.07    4.00
   5  -3 -10   -0.03    3.13
   5   3 -10    2.53    4.09
  -5   3   9   -0.22    2.32
   5  -3  -9   -2.49    3.46
  -5  -3   9    0.92    3.61
   5   3  -9    5.76    6.32
  -5   3   8    1.74    5.35
  -5  -3   8    0.03    2.06
   5   3  -8    1.11    1.47
   5  -3  -7    3.12    4.80
   5   3  -7   -2.13    3.06
  -5   3   7    4.77    5.55
   5   3  -7   -4.73    4.75
   5  -3  -6   -3.01    3.91
   5   3  -6    1.04    2.51
  -5   3   6   -0.01    1.64
   5   3  -6    7.97    6.40
   5  -3  -5    0.01    3.31
   5   3  -5   -0.79    1.85
  -5   3   5    2.45    8.13
   5   3  -5   -5.36    5.05
   5  -3  -4    0.06    1.98
   5   3  -4    0.82    1.44
   5   3  -4   -1.45    1.70
   5  -3  -3   -1.42    2.66
   5   3  -3   -1.60    2.62
   5   3  -3   -0.54    1.90
   5  -3  -2   -0.62    2.82
   5   3  -2    1.43    3.70
   5   3  -2    0.59    1.62
   5  -3  -1   -0.01    0.24
   5   3  -1    1.57    2.50
   5   3  -1    0.98    1.84
   5  -3   0    0.72    1.83
   5   3   0   -3.29    3.76
   5   3   0    6.87    4.71
   5  -3   1    2.52    4.21
   5   3   1  -10.20    6.60
   5   3   1    7.93    6.50
   5  -3   2   -2.80    3.70
   5   3   2    0.73    2.36
   5   3   2   -4.37    4.58
   5  -3   3    3.32    3.73
   5   3   3    0.65    4.19
   5   3   3    0.90    2.77
   5  -3   4    0.68    1.83
   5   3   4    0.48    3.53
   5   3   4   -2.23    3.28
   5  -3   5    5.95    6.11
   5   3   5    3.58    3.86
   5   3   5    4.66    6.40
   5   3   6    0.25    1.08
   5   3   6   -0.10    0.70
   5   3   7   -0.67    1.81
   5   3   8    0.43    3.35
   5  -4 -10    3.95    5.84
  -5  -4  10    0.00    0.14
   5  -4  -9    0.37    4.41
  -5  -4   9    1.25    4.05
   5  -4  -8    0.52    2.83
  -5  -4   8    1.60    2.55
   5   4  -7    0.69    2.47
   5  -4  -7    1.40    3.17
  -5   4   7    0.42    2.65
  -5  -4   7    0.00    0.27
   5   4  -7    1.76    3.76
   5   4  -6    0.29    1.37
  -5   4   6    7.07    9.68
   5   4  -6   -2.17    3.24
   5  -4  -5    3.19    5.17
   5   4  -5    1.25    2.00
  -5   4   5    0.30    3.69
   5   4  -5    3.00    4.57
   5  -4  -4    2.89    6.78
   5   4  -4    1.79    3.33
   5   4  -4    0.31    1.87
   5  -4  -3    4.81    5.01
   5   4  -3   -2.62    3.31
   5   4  -3   -0.09    1.29
   5  -4  -2    0.33    1.28
   5   4  -2   -2.36    3.15
   5   4  -2    0.29    1.18
   5  -4  -1    7.97    7.37
   5   4  -1    0.00    2.60
   5   4  -1    2.41    2.49
   5  -4   0    0.85    3.02
   5   4   0   -0.72    1.75
   5   4   0   -5.68    5.24
   5  -4   1    0.10    2.63
   5   4   1    0.81    1.51
   5   4   1    3.02    3.37
   5  -4   2    3.30    4.98
   5   4   2    2.77    3.84
   5   4   2    4.92    3.98
   5  -4   3    3.85    5.57
   5   4   3    1.11    3.61
   5   4   3    3.75    5.45
   5  -4   4    0.03    1.75
   5   4   4    0.20    1.55
   5   4   4    1.97    2.35
   5   4   5    2.58    3.66
   5   4   5    0.64    3.80
   5   4   6    1.27    3.22
  -5  -5   9    1.08    3.25
   5  -5  -8    1.85    5.17
  -5  -5   8    0.18    2.02
   5  -5  -7    1.58    3.48
  -5  -5   7   -1.97    2.86
   5  -5  -6    0.00    3.50
   5  -5  -5    1.06    2.65
   5  -5  -4    3.74    3.90
   5  -5  -3    0.09    2.84
   5  -5  -3    1.49    3.55
   5  -5  -2    3.93    6.31
   5   5  -2   -0.51    1.45
   5  -5  -2    0.52    2.53
   5  -5  -1    3.10    6.46
   5   5  -1    0.17    2.11
   5  -5  -1    1.51    3.11
   5  -5   0    1.77    3.19
   5   5   0   -1.39    2.40
   5  -5   1    0.92    4.00
   5   5   1    0.16    2.65
   5   5   2    0.02    2.73
   5   5   3   -1.44    2.44
   5   5   4   -2.28    3.10
   5   5   5    2.69    3.74
  -5  -6   7    0.00    2.81
  -5  -6   6    1.31    2.35
   5  -6  -5    0.00    2.49
   5  -6  -4    0.01    1.03
   5  -6  -3   -3.89    4.06
   5  -6  -2   -3.70    3.89
   5  -6  -1    0.20    2.00
   5  -6   0    3.81    4.90
   5  -6   1    0.00    1.46
   5  -6   2    0.00    1.64
   0   0   0    0.00    0.00
_computing_structure_solution     'SHELXT 2014/5 (Sheldrick, 2014)'
;
_shelx_hkl_checksum              20866
_shelx_res_file
;
TITL is214a_a.res in Pn
    is214a.res
    created by SHELXL-2016/6 at 18:02:24 on 16-Oct-2019
CELL 0.71073 3.7788 9.9655 16.899 90 93.466 90
ZERR 2 0.0009 0.0017 0.0033 0 0.019 0
LATT -1
SYMM 0.5+X,-Y,0.5+Z
SFAC C H N O
UNIT 32 18 6 6
conf
size 0.3 0.05 0.05
temp 20
L.S. 4 0 0
PLAN  20
BOND $H
list 4
fmap 2 53
acta
OMIT 0 50
WGHT    0.097100
FVAR       0.94833
O1    4    0.751357   -0.057944    0.515162    11.00000    0.05827    0.06452 =
         0.06258   -0.00320    0.01127    0.00296
O2    4    0.784016    0.101994    0.426260    11.00000    0.10643    0.07450 =
         0.06443    0.00371    0.03138    0.01125
O3    4    0.509914    0.350927    0.454106    11.00000    0.05430    0.05432 =
         0.05958    0.00304    0.01224    0.00231
N1    3    0.255096    0.378843    0.566636    11.00000    0.06887    0.05575 =
         0.07623   -0.00299    0.01825    0.00583
N2    3    0.223033    0.498496    0.524230    11.00000    0.07483    0.06778 =
         0.06325   -0.00021    0.01758    0.00619
N3    3    0.494605    0.752462    0.270673    11.00000    0.07016    0.07718 =
         0.06996    0.00750    0.00913   -0.00928
C1    1    0.671277   -0.105895    0.588400    11.00000    0.04999    0.06143 =
         0.05001   -0.00348    0.00609   -0.00138
C2    1    0.737116   -0.235952    0.606187    11.00000    0.04910    0.05685 =
         0.06853   -0.00701    0.00516    0.00569
H2    2    0.811201   -0.296435    0.578190    11.00000    0.06193
C3    1    0.666065   -0.287272    0.678396    11.00000    0.06027    0.06246 =
         0.07361    0.00049   -0.00359   -0.00177
H3    2    0.690999   -0.391188    0.692670    11.00000    0.06611
C4    1    0.533663   -0.201704    0.736179    11.00000    0.05955    0.06795 =
         0.07098    0.01075    0.00656   -0.00933
H4    2    0.479851   -0.244946    0.790112    11.00000    0.07854
C5    1    0.462210   -0.070323    0.718306    11.00000    0.05423    0.06300 =
         0.06295    0.00021    0.00506   -0.00076
H5    2    0.352503   -0.009904    0.752705    11.00000    0.07433
C6    1    0.528268   -0.018637    0.643812    11.00000    0.04459    0.05303 =
         0.05511   -0.00038    0.00798    0.00059
C7    1    0.459271    0.114353    0.619334    11.00000    0.04684    0.05858 =
         0.05464   -0.00578    0.00536    0.00564
H7    2    0.338482    0.173282    0.655486    11.00000    0.05553
C8    1    0.522860    0.159814    0.546155    11.00000    0.04606    0.04947 =
         0.05306   -0.00031    0.01157   -0.00049
C9    1    0.694468    0.071626    0.490899    11.00000    0.06264    0.05456 =
         0.06605   -0.00685    0.01058    0.00225
C10   1    0.429803    0.295038    0.524635    11.00000    0.05649    0.05833 =
         0.05779    0.00327    0.00849   -0.00570
C11   1    0.375282    0.478009    0.458204    11.00000    0.05888    0.05780 =
         0.04695    0.00197    0.00409   -0.00213
C12   1    0.420091    0.571878    0.394732    11.00000    0.04233    0.06966 =
         0.05162    0.00441    0.00454   -0.00962
C13   1    0.330893    0.706229    0.403205    11.00000    0.06133    0.06161 =
         0.06300    0.00340    0.01140   -0.00425
H13   2    0.264568    0.738094    0.453933    11.00000    0.05557
C14   1    0.374980    0.791377    0.339536    11.00000    0.07829    0.06110 =
         0.07669    0.01019    0.00222   -0.00419
H14   2    0.314218    0.897218    0.347691    11.00000    0.09172
C15   1    0.577050    0.625250    0.265606    11.00000    0.06388    0.08401 =
         0.06505   -0.00167    0.01694   -0.00706
H15   2    0.635174    0.609189    0.211609    11.00000    0.08012
C16   1    0.543373    0.530827    0.323560    11.00000    0.05856    0.05774 =
         0.06771    0.00203    0.00718    0.00312
H16   2    0.622915    0.440101    0.321279    11.00000    0.06098
HKLF 4
REM  is214a_a.res in Pn
REM R1 =  0.0785 for    1512 Fo > 4sig(Fo)  and  0.1015 for all    2204 data
REM    235 parameters refined using      2 restraints
END
WGHT      0.0969      0.0000
REM Highest difference peak  0.246,  deepest hole -0.236,  1-sigma level  0.065
Q1    1   0.2970  0.6250  0.4653  11.00000  0.05    0.21
Q2    1   0.7397 -0.1809  0.5212  11.00000  0.05    0.19
Q3    1   0.4074  0.7711  0.4842  11.00000  0.05    0.18
Q4    1   0.4712  0.2334  0.4525  11.00000  0.05    0.18
Q5    1   1.0193 -0.3813  0.7187  11.00000  0.05    0.18
Q6    1   0.2005  0.5567  0.5837  11.00000  0.05    0.18
Q7    1   0.6250 -0.1262  0.4400  11.00000  0.05    0.18
Q8    1   0.4661  0.4210  0.3954  11.00000  0.05    0.17
Q9    1   0.4132  0.3831  0.3011  11.00000  0.05    0.16
Q10   1   0.5202  0.1840  0.6823  11.00000  0.05    0.16
Q11   1   0.3351  0.8531  0.2756  11.00000  0.05    0.16
Q12   1   1.1366 -0.4223  0.6525  11.00000  0.05    0.15
Q13   1   0.6610 -0.2947  0.5400  11.00000  0.05    0.15
Q14   1   0.2262  0.2991  0.6367  11.00000  0.05    0.15
Q15   1   0.6449  0.0216  0.5569  11.00000  0.05    0.15
Q16   1   0.4583  0.0556  0.7065  11.00000  0.05    0.15
Q17   1   0.7242 -0.3240  0.5002  11.00000  0.05    0.15
Q18   1   0.3806  0.7770  0.2837  11.00000  0.05    0.15
Q19   1   0.7728  0.1534  0.3582  11.00000  0.05    0.15
Q20   1   0.5138 -0.0920  0.8002  11.00000  0.05    0.15
;
_shelx_res_checksum              59658
loop_
_space_group_symop_operation_xyz
'x, y, z'
'x+1/2, -y, z+1/2'
loop_
_atom_site_type_symbol
_atom_site_label
_atom_site_fract_x
_atom_site_fract_y
_atom_site_fract_z
_atom_site_U_iso_or_equiv
_atom_site_adp_type
_atom_site_calc_flag
_atom_site_occupancy
O O1 0.7514(13) -0.0579(6) 0.5152(3) 0.0615(14) Uani d 1
O O2 0.7840(19) 0.1020(7) 0.4263(4) 0.0807(19) Uani d 1
O O3 0.5099(12) 0.3509(5) 0.4541(3) 0.0557(14) Uani d 1
N N1 0.2551(18) 0.3788(7) 0.5666(4) 0.0664(19) Uani d 1
N N2 0.223(2) 0.4985(7) 0.5242(4) 0.0681(19) Uani d 1
N N3 0.495(2) 0.7525(8) 0.2707(5) 0.072(2) Uani d 1
C C1 0.6713(19) -0.1059(8) 0.5884(5) 0.0537(18) Uani d 1
C C2 0.7371(19) -0.2360(8) 0.6062(5) 0.058(2) Uani d 1
H H2 0.81(2) -0.296(8) 0.578(5) 0.06(3) Uiso d 1
C C3 0.666(2) -0.2873(9) 0.6784(6) 0.066(2) Uani d 1
H H3 0.69(2) -0.391(9) 0.693(5) 0.07(2) Uiso d 1
C C4 0.534(2) -0.2017(9) 0.7362(6) 0.066(2) Uani d 1
H H4 0.48(2) -0.245(8) 0.790(5) 0.08(3) Uiso d 1
C C5 0.462(2) -0.0703(8) 0.7183(5) 0.0600(19) Uani d 1
H H5 0.35(2) -0.010(9) 0.753(5) 0.07(3) Uiso d 1
C C6 0.5283(19) -0.0186(7) 0.6438(5) 0.0507(17) Uani d 1
C C7 0.4593(19) 0.1144(8) 0.6193(4) 0.0533(18) Uani d 1
H H7 0.34(2) 0.173(8) 0.655(4) 0.06(2) Uiso d 1
C C8 0.5229(18) 0.1598(7) 0.5462(4) 0.0492(16) Uani d 1
C C9 0.694(2) 0.0716(8) 0.4909(5) 0.061(2) Uani d 1
C C10 0.430(2) 0.2950(8) 0.5246(5) 0.0573(19) Uani d 1
C C11 0.3753(19) 0.4780(8) 0.4582(5) 0.0545(19) Uani d 1
C C12 0.4201(18) 0.5719(8) 0.3947(4) 0.0545(18) Uani d 1
C C13 0.331(2) 0.7062(9) 0.4032(6) 0.062(2) Uani d 1
H H13 0.26(2) 0.738(8) 0.454(5) 0.06(2) Uiso d 1
C C14 0.375(3) 0.7914(10) 0.3395(6) 0.072(2) Uani d 1
H H14 0.31(3) 0.897(10) 0.348(6) 0.09(3) Uiso d 1
C C15 0.577(2) 0.6252(11) 0.2656(6) 0.070(2) Uani d 1
H H15 0.64(2) 0.609(10) 0.212(6) 0.08(3) Uiso d 1
C C16 0.543(2) 0.5308(9) 0.3236(5) 0.061(2) Uani d 1
H H16 0.62(2) 0.440(8) 0.321(5) 0.06(2) Uiso d 1
loop_
_atom_site_aniso_label
_atom_site_aniso_U_11
_atom_site_aniso_U_22
_atom_site_aniso_U_33
_atom_site_aniso_U_12
_atom_site_aniso_U_13
_atom_site_aniso_U_23
O1 0.058(3) 0.065(4) 0.063(3) 0.003(2) 0.011(3) -0.003(3)
O2 0.106(5) 0.075(4) 0.064(4) 0.011(3) 0.031(3) 0.004(3)
O3 0.054(3) 0.054(3) 0.060(3) 0.002(2) 0.012(2) 0.003(2)
N1 0.069(4) 0.056(4) 0.076(5) 0.006(3) 0.018(4) -0.003(3)
N2 0.075(5) 0.068(4) 0.063(4) 0.006(3) 0.018(4) 0.000(3)
N3 0.070(5) 0.077(5) 0.070(5) -0.009(4) 0.009(4) 0.007(4)
C1 0.050(4) 0.061(5) 0.050(4) -0.001(3) 0.006(3) -0.003(3)
C2 0.049(5) 0.057(5) 0.069(6) 0.006(3) 0.005(4) -0.007(4)
C3 0.060(5) 0.062(6) 0.074(6) -0.002(4) -0.004(4) 0.000(4)
C4 0.060(5) 0.068(6) 0.071(6) -0.009(4) 0.007(4) 0.011(4)
C5 0.054(4) 0.063(5) 0.063(5) -0.001(4) 0.005(4) 0.000(4)
C6 0.045(4) 0.053(4) 0.055(4) 0.001(3) 0.008(3) 0.000(3)
C7 0.047(4) 0.059(5) 0.055(5) 0.006(3) 0.005(3) -0.006(4)
C8 0.046(4) 0.049(4) 0.053(4) 0.000(3) 0.012(3) 0.000(3)
C9 0.063(5) 0.055(5) 0.066(6) 0.002(4) 0.011(4) -0.007(4)
C10 0.056(4) 0.058(5) 0.058(5) -0.006(3) 0.008(3) 0.003(4)
C11 0.059(5) 0.058(4) 0.047(4) -0.002(3) 0.004(3) 0.002(3)
C12 0.042(4) 0.070(5) 0.052(5) -0.010(3) 0.005(3) 0.004(3)
C13 0.061(5) 0.062(5) 0.063(6) -0.004(4) 0.011(4) 0.003(4)
C14 0.078(6) 0.061(6) 0.077(6) -0.004(4) 0.002(5) 0.010(4)
C15 0.064(5) 0.084(7) 0.065(6) -0.007(5) 0.017(4) -0.002(5)
C16 0.059(5) 0.058(5) 0.068(5) 0.003(4) 0.007(4) 0.002(4)
loop_
_atom_type_symbol
_atom_type_description
_atom_type_scat_dispersion_real
_atom_type_scat_dispersion_imag
_atom_type_scat_source
C C 0.0033 0.0016 'International Tables Vol C Tables 4.2.6.8 and 6.1.1.4'
H H 0.0000 0.0000 'International Tables Vol C Tables 4.2.6.8 and 6.1.1.4'
N N 0.0061 0.0033 'International Tables Vol C Tables 4.2.6.8 and 6.1.1.4'
O O 0.0106 0.0060 'International Tables Vol C Tables 4.2.6.8 and 6.1.1.4'
loop_
_geom_angle_atom_site_label_1
_geom_angle_atom_site_label_2
_geom_angle_atom_site_label_3
_geom_angle
C9 O1 C1 123.9(6)
C10 O3 C11 103.3(6)
C10 N1 N2 107.5(7)
C11 N2 N1 106.1(7)
C15 N3 C14 115.7(8)
C2 C1 O1 119.0(7)
C2 C1 C6 121.1(7)
O1 C1 C6 119.8(6)
C1 C2 C3 121.0(8)
C1 C2 H2 130(6)
C3 C2 H2 109(6)
C2 C3 C4 119.3(8)
C2 C3 H3 123(4)
C4 C3 H3 117(4)
C5 C4 C3 120.0(9)
C5 C4 H4 123(5)
C3 C4 H4 117(5)
C4 C5 C6 120.6(8)
C4 C5 H5 124(5)
C6 C5 H5 115(5)
C5 C6 C7 124.9(7)
C5 C6 C1 117.9(6)
C7 C6 C1 117.2(7)
C8 C7 C6 123.0(7)
C8 C7 H7 119(4)
C6 C7 H7 118(4)
C7 C8 C10 119.5(7)
C7 C8 C9 119.5(6)
C10 C8 C9 120.9(7)
O2 C9 O1 117.5(7)
O2 C9 C8 126.1(7)
O1 C9 C8 116.3(7)
N1 C10 O3 111.1(7)
N1 C10 C8 126.1(7)
O3 C10 C8 122.7(7)
N2 C11 O3 111.9(7)
N2 C11 C12 127.9(7)
O3 C11 C12 120.2(6)
C16 C12 C13 118.2(7)
C16 C12 C11 121.2(8)
C13 C12 C11 120.6(7)
C14 C13 C12 117.9(8)
C14 C13 H13 123(5)
C12 C13 H13 119(5)
N3 C14 C13 124.2(9)
N3 C14 H14 119(5)
C13 C14 H14 117(5)
N3 C15 C16 125.8(9)
N3 C15 H15 107(6)
C16 C15 H15 127(6)
C15 C16 C12 118.1(8)
C15 C16 H16 125(5)
C12 C16 H16 116(5)
loop_
_geom_bond_atom_site_label_1
_geom_bond_atom_site_label_2
_geom_bond_distance
O1 C9 1.368(9)
O1 C1 1.377(10)
O2 C9 1.202(10)
O3 C10 1.366(9)
O3 C11 1.368(9)
N1 C10 1.301(10)
N1 N2 1.393(10)
N2 C11 1.302(11)
N3 C15 1.309(12)
N3 C14 1.331(13)
C1 C2 1.350(11)
C1 C6 1.409(10)
C2 C3 1.365(12)
C2 H2 0.83(8)
C3 C4 1.411(13)
C3 H3 1.07(9)
C4 C5 1.367(12)
C4 H4 1.04(8)
C5 C6 1.397(12)
C5 H5 0.95(9)
C6 C7 1.408(10)
C7 C8 1.352(11)
C7 H7 0.98(8)
C8 C10 1.434(10)
C8 C9 1.462(10)
C11 C12 1.441(10)
C12 C16 1.378(11)
C12 C13 1.390(11)
C13 C14 1.388(12)
C13 H13 0.96(8)
C14 H14 1.09(10)
C15 C16 1.370(13)
C15 H15 0.96(10)
C16 H16 0.95(8)
loop_
_geom_torsion_atom_site_label_1
_geom_torsion_atom_site_label_2
_geom_torsion_atom_site_label_3
_geom_torsion_atom_site_label_4
_geom_torsion
C10 N1 N2 C11 1.3(10)
C9 O1 C1 C2 179.7(7)
C9 O1 C1 C6 -1.3(11)
O1 C1 C2 C3 179.2(7)
C6 C1 C2 C3 0.2(12)
C1 C2 C3 C4 -2.3(12)
C2 C3 C4 C5 3.1(13)
C3 C4 C5 C6 -1.8(13)
C4 C5 C6 C7 179.1(7)
C4 C5 C6 C1 -0.3(12)
C2 C1 C6 C5 1.1(11)
O1 C1 C6 C5 -177.9(7)
C2 C1 C6 C7 -178.3(7)
O1 C1 C6 C7 2.8(11)
C5 C6 C7 C8 -179.1(8)
C1 C6 C7 C8 0.3(11)
C6 C7 C8 C10 177.1(7)
C6 C7 C8 C9 -4.6(11)
C1 O1 C9 O2 178.2(8)
C1 O1 C9 C8 -2.9(10)
C7 C8 C9 O2 -175.4(9)
C10 C8 C9 O2 2.9(13)
C7 C8 C9 O1 5.8(10)
C10 C8 C9 O1 -175.9(7)
N2 N1 C10 O3 -1.8(9)
N2 N1 C10 C8 179.9(7)
C11 O3 C10 N1 1.6(8)
C11 O3 C10 C8 179.9(7)
C7 C8 C10 N1 -6.9(12)
C9 C8 C10 N1 174.9(8)
C7 C8 C10 O3 175.0(7)
C9 C8 C10 O3 -3.3(12)
N1 N2 C11 O3 -0.3(9)
N1 N2 C11 C12 -178.5(7)
C10 O3 C11 N2 -0.7(9)
C10 O3 C11 C12 177.6(7)
N2 C11 C12 C16 -170.9(8)
O3 C11 C12 C16 11.1(11)
N2 C11 C12 C13 7.4(13)
O3 C11 C12 C13 -170.6(7)
C16 C12 C13 C14 -0.6(11)
C11 C12 C13 C14 -179.0(8)
C15 N3 C14 C13 -0.9(13)
C12 C13 C14 N3 0.5(13)
C14 N3 C15 C16 1.5(13)
N3 C15 C16 C12 -1.7(14)
C13 C12 C16 C15 1.1(11)
C11 C12 C16 C15 179.5(7)

_cod_database_fobs_code 2021804
