#------------------------------------------------------------------------------
#$Date: 2019-02-14 05:36:51 +0200 (Thu, 14 Feb 2019) $
#$Revision: 213640 $
#$URL: file:///home/coder/svn-repositories/cod/cif/2/02/14/2021491.cif $
#------------------------------------------------------------------------------
#
# This file is available in the Crystallography Open Database (COD),
# http://www.crystallography.net/. The original data for this entry
# were provided by IUCr Journals, http://journals.iucr.org/.
#
# The file may be used within the scientific community so long as
# proper attribution is given to the journal article from which the
# data were obtained.
#
data_2021491
loop_
_publ_author_name
'Losev, Evgeniy A.'
'Boldyreva, Elena'
_publ_section_title
;
 Concomitant cocrystal and salt: no interconversion in the solid state
;
_journal_coeditor_code           KU3233
_journal_issue                   3
_journal_name_full               'Acta Crystallographica Section C'
_journal_page_first
;
;
_journal_paper_doi               10.1107/S2053229619001372
_journal_volume                  75
_journal_year                    2019
_chemical_formula_iupac          'C3 H7.5 N O2 +, C4 H5.5 O6 -'
_chemical_formula_moiety         'C3 H7.5 N O2 +, C4 H5.5 O6 -'
_chemical_formula_sum            'C7 H13 N O8'
_chemical_formula_weight         239.18
_chemical_name_common            '\b-Alanine--<i>DL</i>-tartaric acid (1/1)'
_chemical_name_systematic        '\b-Alaninium <i>DL</i>-tartarate'
_space_group_crystal_system      triclinic
_space_group_IT_number           2
_space_group_name_Hall           '-P 1'
_space_group_name_H-M_alt        'P -1'
_symmetry_space_group_name_Hall  '-P 1'
_symmetry_space_group_name_H-M   'P -1'
_atom_sites_solution_hydrogens   mixed
_audit_creation_method
;
Olex2 1.2
(compiled 2018.05.29 svn.r3508 for OlexSys, GUI svn.r5506)
;
_cell_angle_alpha                108.535(8)
_cell_angle_beta                 96.969(8)
_cell_angle_gamma                92.427(8)
_cell_formula_units_Z            2
_cell_length_a                   4.9101(5)
_cell_length_b                   8.5883(7)
_cell_length_c                   11.9978(9)
_cell_measurement_reflns_used    2699
_cell_measurement_temperature    200
_cell_measurement_theta_max      29.5090
_cell_measurement_theta_min      2.5220
_cell_volume                     474.39(8)
_computing_cell_refinement
;
CrysAlis PRO (Agilent, 2014)
;
_computing_data_collection
;
CrysAlis PRO (Agilent, 2014)
;
_computing_data_reduction
;
CrysAlis PRO (Agilent, 2014)
;
_computing_molecular_graphics
;
OLEX2 (Dolomanov <i>et al.</i>,  2009)
;
_computing_publication_material
;
OLEX2 (Dolomanov <i>et al.</i>,  2009)
;
_computing_structure_refinement
;
SHELXL2018 (Sheldrick, 2015b)
;
_computing_structure_solution
;
olex2.solve (Bourhis <i>et al.</i>,  2015)
;
_diffrn_ambient_temperature      200
_diffrn_detector                 'CCD plate'
_diffrn_measured_fraction_theta_full 0.999
_diffrn_measured_fraction_theta_max 0.999
_diffrn_measurement_device_type  'Stoe IPDS'
_diffrn_measurement_method       '\w scans'
_diffrn_radiation_monochromator  graphite
_diffrn_radiation_probe          x-ray
_diffrn_radiation_type           MoK\a
_diffrn_radiation_wavelength     0.71073
_diffrn_reflns_av_R_equivalents  0.0441
_diffrn_reflns_av_unetI/netI     0.0487
_diffrn_reflns_limit_h_max       5
_diffrn_reflns_limit_h_min       -6
_diffrn_reflns_limit_k_max       10
_diffrn_reflns_limit_k_min       -10
_diffrn_reflns_limit_l_max       14
_diffrn_reflns_limit_l_min       -14
_diffrn_reflns_number            5904
_diffrn_reflns_theta_full        25.242
_diffrn_reflns_theta_max         26.369
_diffrn_reflns_theta_min         2.511
_diffrn_source                   'Enhance (Mo) X-ray Source'
_exptl_absorpt_coefficient_mu    0.155
_exptl_absorpt_correction_T_max  0.995
_exptl_absorpt_correction_T_min  0.963
_exptl_absorpt_correction_type   gaussian
_exptl_absorpt_process_details
;
(CrysAlis PRO; Agilent, 2014)
;
_exptl_crystal_colour            colourless
_exptl_crystal_density_diffrn    1.674
_exptl_crystal_description       ' '
_exptl_crystal_F_000             252
_exptl_crystal_size_max          0.4341
_exptl_crystal_size_mid          0.071
_exptl_crystal_size_min          0.034
_refine_diff_density_max         0.271
_refine_diff_density_min         -0.221
_refine_ls_extinction_method     none
_refine_ls_goodness_of_fit_ref   1.019
_refine_ls_hydrogen_treatment    mixed
_refine_ls_matrix_type           full
_refine_ls_number_parameters     154
_refine_ls_number_reflns         1936
_refine_ls_number_restraints     0
_refine_ls_restrained_S_all      1.019
_refine_ls_R_factor_all          0.0665
_refine_ls_R_factor_gt           0.0395
_refine_ls_shift/su_max          0.000
_refine_ls_shift/su_mean         0.000
_refine_ls_structure_factor_coef Fsqd
_refine_ls_weighting_details
'w=1/[\s^2^(Fo^2^)+(0.0357P)^2^+0.1241P] where P=(Fo^2^+2Fc^2^)/3'
_refine_ls_weighting_scheme      calc
_refine_ls_wR_factor_gt          0.0785
_refine_ls_wR_factor_ref         0.0867
_reflns_number_gt                1422
_reflns_number_total             1936
_reflns_threshold_expression     'I > 2\s(I)'
_cod_data_source_file            ku3233sup1.cif
_cod_data_source_block           200_salt
_cod_database_code               2021491
_shelx_space_group_comment
;
The symmetry employed for this shelxl refinement is uniquely defined
by the following loop, which should always be used as a source of
symmetry information in preference to the above space-group names.
They are only intended as comments.
;
_shelx_estimated_absorpt_t_min   0.936
_shelx_estimated_absorpt_t_max   0.995
_shelx_hkl_file
;
   0   0   2 72.4704 2.44667   1
   0   0  -2 72.8759 2.43500   1
   0   0  -3 115.834 3.68693   1
   0   0   3 119.817 3.73286   1
   0   0   4 66.3003 3.33474   1
   0   0  -4 66.1064 3.37130   1
   0   0   5 303.614 7.53126   1
   0   0  -5 285.236 7.32840   1
   0   0  -6 96.5542 4.90349   1
   0   0   6 102.660 5.05630   1
   0   0   7 51.3439 4.17827   1
   0   0  -7 58.1936 4.38770   1
   0   0  -8 29.7234 3.76243   1
   0   0   8 34.9747 4.02703   1
   0   0   9 133.821 7.30823   1
   0   0  -9 132.184 7.25997   1
   0   0 -10 9.78250 3.68052   1
   0   0  10 7.96369 3.61877   1
   0   0  11 58.7186 6.27073   1
   0   0 -11 65.6231 6.40552   1
   0   0 -12 8.53701 4.64807   1
   0   0  12 3.14510 4.39761   1
   0   0 -12 3.26963 5.09123   2
   0   0 -13 16.8063 6.89236   2
   0   0 -13 0.56323 4.98138   1
   0   0  13 16.9327 5.85949   1
   0   0 -14 15.0371 6.79472   1
   0   0  14 23.1497 7.15834   1
   0   0 -14 33.4583 8.43597   2
   0   0 -15 4.75797 7.54096   1
   0   0 -15-3.50012 8.14341   2
   0   0  15-5.55861 7.45437   1
   0  -1  16 2.32229 6.95764   1
   0   1 -16 11.7410 8.83546   2
   0  -1  16-3.71103 7.02496   1
   0  -1  15 7.82015 6.04760   1
   0   1 -15 1.81020 7.44452   2
   0   1 -14 11.5031 5.27573   1
   0  -1  14 1.03534 5.31510   1
   0   1 -13 77.5592 8.59219   2
   0   1 -13 86.6229 7.75227   1
   0  -1  13 97.9330 8.18035   1
   0   1 -12 20.5639 4.79823   1
   0  -1  12 28.9492 5.00953   1
   0   1 -12 18.6342 5.40273   2
   0  -1  11 18.7410 4.17895   1
   0   1 -11 23.9523 5.11744   2
   0   1 -11 15.7134 4.11344   1
   0  -1  10 37.6027 4.44137   1
   0   1 -10 36.7760 5.15953   2
   0   1 -10 37.9212 4.49445   1
   0   1  -9 1.13871 2.30888   1
   0  -1   9 4.54801 2.52016   1
   0   1  -9 3.99644 3.22834   2
   0   1  -8 14.8507 2.83202   1
   0   1  -8 14.9353 3.40575   2
   0  -1   8 12.9410 2.62488   1
   0   1  -7 18.9456 3.25135   2
   0   1  -7 24.0845 2.81410   1
   0  -1   7 18.0505 2.60907   1
   0   1  -6 3.90754 2.26539   2
   0   1  -6 4.42810 1.67801   1
   0  -1   6 1.38606 1.63905   1
   0  -1   5 15.1754 1.90624   1
   0   1  -5 14.6880 2.43688   2
   0   1  -5 12.1365 1.77905   1
   0   1  -4 7.53229 1.88130   2
   0  -1   4 5.93317 1.35576   1
   0   1  -4 6.05542 1.31314   1
   0   1  -3 2191.63 12.6928   1
   0   1  -3 2237.49 16.3463   2
   0  -1   3 2219.63 16.2858   2
   0  -1   3 2202.12 12.6570   1
   0  -1   2 315.551 5.36701   2
   0   1  -2 302.492 5.26245   2
   0   1  -2 310.081 3.91976   1
   0  -1   2 302.910 3.90258   1
   0   1  -1 10.3833 1.24629   2
   0  -1   1 10.9975 1.36419   2
   0  -1   1 10.4078 0.98114   1
   0   1  -1 9.96327 0.96843   1
   0   1   0 200.945 3.76784   1
   0   1   0 204.842 3.82139   2
   0  -1   0 206.302 3.86197   2
   0  -1   0 210.898 3.81744   1
   0  -1  -1 106.164 3.44180   1
   0   1   1 106.141 3.29787   2
   0  -1  -1 115.110 3.41594   2
   0   1   1 110.596 3.50077   1
   0  -1  -2 39.0832 2.49830   2
   0   1   2 41.5929 2.66599   1
   0  -1  -2 43.1162 2.75429   1
   0   1   3 249.788 6.53675   1
   0  -1  -3 250.129 6.53376   1
   0  -1  -4 155.633 5.79746   1
   0   1   4 164.896 6.03190   1
   0  -1  -5 23.2597 3.06329   1
   0   1   5 18.6579 2.82298   1
   0   1   6 301.834 9.45394   1
   0  -1  -6 301.780 9.39826   1
   0  -1  -7 1006.61 18.1491   1
   0   1   7 1057.16 18.6502   1
   0  -1  -8-0.72915 2.90989   1
   0   1   8 11.3469 3.53302   1
   0  -1  -9 1.81205 3.05855   1
   0   1   9 3.88969 3.34405   1
   0  -1 -10 3.29486 3.61740   1
   0   1  10 4.76514 3.94934   1
   0  -1 -11 13.4687 5.02094   1
   0   1  11 11.9479 4.91849   1
   0  -1 -12 5.44877 5.04106   1
   0   1  12 9.05464 5.57098   1
   0  -1 -12 4.37810 5.73957   2
   0  -1 -13 25.7936 7.15445   2
   0  -1 -13 11.1966 5.92830   1
   0   1  13 17.5054 6.56413   1
   0  -1 -14 7.39306 7.23114   1
   0  -1 -14 2.25703 7.83179   2
   0  -1 -14 6.38690 7.56673   2
   0   1  14-6.40583 6.92456   1
   0  -1 -15 12.0642 10.2489   2
   0  -1 -15 2.69358 9.24359   2
   0   1  15 18.0589 8.93140   1
   0  -1 -15 21.8845 8.85743   1
   0   2 -16 89.2597 11.9841   2
   0  -2  16 106.029 9.57952   1
   0  -2  16 88.2490 9.26771   1
   0  -2  15 49.3284 7.34972   1
   0  -2  15 46.0078 6.89327   1
   0   2 -15 44.3176 9.60461   2
   0  -2  14 25.7881 5.47258   1
   0  -2  14 16.1745 5.02370   1
   0   2 -14 12.8456 6.35991   2
   0  -2  13 45.0928 5.57979   1
   0   2 -13 55.8616 7.59794   2
   0  -2  13 58.8841 6.16168   1
   0  -2  12 3.94094 3.63988   1
   0   2 -12 12.1392 5.26485   2
   0  -2  12 5.06480 3.47798   1
   0  -2  11 209.345 8.55838   1
   0   2 -11 179.739 10.0191   2
   0  -2  11 201.258 8.50164   1
   0   2 -10 103.993 7.36651   2
   0  -2  10 95.0975 5.62380   1
   0  -2  10 103.158 5.82766   1
   0   2  -9 1.14669 2.88239   2
   0  -2   9 2.67243 2.18427   1
   0  -2   9 3.13919 2.15608   1
   0  -2   8 101.732 4.90792   1
   0  -2   8 104.590 4.98827   1
   0   2  -8 105.062 6.48579   2
   0  -2   7 47.3919 3.25491   1
   0  -2   7 51.3475 3.35368   1
   0   2  -7 54.2016 4.43945   2
   0   2  -6 190.839 7.13960   2
   0  -2   6 199.017 5.50047   1
   0  -2   6 180.723 5.25812   1
   0  -2   5 108.122 5.02653   2
   0  -2   5 103.530 3.65532   1
   0   2  -5 109.204 5.11475   2
   0  -2   5 107.772 3.73406   1
   0   2  -4 49.2621 3.41589   2
   0  -2   4 47.5948 3.23959   2
   0  -2   4 48.6429 2.40938   1
   0   2  -3 108.392 3.21049   1
   0   2  -3 114.203 4.41408   2
   0  -2   3 109.961 4.28728   2
   0  -2   3 103.444 3.11638   1
   0  -2   2 3012.51 20.3076   2
   0  -2   2 2934.64 16.3636   1
   0   2  -2 2896.18 19.9148   2
   0   2  -2 2953.63 16.3201   1
   0   2  -1 10.9317 1.65813   1
   0  -2   1 11.0653 1.62208   1
   0  -2   1 10.3538 1.63345   2
   0   2  -1 10.2524 1.94331   2
   0  -2   0 25.2652 2.42107   1
   0   2   0 22.7388 2.38332   2
   0   2   0 23.5169 2.15543   1
   0  -2   0 23.4986 2.40157   2
   0  -2  -1 186.180 5.60127   2
   0   2   1 183.213 5.55966   2
   0  -2  -1 193.411 5.82879   1
   0   2   1 188.703 5.70168   1
   0   2   2 81.1833 4.40306   1
   0  -2  -2 77.5529 4.08463   2
   0  -2  -2 76.5485 4.09548   1
   0   2   2 78.9225 4.11305   2
   0  -2  -3 400.742 9.64369   1
   0  -2  -3 408.500 9.49842   2
   0   2   3 419.108 10.0321   1
   0  -2  -4 1143.95 17.4408   1
   0   2   4 1099.33 17.3528   1
   0  -2  -4 1135.60 16.9247   2
   0  -2  -5-3.89326 2.59491   1
   0   2   5 0.75361 2.50993   1
   0  -2  -5-1.47844 2.33214   2
   0  -2  -6 111.787 6.59601   2
   0   2   6 115.830 6.96219   1
   0  -2  -6 116.951 6.83060   1
   0  -2  -7 6.09322 3.28700   2
   0   2   7 8.83779 3.64926   1
   0  -2  -7 0.03368 3.05421   1
   0  -2  -8 56.0246 5.96498   2
   0   2   8 42.5542 5.67171   1
   0  -2  -8 53.1492 5.87159   1
   0  -2  -9 50.6656 6.34042   2
   0   2   9 56.8031 6.52865   1
   0  -2  -9 51.4689 6.06920   1
   0  -2 -10 79.4304 7.81870   1
   0  -2 -10 81.8836 7.95178   2
   0   2  10 93.3680 8.44713   1
   0  -2 -11 51.1300 7.07497   1
   0   2  11 47.4203 7.57050   1
   0  -2 -11 56.0297 7.71912   2
   0  -2 -12 29.8992 6.85429   2
   0   2  12 29.6954 7.55682   1
   0  -2 -12 31.6665 7.14763   1
   0  -2 -13 12.5994 8.30322   2
   0  -2 -13 14.1197 7.98471   1
   0   2  13 21.6105 7.64504   1
   0  -2 -14 22.3362 9.62440   2
   0   2  14 15.9720 9.08527   1
   0  -2 -14 23.2699 9.23874   1
   0   3 -16 12.0022 8.91996   2
   0  -3  16-2.79963 5.98781   1
   0  -3  16 5.47153 5.76382   1
   0  -3  15 81.8484 7.50675   1
   0   3 -15 64.1711 10.1729   2
   0  -3  15 81.9764 7.40973   1
   0   3 -14 3.37741 6.31869   2
   0  -3  14 9.79084 4.15355   1
   0  -3  14 6.36603 3.95625   1
   0  -3  13 107.306 6.92797   1
   0   3 -13 112.507 9.55805   2
   0  -3  13 113.446 7.09277   1
   0  -3  12 25.5814 4.02117   1
   0   3 -12 26.7846 5.94373   2
   0  -3  12 23.3517 3.97403   1
   0   3 -11 7.68583 4.22769   2
   0  -3  11 5.78868 2.87284   1
   0  -3  11 4.39965 2.72278   1
   0  -3  10 11.2391 2.65016   1
   0  -3  10 11.1299 2.75504   1
   0   3 -10 13.9028 4.27653   2
   0  -3   9 26.9144 3.03049   1
   0   3  -9 25.3642 4.43488   2
   0  -3   9 37.8346 3.42543   1
   0  -3   8 15.9019 2.35830   1
   0   3  -8 13.4587 3.44434   2
   0  -3   8 15.1818 2.30888   1
   0   3  -7 556.784 13.2657   2
   0  -3   7 531.636 13.0226   2
   0  -3   7 564.330 9.72151   1
   0  -3   7 543.434 9.57622   1
   0  -3   6 14.0875 1.93392   1
   0  -3   6 23.6532 3.25986   2
   0  -3   6 12.5485 1.94134   1
   0   3  -6 14.0870 2.98591   2
   0  -3   5 90.5189 3.67413   1
   0   3  -5 84.1898 3.57749   1
   0   3  -5 94.0362 5.17648   2
   0  -3   5 89.0757 5.09077   2
   0  -3   4 180.034 4.97647   1
   0   3  -4 165.940 4.81360   1
   0  -3   4 172.703 6.42104   2
   0   3  -4 173.457 6.45890   2
   0  -3   3 265.151 6.19343   1
   0  -3   3 284.383 7.90772   2
   0   3  -3 271.684 7.70283   2
   0   3  -3 275.104 6.26244   1
   0   3  -2-0.02641 1.42423   1
   0  -3   2-1.58491 1.55753   1
   0  -3   2 2.54161 2.02453   2
   0   3  -2 1.94350 1.62432   2
   0  -3   1 62.0994 4.00755   2
   0   3  -1 65.5370 3.90206   2
   0   3  -1 62.8009 3.68921   1
   0  -3   1 65.0270 3.78981   1
   0   3   0 16.0827 2.50441   2
   0  -3   0 16.2095 2.55016   1
   0   3   0 12.5481 2.49676   1
   0  -3   0 15.1065 2.56012   2
   0   3   1 1256.36 17.0982   1
   0  -3  -1 1235.80 16.8709   2
   0  -3  -1 1236.02 17.0624   1
   0   3   1 1227.66 16.7042   2
   0  -3  -2 737.518 14.1309   1
   0   3   2 795.861 14.7026   1
   0  -3  -2 727.111 13.6831   2
   0   3   2 721.083 13.5153   2
   0  -3  -3 0.31029 2.44530   1
   0   3   3 3.55694 2.22476   1
   0  -3  -3 1.74105 2.02205   2
   0   3   4 37.8906 4.53191   1
   0  -3  -4 46.7109 4.45130   2
   0  -3  -4 44.8567 4.69086   1
   0  -3  -5 45.1725 5.06558   1
   0  -3  -5 37.7162 4.62151   2
   0   3   5 38.8736 4.71369   1
   0   3   6 37.5281 5.01679   1
   0  -3  -6 53.3007 5.69189   1
   0  -3  -6 41.9841 5.18160   2
   0  -3  -7 68.5794 6.62692   1
   0  -3  -7 61.4769 6.30015   2
   0   3   7 69.9459 6.92817   1
   0  -3  -8 168.216 9.71434   2
   0  -3  -8 161.025 9.75319   1
   0   3   8 162.997 10.2241   1
   0  -3  -9 4.25442 4.81456   1
   0  -3  -9 1.38005 4.25266   2
   0   3   9 6.59042 5.29076   1
   0  -3 -10 15.0670 5.89258   2
   0   3  10 10.6975 5.61325   1
   0  -3 -10 19.1672 5.85329   1
   0  -3 -11 26.6431 7.25241   2
   0   3  11 37.4128 7.95327   1
   0  -3 -11 36.2509 7.53564   1
   0  -3 -12 2.75086 7.13767   2
   0  -3 -12 1.66352 6.68156   1
   0   3  12 21.5128 8.10871   1
   0   3  13 5.19906 8.66713   1
   0  -3 -13-2.51537 9.32396   1
   0  -3 -13 16.0287 9.09960   2
   0  -4  16 2.47602 4.67996   1
   0  -4  16-1.12829 4.83358   1
   0   4 -16 1.41091 8.89390   2
   0   4 -15 58.6576 9.90685   2
   0  -4  15 55.0268 6.04987   1
   0  -4  15 52.4575 5.94619   1
   0  -4  14 0.90750 3.65329   1
   0   4 -14 3.82377 6.09917   2
   0  -4  14-0.90868 3.62929   1
   0  -4  13 3.65702 3.23018   1
   0   4 -13 6.12063 5.12572   2
   0  -4  13 6.77524 3.44327   1
   0  -4  12 7.89748 3.12248   1
   0   4 -12 14.4733 5.35989   2
   0  -4  12 9.34766 3.04570   1
   0   4 -11 52.6160 6.59198   2
   0  -4  11 46.3319 4.07972   1
   0  -4  11 41.8625 3.97726   1
   0  -4  10 21.8540 2.97611   1
   0  -4  10 22.6927 3.00737   1
   0   4 -10 20.5877 4.79046   2
   0  -4   9 21.8404 2.83727   1
   0   4  -9 28.8858 4.92738   2
   0  -4   9 26.3069 2.95610   1
   0   4  -8 6.91730 3.15428   2
   0  -4   8 7.11634 2.04043   1
   0  -4   8 7.13864 1.99005   1
   0  -4   8 5.73877 3.19381   2
   0   4  -7 6.35566 3.20699   2
   0  -4   7 10.1012 2.01102   1
   0  -4   7 7.84239 1.94805   1
   0  -4   7 8.17357 3.19906   2
   0   4  -6 540.581 13.4052   2
   0  -4   6 540.614 13.3097   2
   0  -4   6 535.695 9.74164   1
   0   4  -6 544.111 9.88650   1
   0   4  -5 168.504 5.67390   1
   0  -4   5 169.908 7.43777   2
   0  -4   5 176.793 5.82115   1
   0   4  -5 172.692 7.52884   2
   0   4  -4 3.95096 1.80789   1
   0  -4   4 1.48072 2.47621   2
   0   4  -4 3.10330 2.21348   2
   0  -4   3 82.3394 4.40003   1
   0   4  -3 80.6083 5.21998   2
   0   4  -3 77.0564 4.22238   1
   0  -4   3 79.4303 5.04303   2
   0  -4   2 50.9343 4.28098   2
   0   4  -2 50.3937 3.73266   1
   0   4  -1 381.784 9.85491   1
   0   4  -1 353.557 10.1494   2
   0  -4   1 354.347 10.0385   2
   0  -4   0 30.5314 3.58782   1
   0   4   0 26.5024 3.53252   1
   0  -4   0 29.5367 3.71568   2
   0   4   0 26.8521 3.63055   2
   0  -4  -1 446.962 11.8543   1
   0  -4  -1 431.788 11.6700   2
   0   4   1 457.384 11.9859   1
   0   4   1 428.515 11.5952   2
   0  -4  -2 71.6536 5.30040   2
   0  -4  -2 76.8321 5.74214   1
   0   4   2 71.6255 5.44804   1
   0   4   2 74.8829 5.57112   2
   0  -4  -3 188.461 8.65337   2
   0   4   3 192.401 8.60761   2
   0  -4  -3 189.628 8.84993   1
   0   4   3 181.909 8.62748   1
   0  -4  -4 218.135 9.54481   2
   0   4   4 213.063 10.0149   1
   0  -4  -4 212.560 9.91131   1
   0   4   5 282.042 11.7594   1
   0  -4  -5 271.064 11.5764   1
   0  -4  -5 277.100 11.3063   2
   0  -4  -6-0.08115 3.84300   2
   0  -4  -6-1.34612 3.87423   1
   0   4   6 4.60870 3.58509   1
   0   4   7 118.214 9.18901   1
   0  -4  -7 117.728 8.74064   2
   0  -4  -7 117.809 9.04756   1
   0  -4  -8 7.59924 5.22376   1
   0   4   8 15.3923 5.36086   1
   0  -4  -8 9.39012 5.25468   2
   0  -4  -9-0.70219 5.46612   2
   0  -4  -9-4.12002 5.51296   1
   0   4   9-1.38137 5.55315   1
   0  -4 -10-2.48665 6.36432   2
   0  -4 -10 6.02868 6.74684   1
   0   4  10 5.76585 5.89492   1
   0  -4 -11-6.53669 7.35534   2
   0   4  11-1.77127 8.18278   1
   0  -4 -11 0.27058 7.56829   1
   0  -4 -12 7.60157 8.44049   1
   0  -4 -12 4.86532 7.99466   2
   0   4  12-4.79335 8.38147   1
   0  -4 -13 8.95189 7.08013   2
   0  -4 -13 12.2247 7.11076   1
   0   4  13 20.2560 7.52061   1
   0   5 -16 16.0122 9.84470   2
   0  -5  16 4.55019 3.82584   1
   0  -5  16 5.88628 3.94551   1
   0   5 -15 2.83544 7.74808   2
   0  -5  15 4.60338 3.48633   1
   0  -5  15 4.20191 3.53608   1
   0  -5  14 13.9399 3.50804   1
   0   5 -14 8.52065 6.65429   2
   0  -5  14 17.3415 3.59986   1
   0  -5  13-3.04652 2.85941   1
   0   5 -13-0.17164 5.32189   2
   0  -5  13 0.13576 2.84525   1
   0   5 -12 65.7840 8.21429   2
   0  -5  12 47.1752 4.23404   1
   0  -5  12 50.8619 4.33815   1
   0   5 -11 5.09426 4.57086   2
   0  -5  11-0.43603 2.41420   1
   0  -5  11 0.04172 2.49540   1
   0  -5  10 1.89178 2.25438   1
   0  -5  10 2.70588 2.31024   1
   0   5 -10-0.88876 4.38018   2
   0  -5   9 55.5760 4.03001   1
   0  -5   9 54.9451 6.14095   2
   0  -5   9 56.4311 4.08096   1
   0   5  -9 56.4922 6.34539   2
   0  -5   8 296.016 11.7254   2
   0   5  -8 282.985 11.5224   2
   0  -5   8 304.109 8.36977   1
   0   5  -7 70.2539 5.88693   2
   0  -5   7 65.8667 4.22264   1
   0  -5   7 72.2610 6.20444   2
   0   5  -7 71.7861 4.45083   1
   0   5  -6 83.5558 6.33969   2
   0  -5   6 78.5395 4.59129   1
   0   5  -6 81.7142 4.64026   1
   0  -5   6 82.9874 6.26393   2
   0   5  -5 7.41418 3.39226   2
   0  -5   5 10.5150 3.27163   2
   0   5  -5 10.1979 2.44849   1
   0  -5   5 12.6011 2.66319   1
   0  -5   4 207.386 7.51798   1
   0   5  -4 208.394 9.04747   2
   0  -5   4 195.012 8.75976   2
   0   5  -4 210.041 7.44802   1
   0   5  -3 52.5692 5.10307   2
   0  -5   3 49.7252 4.64796   2
   0   5  -3 58.7319 4.41764   1
   0  -5   3 56.9021 4.54188   1
   0   5  -2 29.5644 3.75527   1
   0  -5   2 34.3017 4.44457   2
   0  -5   2 31.1419 3.89845   1
   0   5  -2 32.5350 4.38842   2
   0   5  -1 98.7869 6.23850   1
   0  -5   1 95.2743 6.43547   2
   0  -5   1 97.7185 6.04582   1
   0   5  -1 102.737 6.52156   2
   0  -5   0 698.753 16.2151   2
   0   5   0 702.794 15.8506   1
   0   5   0 709.034 16.2698   2
   0  -5   0 672.364 15.6779   1
   0  -5  -1 328.914 11.5616   2
   0  -5  -1 335.892 11.7386   1
   0   5   1 333.619 11.7052   1
   0   5   1 312.136 11.3125   2
   0   5   2 26.0397 4.54896   2
   0  -5  -2 26.5976 4.48665   2
   0  -5  -2 21.9955 4.24508   1
   0   5   2 20.6891 4.10483   1
   0  -5  -3-2.05411 3.44430   1
   0   5   3 3.62096 3.45655   1
   0   5   3 2.68412 3.12236   2
   0  -5  -3 0.42038 3.53638   2
   0  -5  -4 9.51080 4.34286   2
   0  -5  -4 8.08976 4.50809   1
   0   5   4 5.04384 3.44950   1
   0  -5  -5 475.607 15.9176   2
   0   5   5 454.002 16.2949   1
   0  -5  -5 442.841 15.8619   1
   0  -5  -6 92.9251 8.81736   1
   0  -5  -6 89.5099 8.34017   2
   0   5   6 85.5606 8.41782   1
   0  -5  -7 17.2476 5.49238   2
   0  -5  -7 14.9709 5.64208   1
   0   5   7 7.19750 5.71468   1
   0  -5  -8 62.1234 8.43848   2
   0   5   8 60.1541 8.37096   1
   0  -5  -8 71.1933 9.13910   1
   0   5   9 22.6706 7.70382   1
   0  -5  -9 35.2318 7.62552   2
   0  -5  -9 32.0043 7.33710   1
   0   5  10 8.68399 7.70875   1
   0  -5 -10 23.4740 8.12718   2
   0  -5 -10 31.5946 9.20416   1
   0  -5 -11 7.22040 8.87161   2
   0   5  11 6.66075 7.96109   1
   0  -5 -11 27.0873 9.83454   1
   0  -5 -12 44.7655 8.75272   1
   0   5  12 21.5136 8.42419   1
   0  -6  16-0.26207 2.39235   1
   0   6 -16 10.7608 9.71798   2
   0  -6  15 5.01275 3.04132   1
   0  -6  15 5.06760 2.86160   1
   0   6 -15 12.1683 8.28067   2
   0  -6  14 16.2925 3.32103   1
   0   6 -14 12.2033 7.50618   2
   0  -6  14 16.5224 3.33569   1
   0   6 -13 10.2224 6.69581   2
   0  -6  13 6.15864 2.89480   1
   0  -6  13 4.70315 2.99651   1
   0   6 -12 93.1819 9.38170   2
   0  -6  12 80.9984 5.15015   1
   0  -6  12 80.8368 5.22720   1
   0  -6  11 84.0976 5.28746   1
   0  -6  11 86.0149 8.37436   2
   0   6 -11 72.4477 8.16895   2
   0  -6  11 79.4839 5.16097   1
   0   6 -10 3.39528 4.07219   2
   0  -6  10 5.40769 2.64705   1
   0  -6  10 5.18763 2.75212   1
   0  -6  10-0.76958 4.53151   2
   0  -6   9 156.758 6.82603   1
   0  -6   9 133.713 9.28570   2
   0   6  -9 147.070 9.75132   2
   0   6  -8 51.8276 6.48899   2
   0  -6   8 50.4861 6.37434   2
   0  -6   8 49.7955 4.39189   1
   0   6  -8 46.7843 4.18285   1
   0  -6   7 184.576 9.93055   2
   0   6  -7 207.454 10.3724   2
   0   6  -7 202.435 7.76189   1
   0  -6   7 197.692 7.75410   1
   0   6  -6 5.08012 2.57679   1
   0  -6   6 4.68591 3.09665   2
   0  -6   6 4.37775 2.68887   1
   0   6  -6 2.47004 3.69457   2
   0  -6   5 202.802 9.98889   2
   0   6  -5 186.641 7.86612   1
   0  -6   5 200.859 8.21321   1
   0   6  -5 197.335 9.76405   2
   0   6  -4 1.91339 2.57104   1
   0  -6   4 2.39860 2.76993   2
   0   6  -4 1.16285 3.54915   2
   0  -6   4-3.42810 2.84359   1
   0  -6   3 60.7851 5.31417   1
   0   6  -3 59.8374 6.03530   2
   0   6  -3 58.1139 5.08600   1
   0  -6   3 54.9959 5.78129   2
   0  -6   2 95.5418 7.18388   2
   0  -6   2 99.2320 6.78580   1
   0   6  -2 92.0759 7.18607   2
   0   6  -2 96.3405 6.44340   1
   0  -6   1 279.929 11.1237   1
   0   6  -1 289.271 11.2255   1
   0   6  -1 298.766 11.9682   2
   0  -6   1 296.015 11.6668   2
   0   6   0 71.2575 6.59269   1
   0  -6   0 73.9599 6.60119   1
   0   6   0 64.4124 6.16563   2
   0  -6   0 67.2348 6.10083   2
   0   6   1 15.8917 4.02609   2
   0  -6  -1 18.1972 4.77229   2
   0  -6  -1 19.8636 4.45804   1
   0   6   1 12.3498 4.36818   1
   0   6   2 2.64229 3.70495   2
   0  -6  -2 1.18596 4.02500   1
   0   6   2 7.72419 4.45349   1
   0  -6  -2 4.95183 4.19803   2
   0   6   3 73.5772 7.15638   2
   0   6   3 78.6293 7.37773   1
   0  -6  -3 78.8866 7.76969   2
   0  -6  -3 78.2143 7.54382   1
   0  -6  -4 74.8852 7.86632   1
   0  -6  -4 90.5035 8.34050   2
   0   6   4 76.3425 7.76927   1
   0  -6  -5 86.1649 8.63793   2
   0   6   5 89.7598 9.32810   1
   0  -6  -5 80.0867 8.78049   1
   0  -6  -6 33.2975 6.72553   1
   0   6   6 48.5132 7.88546   1
   0  -6  -6 31.5365 6.66913   2
   0   6   7 129.679 11.7945   1
   0  -6  -7 102.963 10.7315   1
   0  -6  -7 117.770 10.6473   2
   0  -6  -8 37.0670 8.64230   1
   0  -6  -8 19.8899 7.60768   2
   0   6   8 28.7340 8.57915   1
   0  -6  -9 3.75076 7.73531   2
   0   6   9-4.77491 8.67748   1
   0  -6  -9 11.3227 9.11349   1
   0  -6 -10-7.47160 9.49465   2
   0   6  10-0.73425 9.74451   1
   0  -6 -10-2.29215 8.77684   1
   0   7 -15 14.6513 8.95126   2
   0  -7  15 4.53803 2.34156   1
   0  -7  14 0.91767 2.94044   1
   0   7 -14-9.11515 7.90636   2
   0  -7  14 0.15091 2.83407   1
   0  -7  13 20.6865 3.54780   1
   0  -7  13 14.9392 3.46384   1
   0   7 -13 8.03541 7.09857   2
   0  -7  12 18.3268 3.70421   1
   0  -7  12 17.6394 3.73386   1
   0   7 -12 31.3971 8.20600   2
   0   7 -11 86.2878 9.02530   2
   0  -7  11 85.8427 5.66432   1
   0  -7  11 84.2613 5.69984   1
   0  -7  11 90.0183 9.31916   2
   0  -7  10 521.729 12.9010   1
   0  -7  10 510.910 18.3960   2
   0  -7  10 521.718 12.8884   1
   0   7 -10 482.142 18.0017   2
   0  -7   9 16.1335 5.08796   2
   0  -7   9 23.1310 4.02116   1
   0   7  -9 12.6756 5.43241   2
   0   7  -9 20.2494 3.82098   1
   0  -7   8 6.17252 3.30689   1
   0   7  -8 11.2654 5.28474   2
   0  -7   8 9.29976 5.30119   2
   0   7  -8 7.50529 3.36731   1
   0   7  -7 2.54744 2.87826   1
   0   7  -7 5.66654 4.16231   2
   0  -7   7-2.66330 3.01376   1
   0  -7   7-1.61940 4.38052   2
   0   7  -6 29.9233 4.37266   1
   0  -7   6 36.0309 5.45947   2
   0   7  -6 32.4720 5.54664   2
   0  -7   6 25.8342 4.32369   1
   0  -7   5 106.972 7.12860   1
   0  -7   5 113.293 8.70858   2
   0   7  -5 114.039 7.14738   1
   0   7  -5 121.572 9.01104   2
   0   7  -4 57.6424 5.56624   1
   0  -7   4 48.0236 6.18318   2
   0   7  -4 51.9209 6.39102   2
   0  -7   4 60.3653 5.95078   1
   0   7  -3 3.24389 4.22582   2
   0  -7   3 0.44168 4.21888   2
   0  -7   3 8.72228 4.12720   1
   0   7  -3-4.25858 3.37265   1
   0  -7   2 62.0246 6.52642   1
   0   7  -2 57.9810 6.19237   1
   0  -7   2 44.8879 6.17716   2
   0   7  -2 50.5306 6.52962   2
   0  -7   1 2.19047 3.99529   2
   0   7  -1 0.97481 3.89060   1
   0  -7   1-0.29968 3.62623   1
   0   7  -1 3.71352 3.68711   2
   0   7   0 4.68221 4.42958   1
   0   7   0 0.84721 4.49170   2
   0  -7   0 2.00870 3.43212   1
   0  -7   0 5.25227 4.76278   2
   0  -7  -1 16.6921 4.87338   2
   0   7   1 17.6813 5.11277   1
   0  -7  -1 17.3104 4.86519   1
   0   7   1 18.4828 4.77156   2
   0   7   2 4.49170 4.03995   1
   0   7   2-7.33398 5.25909   2
   0  -7  -2 3.59041 5.05344   1
   0  -7  -2 0.15509 4.79967   2
   0   7   3 35.7355 7.36376   1
   0  -7  -3 43.1282 7.55167   1
   0   7   3 35.1906 6.53821   2
   0  -7  -3 39.8304 6.60839   2
   0  -7  -4 4.17069 6.01019   2
   0   7   4 5.90682 5.86129   1
   0  -7  -4 6.80486 6.26859   1
   0  -7  -5 26.8182 7.55441   1
   0   7   5 29.5694 7.53053   1
   0  -7  -5 37.3830 7.56981   2
   0  -7  -6 0.85154 7.40675   2
   0   7   6 18.0589 6.91790   1
   0  -7  -6 8.31351 7.46598   1
   0  -7  -7 30.4586 8.40902   1
   0  -7  -7 48.3921 9.68352   2
   0   7   7 34.1047 8.71213   1
   0  -7  -8 3.99356 8.10017   1
   0  -7  -8 0.67408 8.57514   2
   0   7   8 2.09367 9.42927   1
   0  -7  -9 10.0236 10.5977   2
   0   7   9-5.00951 9.72224   1
   0  -7  -9 21.5164 9.70365   1
   0   8 -15-10.2040 10.1778   2
   0  -8  15 3.09250 1.95368   1
   0  -8  14 32.6444 3.87537   1
   0  -8  14 33.7923 3.94710   1
   0   8 -14 25.6357 9.38108   2
   0  -8  13 115.600 6.48689   1
   0   8 -13 122.510 12.8000   2
   0  -8  13 121.132 6.80794   1
   0  -8  12 12.1406 7.08666   2
   0  -8  12 15.9473 4.02815   1
   0   8 -12 19.1344 8.10701   2
   0  -8  12 20.0634 4.31652   1
   0  -8  11 1.24264 3.72618   1
   0  -8  11 3.46582 6.28037   2
   0   8 -11 6.41134 7.03848   2
   0  -8  11 7.57517 3.85403   1
   0  -8  10 51.9499 7.96812   2
   0  -8  10 46.9166 5.29883   1
   0   8 -10 50.6208 5.48053   1
   0   8 -10 46.0876 8.50878   2
   0  -8   9 30.9422 7.23050   2
   0   8  -9 38.6853 6.89511   2
   0   8  -9 29.2615 4.84243   1
   0  -8   9 35.1992 5.11231   1
   0   8  -8-0.79576 4.46539   2
   0   8  -8 4.23805 3.54327   1
   0  -8   8-4.14598 3.94030   1
   0  -8   8 6.56435 5.68697   2
   0   8  -7 23.3588 4.57489   1
   0  -8   7 26.0505 6.48108   2
   0  -8   7 30.3451 5.22001   1
   0   8  -7 34.0560 6.76086   2
   0  -8   6-2.68909 5.40075   2
   0   8  -6-2.84760 3.80426   1
   0   8  -6 0.48938 4.27724   2
   0  -8   6-1.71654 3.70564   1
   0   8  -5 85.4228 7.19764   1
   0   8  -5 88.6288 8.44859   2
   0  -8   5 82.6163 7.35074   1
   0  -8   5 83.5363 8.78822   2
   0  -8   4 3.55098 5.12193   2
   0   8  -4 0.37368 4.93824   2
   0  -8   4 7.14252 4.24714   1
   0   8  -4 2.14033 3.88037   1
   0  -8   3 250.084 12.9173   2
   0   8  -3 255.870 13.3971   2
   0   8  -3 257.963 12.0918   1
   0  -8   3 228.849 11.7748   1
   0  -8   2 82.3563 8.07543   1
   0  -8   2 62.6809 7.74728   2
   0   8  -2 83.6736 7.87943   1
   0   8  -2 74.2652 8.67259   2
   0  -8   1-0.45904 4.17646   1
   0   8  -1-0.80764 4.45765   1
   0   8  -1 5.55011 5.11287   2
   0  -8   1 7.37121 4.58466   2
   0   8   0 55.5968 7.23949   1
   0  -8   0 32.3957 6.48107   1
   0   8   0 45.9270 7.45827   2
   0  -8   0 37.1085 7.15193   2
   0   8   1 7.08782 5.01330   1
   0   8   1 20.3790 6.00812   2
   0  -8  -1 8.63195 5.50641   2
   0  -8  -1 18.9496 6.67522   1
   0   8   2 19.5936 7.05459   1
   0  -8  -2 2.80454 6.39034   1
   0  -8  -2 3.83506 6.31355   2
   0   8   2 12.8830 5.48868   2
   0   8   3 13.7758 6.37965   1
   0  -8  -3 12.5201 6.16680   2
   0  -8  -3 2.01414 6.46366   1
   0   8   3-0.69078 5.29631   2
   0   8   4 15.5566 7.62094   1
   0  -8  -4 9.84376 6.14856   2
   0  -8  -4 8.70400 7.29142   1
   0  -8  -5 10.1281 7.07621   1
   0   8   5 2.62362 7.70686   1
   0  -8  -5-5.06744 8.01690   2
   0  -8  -6-3.71180 8.79001   2
   0   8   6-4.49120 9.38794   1
   0  -8  -6 5.57907 7.48283   1
   0   8   7-10.0375 10.1871   1
   0  -8  -7-10.8082 9.41678   1
   0  -8  -7-7.87196 9.65855   2
   0  -8  -8 7.82574 8.97418   1
   0   8   8-5.31941 9.04883   1
   0  -8  -8-7.16578 9.31269   2
   0  -9  14 6.03298 3.57757   1
   0  -9  14 0.70627 3.62518   1
   0   9 -14-1.65087 8.98397   2
   0   9 -13-7.39925 8.99756   2
   0  -9  13-5.99343 9.76836   2
   0  -9  13 13.9116 4.49612   1
   0  -9  13 2.50926 4.56230   1
   0  -9  12-0.67636 4.37511   1
   0   9 -12 15.0978 9.66949   2
   0  -9  12 20.6593 9.92184   2
   0  -9  12 2.47352 4.34495   1
   0  -9  11 2.78583 4.70132   1
   0  -9  11-4.69093 6.54571   2
   0   9 -11 3.75252 4.38905   1
   0   9 -11-4.03342 8.01994   2
   0  -9  10 40.8092 8.52450   2
   0  -9  10 30.4697 5.60610   1
   0   9 -10 23.4216 8.38658   2
   0   9 -10 31.8661 5.54202   1
   0  -9   9 6.09726 4.93915   1
   0   9  -9 2.41954 6.09151   2
   0  -9   9 11.8311 7.77830   2
   0   9  -9 5.91417 4.59942   1
   0   9  -8-6.03504 7.30991   2
   0  -9   8 1.18333 4.58300   1
   0  -9   8-2.01964 6.17917   2
   0   9  -8-4.86871 4.76387   1
   0   9  -7 63.5969 9.07546   2
   0  -9   7 57.8867 8.35588   2
   0  -9   7 55.8214 6.85283   1
   0   9  -7 60.1411 7.05330   1
   0  -9   6 184.565 10.9887   1
   0   9  -6 197.091 10.9494   1
   0   9  -6 179.775 12.8103   2
   0  -9   6 180.348 12.9675   2
   0  -9   5 6.96706 6.36511   2
   0   9  -5 1.90398 4.83863   1
   0  -9   5-1.32207 4.62175   1
   0   9  -5 10.2792 6.35422   2
   0  -9   4 38.6435 7.11088   2
   0   9  -4 41.9567 6.64695   1
   0  -9   4 42.4780 7.06018   1
   0   9  -4 28.3719 7.53918   2
   0  -9   3 32.5075 7.01994   1
   0  -9   3 29.7307 7.40907   2
   0   9  -3 30.7003 7.09846   2
   0   9  -3 20.1955 5.82427   1
   0  -9   2 115.283 11.1497   2
   0   9  -2 92.9007 9.81639   2
   0   9  -2 94.4753 9.10742   1
   0  -9   2 83.8716 9.27858   1
   0  -9   1 3.13227 5.70341   2
   0   9  -1 7.78519 6.01403   1
   0  -9   1-0.29984 5.47978   1
   0   9  -1-3.39771 7.07417   2
   0   9   0 8.36624 6.15645   2
   0  -9   0 11.8850 6.07561   2
   0  -9   0 11.6913 7.05994   1
   0   9   0 3.53262 5.32706   1
   0   9   1-6.03761 7.16354   2
   0  -9  -1 0.93568 6.52488   1
   0   9   1-1.67796 5.60169   1
   0  -9  -1-3.95587 7.16392   2
   0  -9  -2 17.6199 7.23874   2
   0  -9  -2 24.4388 8.69047   1
   0   9   2 19.1373 7.23782   2
   0   9   2 27.1159 8.92964   1
   0  -9  -3-7.08315 8.91463   1
   0  -9  -3-3.04272 7.50769   2
   0   9   3-13.4708 9.16946   1
   0   9   3-0.58518 9.15434   2
   0  -9  -4 8.40023 8.95948   2
   0   9   4-0.81006 9.53783   1
   0  -9  -4 1.93095 7.93120   1
   0  -9  -5 3.10755 8.42464   2
   0   9   5-2.58555 10.4004   1
   0  -9  -5-8.82015 10.1732   1
   0  -9  -6 42.9911 13.2677   1
   0   9   6 19.1833 12.3383   1
   0  -9  -6 9.99753 9.85034   2
   0 -10  13 14.0677 5.34820   1
   0 -10  13 20.2866 11.4045   2
   0  10 -13 20.0925 11.3758   2
   0 -10  13 16.5697 5.17723   1
   0 -10  12 14.4767 5.56665   1
   0  10 -12 12.9088 9.18107   2
   0 -10  12-2.19199 5.79901   1
   0 -10  11 33.1394 6.56820   1
   0  10 -11 14.3539 10.0903   2
   0 -10  11 12.4784 9.39751   2
   0  10 -11 20.4447 6.10193   1
   0 -10  10-14.0341 9.62253   2
   0  10 -10 0.78542 5.28229   1
   0  10 -10-15.5901 9.06372   2
   0 -10   9 45.4340 7.20371   1
   0  10  -9 50.9835 10.1402   2
   0  10  -9 38.1141 6.97701   1
   0 -10   9 29.5149 8.12263   2
   0 -10   8 3.58288 5.50848   1
   0  10  -8 4.47656 5.54335   1
   0 -10   8-6.20094 7.99502   2
   0  10  -8-3.36434 7.39385   2
   0  10  -7 12.3155 8.16571   2
   0 -10   7 8.20859 6.01893   1
   0 -10   7 5.80544 7.63074   2
   0  10  -7 10.1797 5.95701   1
   0 -10   6-6.67476 5.70943   1
   0  10  -6-0.37684 5.84985   1
   0 -10   6-10.6015 8.25506   2
   0  10  -6-4.37915 6.23215   2
   0 -10   5 25.4822 7.45032   1
   0 -10   5 9.07381 7.87195   2
   0  10  -5 4.27057 8.43040   2
   0  10  -5 9.15950 6.71440   1
   0  10  -4 144.256 12.6385   2
   0 -10   4 153.059 12.7437   2
   0 -10   4 152.141 12.0104   1
   0  10  -4 148.156 11.6933   1
   0 -10   3 32.0090 7.34939   1
   0 -10   3 38.8721 9.54303   2
   0  10  -3 20.9832 7.43609   1
   0  10  -3 37.2214 9.20532   2
   0  10  -2 38.6205 9.32321   2
   0 -10   2 35.9909 8.00589   1
   0 -10   2 33.0586 9.79864   2
   0  10  -2 54.8411 9.04658   1
   0 -10   1 9.61011 7.35738   1
   0  10  -1 0.55186 6.64941   1
   0  10  -1 5.69049 8.65045   2
   0 -10   1 19.7270 8.74987   2
   0 -10   0 1.09939 8.60723   1
   0 -10   0 7.72360 7.43546   2
   0  10   0 11.5598 7.61572   1
   0  10   0 13.6998 8.35496   2
   0  10   1 47.9530 10.2107   1
   0 -10  -1 62.1600 10.9469   1
   0 -10  -1 57.1675 11.9882   2
   0  10   1 48.4734 10.0254   2
   0 -10  -2-8.83996 8.99875   1
   0  10   2 19.0026 9.20923   2
   0  10   2-2.21615 8.58065   1
   0 -10  -2-7.70377 10.6589   2
   0  10   3-16.9080 10.7601   1
   0 -10  -3 5.56741 10.7059   1
   0 -10  -3-13.3139 10.7408   2
   0 -10  -4 25.0852 10.6750   2
   0 -11  11 15.0443 6.61563   1
   0  11 -11 5.18719 6.29162   1
   0  11 -11-12.8127 9.32574   2
   0 -11  11 10.0877 10.5727   2
   0 -11  10 13.7415 7.04222   1
   0  11 -10-3.45099 9.21000   2
   0 -11  10 21.7037 11.3867   2
   0  11 -10-3.40421 6.88753   1
   0  11  -9 21.2553 7.53945   1
   0 -11   9 42.1129 8.28400   1
   0 -11   9 13.2916 10.6240   2
   0  11  -9 7.80541 10.0971   2
   0  11  -8 36.2125 11.5914   2
   0 -11   8 33.7828 8.50270   1
   0  11  -8 38.4317 8.17599   1
   0 -11   8 8.95520 10.1405   2
   0  11  -7-1.68569 10.1044   2
   0  11  -7 10.6412 7.45488   1
   0 -11   7 18.3699 9.69232   2
   0 -11   7-5.93883 6.94100   1
   0  11  -6 35.1005 8.22279   1
   0 -11   6 21.7874 10.0620   2
   0 -11   6 24.4711 8.52524   1
   0  11  -6 50.5047 12.4422   2
   0  11  -5 47.2255 9.76166   1
   0 -11   5 63.3590 10.3630   1
   0 -11   5 33.0538 11.1846   2
   0  11  -5 49.4808 12.2863   2
   0  11  -4 32.3030 9.61780   2
   0  11  -4 8.99191 7.97086   1
   0 -11   4 18.6157 11.0937   2
   0 -11   4 7.45725 7.90953   1
   0 -11   3 20.7796 8.95973   1
   0  11  -3 17.1476 8.73941   1
   0 -11   3-16.0730 10.5539   2
   0  11  -3-5.18094 10.2837   2
   0 -11   2 57.1072 11.4246   1
   0  11  -2 74.2015 10.8201   1
   0 -11   2 67.4814 13.4301   2
   0  11  -2 67.5611 11.3414   2
   0 -11   1-15.8414 9.76556   2
   0 -11   1-11.2439 10.6571   1
   0  11  -1 3.26691 9.50608   1
   0  11  -1 0.51809 10.0675   2
   0 -11   0 24.0393 11.2684   1
   0  11   0-10.3928 9.53601   1
   0  11   0-14.4454 12.5059   2
   0 -11   0 17.7519 11.4308   2
   0  11   1 1.62802 11.3671   2
   0  11   1 32.1026 11.3828   1
   0 -11  -1-2.18283 10.8227   2
   0 -11  -1 8.91259 10.9367   1
   0 -12   5 22.3792 6.32433   1
   0  12  -5 30.7429 7.12297   1
  -1  11   1 11.1150 10.2319   1
   1 -11  -1-0.43517 9.55225   2
  -1  11   1-3.13938 10.8921   2
   1 -11  -1 5.59904 11.0821   1
   1 -11   0 3.06109 10.1312   2
   1 -11   0 16.0219 9.58280   1
  -1  11   0-3.00089 12.3183   2
  -1  11   0-1.38067 10.9899   1
  -1  11  -1 57.2302 13.0241   2
   1 -11   1 53.6298 10.8849   1
  -1  11  -1 76.0940 11.8752   1
   1 -11   2 3.03665 7.90261   1
  -1  11  -2 28.0530 10.7091   2
   1 -11   2 5.01870 9.44759   2
  -1  11  -2 19.3472 9.03748   1
  -1  11  -3 11.6130 9.14795   2
  -1  11  -3 2.68792 7.77631   1
   1 -11   3 10.2291 7.84780   1
   1 -11   3-0.66601 8.23190   2
  -1  11  -4 16.9404 10.4285   2
   1 -11   4-1.82647 8.01189   2
   1 -11   4 4.10977 7.50861   1
  -1  11  -4-7.84750 7.72306   1
   1 -11   5 8.14708 8.36312   2
   1 -11   5 10.4504 7.53685   1
  -1  11  -5 1.95471 7.30081   1
  -1  11  -5 28.3691 10.8282   2
  -1  11  -6 27.7558 11.7840   2
   1 -11   6 0.78491 6.81789   1
   1 -11   6 4.09604 9.92770   2
  -1  11  -6 16.9074 7.62918   1
  -1  11  -7-10.6829 6.93530   1
   1 -11   7-3.16865 6.42806   1
  -1  11  -8-2.45156 9.98128   2
   1 -11   8 7.74805 6.27746   1
   1 -11   8 5.41611 10.7176   2
  -1  11  -8-8.53477 6.47422   1
  -1  11  -9 14.9954 12.3866   2
   1 -11   9 1.04084 9.56733   2
  -1  11  -9 0.42417 6.36014   1
   1 -11   9 7.60043 6.04110   1
  -1  11 -10-11.8032 10.8534   2
  -1  11 -10 7.93449 6.10196   1
   1 -11  10 3.93173 11.6218   2
   1 -11  10-3.15211 6.17569   1
  -1  10   4 5.97996 11.9095   1
   1 -10  -4 21.4427 10.1885   2
   1 -10  -4 28.6209 12.2202   1
   1 -10  -3-11.4853 11.8324   2
  -1  10   3 2.71170 9.97426   2
   1 -10  -3-7.20891 11.2016   1
  -1  10   3 13.1181 9.32211   1
   1 -10  -2 44.3502 10.7186   1
  -1  10   2 69.5455 12.2348   1
  -1  10   2 67.3218 12.0768   2
  -1  10   1 42.0347 9.10606   1
   1 -10  -1 19.1373 9.60204   1
  -1  10   1 24.3801 9.85989   2
   1 -10   0 49.3592 9.54206   1
   1 -10   0 38.9248 8.90859   2
  -1  10   0 33.0780 9.51604   1
  -1  10   0 31.3033 9.33886   2
   1 -10   1 29.9846 9.13448   2
  -1  10  -1 40.6696 9.18194   2
   1 -10   1 44.4792 8.26415   1
  -1  10  -1 38.8346 8.39937   1
   1 -10   2-5.34338 8.46052   2
  -1  10  -2-5.06259 8.23258   2
   1 -10   2 3.10844 6.76993   1
  -1  10  -2-5.20252 7.03755   1
   1 -10   3 0.11643 6.23456   1
  -1  10  -3 19.2223 8.87686   2
   1 -10   3 5.13459 7.41725   2
  -1  10  -3 8.72640 6.37198   1
  -1  10  -4-10.9221 7.99641   2
   1 -10   4-4.40771 7.53888   2
  -1  10  -4 3.55946 5.51256   1
   1 -10   4 2.45085 5.72367   1
   1 -10   5 30.5863 8.74423   2
   1 -10   5 42.2787 7.26795   1
  -1  10  -5 42.1844 7.04068   1
  -1  10  -5 33.9129 8.31492   2
  -1  10  -6-5.56576 8.42787   2
   1 -10   6 8.22156 5.50262   1
   1 -10   6-2.79967 8.63958   2
  -1  10  -6 2.85214 5.44977   1
  -1  10  -7 25.2982 9.30905   2
  -1  10  -7 18.3449 5.70350   1
   1 -10   7 28.7988 8.58509   2
   1 -10   7 20.4052 5.72949   1
  -1  10  -8 70.7469 7.25800   1
  -1  10  -8 63.8362 11.1503   2
   1 -10   8 73.2639 10.2269   2
   1 -10   8 79.8849 7.46802   1
   1 -10   9 23.6486 8.13093   2
  -1  10  -9 24.2683 8.85279   2
  -1  10  -9 9.11198 5.03061   1
   1 -10   9 10.7899 4.87890   1
  -1  10 -10 0.08747 4.25703   1
   1 -10  10 4.01433 4.64853   1
  -1  10 -10 5.66866 9.67565   2
   1 -10  10-2.96247 7.51311   2
   1 -10  11 14.4683 3.65455   1
  -1  10 -11 11.0929 9.82586   2
   1 -10  11 31.0088 4.27013   1
   1 -10  11 12.8558 8.95866   2
  -1  10 -12 10.0403 10.4534   2
   1 -10  12 0.78371 9.66301   2
   1  -9  -6 20.7981 11.3993   2
  -1   9   6-1.08731 10.1588   1
   1  -9  -6 3.80345 11.9959   1
   1  -9  -5 8.83394 8.21338   2
   1  -9  -5 17.0450 9.38473   1
  -1   9   5 13.3105 9.45179   1
  -1   9   4 49.3410 10.7751   2
  -1   9   4 63.9930 10.6510   1
   1  -9  -4 64.4404 11.0352   1
   1  -9  -4 59.2365 11.0997   2
  -1   9   3 16.5633 8.28992   2
  -1   9   3-0.44466 8.07371   1
   1  -9  -3 3.32394 8.19783   2
   1  -9  -3-0.22154 7.82440   1
   1  -9  -2 22.6816 8.15579   2
   1  -9  -2 9.69103 7.28298   1
  -1   9   2 15.3044 8.12578   2
  -1   9   1 5.34103 7.03459   2
   1  -9  -1 8.40416 6.63529   2
   1  -9  -1 7.51322 7.00650   1
  -1   9   1 16.7869 6.49898   1
   1  -9   0 5.63705 6.04879   1
  -1   9   0 9.72981 6.90705   2
   1  -9   0-0.38064 5.63420   2
  -1   9   0-1.09165 5.38026   1
  -1   9  -1 82.2232 9.28430   1
   1  -9   1 72.7371 9.07231   2
  -1   9  -1 71.7750 8.97087   2
   1  -9   1 63.9589 8.12685   1
   1  -9   2 13.5648 6.81115   2
   1  -9   2 16.7629 6.20316   1
  -1   9  -2 14.4298 6.06582   1
  -1   9  -2 13.4688 6.74531   2
  -1   9  -3 0.43912 5.55463   2
  -1   9  -3 4.75851 4.75212   1
   1  -9   3 9.42391 5.96611   2
   1  -9   3 11.3218 5.20671   1
  -1   9  -4 31.8440 7.66040   2
   1  -9   4 45.1584 7.39616   2
   1  -9   4 39.0100 6.34886   1
  -1   9  -4 34.6085 6.07519   1
   1  -9   5 41.8466 7.20263   2
  -1   9  -5 36.7220 5.86678   1
   1  -9   5 35.0265 5.84821   1
  -1   9  -5 42.5019 8.29517   2
  -1   9  -6-0.25921 5.53387   2
   1  -9   6 9.02598 5.30701   2
   1  -9   6-1.41228 4.31703   1
  -1   9  -6 8.77952 4.34555   1
  -1   9  -7-9.45480 4.36243   1
   1  -9   7-2.44382 6.92548   2
   1  -9   7-5.25726 4.58849   1
  -1   9  -7 1.32449 6.50710   2
  -1   9  -8 69.3781 6.28169   1
  -1   9  -8 83.7925 10.3214   2
   1  -9   8 71.2360 6.29385   1
   1  -9   8 60.7371 9.63639   2
  -1   9  -9 42.2735 8.97349   2
  -1   9  -9 35.7709 4.85522   1
   1  -9   9 31.0607 8.67576   2
   1  -9   9 39.7716 4.75045   1
  -1   9 -10 29.5930 7.67813   2
   1  -9  10 31.5010 7.76570   2
  -1   9 -10 24.2876 3.90232   1
   1  -9  10 30.5669 4.06216   1
   1  -9  11 54.4111 10.7268   2
  -1   9 -11 56.1217 10.1840   2
   1  -9  11 54.3287 3.55422   1
  -1   9 -12 44.2072 11.1862   2
   1  -9  12 43.2264 10.9784   2
  -1   9 -13 8.43602 10.3409   2
  -1   9 -14 21.6523 7.27062   2
   1  -8  -8 9.97296 12.4825   1
   1  -8  -8 2.29829 10.1490   2
  -1   8   8 17.1113 12.7582   1
   1  -8  -7-10.5440 9.50044   1
  -1   8   7 15.6174 9.14238   1
   1  -8  -7 4.13424 9.03275   2
  -1   8   6 77.6918 11.9657   1
   1  -8  -6 89.8357 11.7713   2
   1  -8  -6 74.7960 12.1573   1
   1  -8  -5 31.3962 7.87345   2
   1  -8  -5 43.0635 8.63222   1
  -1   8   5 38.2477 9.92558   1
   1  -8  -4 14.2392 6.62697   2
   1  -8  -4-3.02035 6.83490   1
  -1   8   4 13.6469 7.39729   1
  -1   8   4 4.47058 6.40834   2
  -1   8   3 44.2135 7.95743   2
   1  -8  -3 25.2478 6.94512   2
  -1   8   3 16.3529 7.59713   1
   1  -8  -3 34.4988 8.32173   1
  -1   8   2 1.96766 6.18869   1
  -1   8   2-1.19576 4.82222   2
   1  -8  -2 0.05958 5.61143   1
   1  -8  -2 1.99308 5.25519   2
   1  -8  -1 157.085 11.1440   2
  -1   8   1 170.661 11.3517   1
  -1   8   1 149.800 11.1786   2
   1  -8  -1 161.350 11.1249   1
  -1   8   0-1.62042 5.07724   2
  -1   8   0 2.73074 4.53621   1
   1  -8   0 3.09072 4.57385   1
   1  -8   0 9.48621 5.34150   2
   1  -8   1 44.5198 6.90492   2
  -1   8  -1 44.9723 6.77583   1
  -1   8  -1 47.3921 6.89123   2
   1  -8   1 37.6853 6.26636   1
  -1   8  -2 100.291 8.18011   1
   1  -8   2 86.9754 8.52104   2
  -1   8  -2 104.904 9.45332   2
   1  -8   2 84.4863 7.78730   1
  -1   8  -3 496.079 15.6919   1
   1  -8   3 450.972 17.1341   2
   1  -8   3 449.170 15.0579   1
  -1   8  -3 476.034 17.6950   2
   1  -8   4-1.23476 5.47470   2
  -1   8  -4 0.75763 5.29107   2
  -1   8  -4 6.53763 3.92474   1
   1  -8   4 1.78446 3.67206   1
   1  -8   5 18.0245 4.18494   1
  -1   8  -5 19.1011 5.41371   2
   1  -8   5 26.9779 5.64681   2
  -1   8  -5 17.7604 4.23788   1
  -1   8  -6 252.277 13.5246   2
   1  -8   6 238.448 9.82426   1
   1  -8   6 230.572 13.0403   2
  -1   8  -6 231.696 9.68742   1
  -1   8  -7 4.35106 3.07476   1
   1  -8   7 4.94383 3.26779   1
   1  -8   7 9.03474 5.24302   2
  -1   8  -8 7.98519 3.10116   1
   1  -8   8 3.87088 2.91059   1
   1  -8   8 6.05782 6.18832   2
  -1   8  -8 1.62152 5.98711   2
   1  -8   9 2.02421 2.65480   1
  -1   8  -9 1.81250 4.99897   2
   1  -8   9-4.80520 6.86339   2
  -1   8  -9 1.95813 2.54890   1
   1  -8  10 55.6574 8.65635   2
   1  -8  10 46.8124 3.44826   1
   1  -8  10 45.4983 3.39548   1
  -1   8 -10 41.6864 8.46928   2
  -1   8 -11 3.81925 6.25413   2
   1  -8  11-0.82282 7.53669   2
  -1   8 -12 16.1734 8.84117   2
  -1   8 -13-11.6461 9.36467   2
  -1   8 -14-8.31048 11.6240   2
   1  -7  -9 7.43916 9.70812   2
  -1   7   9 4.96344 9.19265   1
  -1   7   8 43.8379 10.6361   1
   1  -7  -8 54.7240 10.3977   1
   1  -7  -8 46.9949 9.36150   2
   1  -7  -7 80.4510 9.86031   2
   1  -7  -7 59.1976 10.4791   1
  -1   7   6 48.1333 8.61470   1
   1  -7  -6 45.0531 8.29252   2
   1  -7  -6 42.9423 8.43224   1
   1  -7  -5 28.7672 6.80055   2
  -1   7   5 18.2347 6.27430   1
   1  -7  -5 29.3310 7.53431   1
  -1   7   4 4.35667 5.32878   2
   1  -7  -4 6.22876 5.70541   2
   1  -7  -4 0.41502 4.50651   1
  -1   7   4-1.49105 5.84481   1
  -1   7   3 5.24240 5.08329   1
   1  -7  -3 10.5022 5.48229   1
  -1   7   3 5.07375 5.12776   2
   1  -7  -3 12.3654 5.02456   2
   1  -7  -2 35.6838 6.64542   1
  -1   7   2 29.2486 6.02860   2
  -1   7   2 37.3917 6.05622   1
   1  -7  -2 40.3618 6.53886   2
   1  -7  -1 349.507 14.1748   2
  -1   7   1 333.257 13.9896   2
   1  -7  -1 343.820 14.1163   1
  -1   7   1 347.455 14.4165   1
   1  -7   0 17.9588 4.93259   2
   1  -7   0 31.1778 5.28241   1
  -1   7   0 29.5217 5.50558   1
  -1   7   0 29.7249 5.74033   2
   1  -7   1 73.1705 7.12820   2
  -1   7  -1 70.5990 7.35313   2
  -1   7  -1 77.3189 7.01052   1
   1  -7   1 68.5017 6.46373   1
  -1   7  -2-3.28893 3.69455   1
  -1   7  -2 1.39751 3.98422   2
   1  -7   2 0.13282 3.91637   2
   1  -7   2-5.46068 3.57904   1
   1  -7   3 0.73865 3.00490   1
  -1   7  -3-3.22882 4.40755   2
   1  -7   3-2.57412 4.23922   2
  -1   7  -3 4.58691 3.39495   1
  -1   7  -4 47.7639 6.47169   2
   1  -7   4 52.1148 5.14186   1
   1  -7   4 45.6638 6.36611   2
  -1   7  -4 53.3707 5.12412   1
  -1   7  -5 2.96569 4.35277   2
   1  -7   5-1.28500 3.82335   2
  -1   7  -5 4.79391 2.85731   1
   1  -7   5-0.22218 2.55468   1
   1  -7   6 161.284 7.19287   1
  -1   7  -6 170.662 7.30902   1
  -1   7  -6 159.409 10.3844   2
   1  -7   6 160.638 10.0588   2
   1  -7   7 9.58453 2.77303   1
  -1   7  -7 13.1794 2.91134   1
   1  -7   7 11.0823 4.40046   2
  -1   7  -7 11.0850 4.63207   2
  -1   7  -8 24.4067 3.05641   1
   1  -7   8 23.9533 3.08956   1
   1  -7   8 22.4584 5.25160   2
  -1   7  -8 28.2597 6.10029   2
   1  -7   9-1.27650 4.94711   2
   1  -7   9 8.18352 2.06112   1
   1  -7   9 4.24200 1.82402   1
  -1   7  -9 6.24068 5.23028   2
   1  -7  10 256.659 4.40433   1
  -1   7 -10 273.143 14.6133   2
   1  -7  10 260.050 14.4707   2
  -1   7 -11-8.90490 7.48159   2
  -1   7 -12 22.2534 7.82292   2
  -1   7 -13-0.50581 8.19551   2
  -1   7 -14 7.19880 9.17355   2
  -1   7 -15 1.16306 10.9584   2
  -1   6  11-0.71537 8.96644   1
   1  -6 -11-3.64714 9.45405   1
   1  -6 -11-7.14866 8.25959   2
   1  -6 -10 9.07478 10.2477   1
  -1   6  10-7.47357 9.65090   1
   1  -6 -10 1.86771 7.97207   2
   1  -6  -9 65.4327 9.59900   2
   1  -6  -9 72.9175 11.1346   1
  -1   6   9 87.8594 12.0463   1
  -1   6   8 38.5757 9.12320   1
   1  -6  -8 41.9195 8.53146   1
   1  -6  -8 44.7951 7.94802   2
   1  -6  -7 59.3354 9.07909   1
   1  -6  -7 67.9186 8.32927   2
  -1   6   7 59.0671 9.04190   1
   1  -6  -6-6.30497 4.80024   2
   1  -6  -6-2.10670 4.58388   1
  -1   6   6 0.97362 6.02945   1
  -1   6   5 8.68395 5.16052   1
   1  -6  -5 8.13224 5.39331   1
   1  -6  -5 6.93617 4.51452   2
  -1   6   4 96.9901 8.96097   1
   1  -6  -4 68.3132 7.30131   2
  -1   6   4 83.6680 7.57465   2
   1  -6  -4 78.9712 7.81530   1
  -1   6   3 3.48671 4.09810   1
  -1   6   3 8.35192 4.04547   2
   1  -6  -3 5.95150 4.62107   1
   1  -6  -3-0.20910 3.57369   2
   1  -6  -2 72.0536 6.72117   2
  -1   6   2 76.5817 6.96883   1
  -1   6   2 77.3312 6.77249   2
   1  -6  -2 72.2812 6.72538   1
  -1   6   1 113.180 7.82784   2
   1  -6  -1 115.065 8.01304   1
  -1   6   1 98.6732 7.65258   1
   1  -6  -1 118.366 7.83898   2
  -1   6   0 0.18919 3.48741   2
   1  -6   0 4.79180 3.51538   1
   1  -6   0 2.42764 3.39710   2
  -1   6   0 7.10326 3.31773   1
  -1   6  -1 395.619 12.5415   1
  -1   6  -1 398.493 13.5162   2
   1  -6   1 423.699 13.6939   2
   1  -6   1 402.126 12.5650   1
  -1   6  -2 15.5146 3.44955   1
  -1   6  -2 10.0016 3.55267   2
   1  -6   2 13.2254 3.36564   1
   1  -6   2 12.0482 3.98141   2
   1  -6   3 28.4247 3.82685   1
  -1   6  -3 33.4568 4.02194   1
  -1   6  -3 34.3256 4.87472   2
   1  -6   3 27.6158 4.78900   2
   1  -6   4 4.72795 3.45401   2
   1  -6   4 4.19301 2.50270   1
  -1   6  -4 5.78171 3.65419   2
  -1   6  -4 9.86293 2.70181   1
   1  -6   5 126.229 5.90462   1
   1  -6   5 116.980 7.80635   2
  -1   6  -5 112.877 5.46820   1
  -1   6  -5 125.707 8.42808   2
   1  -6   6 295.672 8.07522   1
   1  -6   6 270.423 11.9538   2
  -1   6  -6 283.701 7.78217   1
  -1   6  -6 301.688 12.4433   2
  -1   6  -7 69.2636 3.76168   1
   1  -6   7 75.5688 3.94523   1
   1  -6   7 77.4242 7.13131   2
  -1   6  -7 72.4313 7.35613   2
  -1   6  -8 28.8371 5.86466   2
   1  -6   8 38.8469 2.59325   1
   1  -6   8 31.7102 6.00873   2
   1  -6   9 29.5025 6.26686   2
   1  -6   9 29.1316 1.55103   1
  -1   6  -9 33.6747 5.83989   2
   1  -6   9 29.1357 1.52464   1
  -1   6 -10 14.6671 5.13661   2
  -1   6 -11-4.90520 6.05177   2
  -1   6 -12 4.86712 7.14333   2
  -1   6 -13 65.0492 9.22855   2
  -1   6 -14 56.3525 11.0026   2
  -1   6 -15 17.5028 9.36639   2
   1  -5 -12 29.7652 10.4534   1
  -1   5  12 23.4874 11.6346   1
   1  -5 -12 14.6967 9.25526   2
  -1   5  11-12.3655 8.76521   1
   1  -5 -11 1.97199 8.10376   1
   1  -5 -11 8.42585 7.83585   2
   1  -5 -10 79.1605 11.3937   1
  -1   5  10 83.9397 11.3979   1
   1  -5 -10 87.2940 10.2020   2
   1  -5  -9 38.0764 7.03068   2
   1  -5  -9 34.9921 8.63731   1
  -1   5   9 47.0172 8.18411   1
  -1   5   8 24.6500 7.33307   1
   1  -5  -8 19.2092 5.74689   2
   1  -5  -8 27.2724 6.79261   1
   1  -5  -7 21.4816 6.47238   1
   1  -5  -7 21.3262 5.29766   2
  -1   5   6 10.3442 5.10204   1
   1  -5  -6 9.71970 4.29420   2
   1  -5  -6 10.4170 5.29827   1
   1  -5  -5 10.1518 4.33319   1
   1  -5  -5 18.8641 4.74246   2
  -1   5   5 8.77308 4.75737   1
  -1   5   4 59.6493 6.64523   1
   1  -5  -4 53.4399 6.38448   1
  -1   5   4 57.9035 5.89435   2
   1  -5  -4 56.8754 5.86562   2
   1  -5  -3 0.98599 2.93253   1
  -1   5   3 3.01254 3.67622   1
  -1   5   3-1.54804 2.95281   2
   1  -5  -3-0.58098 3.20352   2
   1  -5  -2 109.735 7.44015   1
  -1   5   2 119.852 7.13747   2
   1  -5  -2 121.158 7.28356   2
  -1   5   2 127.132 7.96201   1
  -1   5   1 133.953 7.38403   2
  -1   5   1 117.737 7.11781   1
   1  -5  -1 118.239 7.12084   1
   1  -5  -1 117.940 7.06962   2
  -1   5   0 17.5400 3.68489   1
   1  -5   0 18.8900 3.74142   2
  -1   5   0 22.9493 4.04390   2
   1  -5   0 17.6589 3.50639   1
  -1   5  -1 12.0394 3.10056   1
  -1   5  -1 16.8924 3.77513   2
   1  -5   1 20.0876 3.41482   1
   1  -5   1 20.0866 3.58291   2
  -1   5  -2 17.6291 3.03101   1
   1  -5   2 25.1096 3.86100   2
   1  -5   2 25.0076 3.28139   1
  -1   5  -2 23.9045 3.60325   2
  -1   5  -3 191.156 8.54887   2
   1  -5   3 180.596 8.54348   2
  -1   5  -3 189.161 6.84442   1
   1  -5   3 202.287 7.08179   1
  -1   5  -4 122.337 7.22151   2
  -1   5  -4 116.756 4.99843   1
   1  -5   4 113.510 7.06843   2
   1  -5   4 117.619 5.12932   1
  -1   5  -5 113.235 7.34797   2
   1  -5   5 97.2321 4.29401   1
   1  -5   5 103.110 6.99971   2
  -1   5  -5 104.331 4.33952   1
   1  -5   6 15.2205 3.73739   2
  -1   5  -6 16.4067 4.33099   2
   1  -5   6 11.6330 1.80293   1
  -1   5  -6 11.7159 1.72812   1
   1  -5   7-0.94281 3.48184   2
   1  -5   7 3.60118 1.09528   1
  -1   5  -7-1.75926 3.58793   2
   1  -5   8 288.808 12.4191   2
  -1   5  -8 295.137 12.5001   2
  -1   5  -9 4.92988 3.93403   2
  -1   5 -10 47.9992 7.22149   2
  -1   5 -11 181.688 11.8921   2
  -1   5 -12 36.9614 7.51223   2
  -1   5 -13 130.300 12.2267   2
  -1   5 -14 8.48165 8.22099   2
  -1   5 -15 2.91425 8.21049   2
  -1   5 -16 8.50127 9.80254   2
  -1   4  13-16.2613 11.0682   1
   1  -4 -13 2.65207 10.0113   1
   1  -4 -13-16.8379 8.87942   2
   1  -4 -12 8.40576 9.39156   1
   1  -4 -12 14.2488 7.82674   2
  -1   4  12 7.00494 8.65858   1
   1  -4 -11-7.84607 7.39831   1
   1  -4 -11-9.00845 7.01728   2
  -1   4  11 6.95915 7.63604   1
  -1   4  10 7.69528 6.93907   1
   1  -4 -10 12.0953 6.21492   1
   1  -4 -10 9.35411 5.76843   2
   1  -4  -9 19.3228 6.16778   1
   1  -4  -9 11.4940 5.23626   2
  -1   4   9 24.1392 6.44335   1
  -1   4   8 80.0766 8.86494   1
   1  -4  -8 83.3762 7.47304   2
   1  -4  -8 66.7606 8.04162   1
  -1   4   7 10.4491 4.93092   1
   1  -4  -7 7.86624 4.05049   2
   1  -4  -7 15.2592 4.72821   1
   1  -4  -6 24.2177 5.34088   1
   1  -4  -6 30.3040 4.72339   2
  -1   4   6 27.6142 5.53436   1
   1  -4  -5 125.665 8.25370   1
  -1   4   5 129.343 8.52183   1
   1  -4  -5 140.840 7.73015   2
   1  -4  -4 7.73071 3.00052   2
   1  -4  -4 2.73073 3.40571   1
  -1   4   4 2.47883 2.74663   2
  -1   4   4 2.62264 3.49675   1
  -1   4   3 619.825 15.6512   1
  -1   4   3 624.093 14.0099   2
   1  -4  -3 623.608 15.5098   1
  -1   4   2 223.323 9.13709   1
   1  -4  -2 232.801 8.47124   2
  -1   4   2 237.971 8.53382   2
   1  -4  -2 232.239 9.21798   1
  -1   4   1 107.455 5.89628   2
  -1   4   1 114.577 6.20865   1
   1  -4  -1 100.933 5.65583   2
   1  -4  -1 104.363 5.90190   1
  -1   4   0 81.8671 5.10984   1
  -1   4   0 86.5736 5.23810   2
   1  -4   0 74.7444 4.88958   1
   1  -4   0 77.5645 5.05935   2
   1  -4   1 118.423 5.95718   2
  -1   4  -1 119.504 5.59355   1
  -1   4  -1 116.075 5.96781   2
   1  -4   1 119.438 5.46967   1
   1  -4   2 199.811 6.36159   1
  -1   4  -2 217.812 6.66980   1
  -1   4  -2 195.031 7.62125   2
   1  -4   2 192.523 7.69005   2
  -1   4  -3 148.753 7.03475   2
   1  -4   3 148.294 6.97151   2
  -1   4  -3 145.288 4.99500   1
   1  -4   3 150.881 5.06127   1
   1  -4   4 56.1493 4.75866   2
   1  -4   4 59.9832 2.97338   1
  -1   4  -4 60.1902 2.91809   1
  -1   4  -4 55.9384 4.86800   2
  -1   4  -5 43.1944 4.84107   2
  -1   4  -5 40.4627 2.04312   1
   1  -4   5 43.0210 4.58135   2
   1  -4   5 43.2457 2.12885   1
   1  -4   6 191.834 8.89961   2
  -1   4  -6 195.334 9.09940   2
   1  -4   6 187.099 3.02698   1
   1  -4   6 177.899 2.92212   1
   1  -4   7 12.7581 3.36890   2
  -1   4  -7 12.8995 3.83025   2
  -1   4  -8 107.804 7.51321   2
  -1   4  -9 16.1695 4.74998   2
  -1   4 -10 24.3887 5.69442   2
  -1   4 -11 58.7271 7.33041   2
  -1   4 -12-2.31694 5.78279   2
  -1   4 -13-2.29003 5.38227   2
  -1   4 -14 12.6513 8.51049   2
  -1   4 -15 2.80339 8.76621   2
  -1   4 -16 7.78488 10.1580   2
   1  -3 -14-5.06304 8.26455   1
  -1   3  14-7.33310 8.68919   1
   1  -3 -14 12.7825 7.02081   2
   1  -3 -13 2.63433 7.25699   2
  -1   3  13 13.3346 8.06190   1
   1  -3 -13 3.19610 8.86744   1
   1  -3 -12 33.0649 8.85443   1
   1  -3 -12 10.2172 6.27182   2
  -1   3  12 16.4667 8.18852   1
   1  -3 -11 5.19950 5.46434   2
  -1   3  11 13.1661 7.52337   1
   1  -3 -11 7.17018 5.98126   1
   1  -3 -10 9.57916 5.66328   1
   1  -3 -10 1.00958 4.50865   2
  -1   3  10 7.15358 6.21402   1
   1  -3  -9 70.0574 7.97240   1
  -1   3   9 74.7926 8.30932   1
   1  -3  -9 73.6487 6.90227   2
   1  -3  -8 11.0185 3.85794   2
  -1   3   8 11.5757 4.78059   1
   1  -3  -8 18.1721 5.10231   1
   1  -3  -7 9.12434 4.12224   1
   1  -3  -7 1.41932 3.02331   2
  -1   3   7 8.63921 4.06780   1
   1  -3  -6 15.9848 4.20302   1
   1  -3  -6 14.3881 3.42010   2
  -1   3   6 8.88041 3.64243   1
   1  -3  -5 279.647 10.7965   1
  -1   3   5 267.253 10.7165   1
   1  -3  -5 273.196 9.17356   2
  -1   3   4 204.617 8.74858   1
  -1   3   4 214.332 7.60864   2
   1  -3  -4 223.957 7.88671   2
   1  -3  -4 231.282 9.40255   1
   1  -3  -3 97.2555 5.14962   2
  -1   3   3 102.320 6.20201   1
   1  -3  -3 103.337 6.15632   1
  -1   3   3 108.945 5.31803   2
  -1   3   2 45.2640 4.07180   1
   1  -3  -2 40.7098 3.94992   1
  -1   3   2 47.0450 3.57925   2
   1  -3  -2 43.8013 3.52994   2
  -1   3   1 123.234 5.31317   2
   1  -3  -1 112.871 5.09803   2
   1  -3  -1 110.236 5.36948   1
  -1   3   1 113.869 5.39254   1
  -1   3   0 122.284 5.19670   1
   1  -3   0 121.627 5.17742   2
  -1   3   0 116.575 5.14212   2
   1  -3   0 111.713 4.96014   1
   1  -3   1 325.070 8.35441   2
  -1   3  -1 329.013 8.39582   2
  -1   3  -1 333.359 7.43806   1
   1  -3   1 327.167 7.31705   1
  -1   3  -2 2411.71 23.0194   2
   1  -3   2 2447.02 23.0926   2
  -1   3  -2 2297.18 16.9665   1
   1  -3   2 2391.46 17.1124   1
  -1   3  -3 48.6751 2.25737   1
   1  -3   3 47.0263 2.21131   1
  -1   3  -3 47.8781 4.05832   2
   1  -3   3 44.0646 3.88403   2
  -1   3  -4 103.939 5.61914   2
  -1   3  -4 107.988 2.25512   1
   1  -3   4 102.991 5.72727   2
   1  -3   4 109.586 2.29250   1
   1  -3   5 28.7074 3.84557   2
  -1   3  -5 31.1217 3.88750   2
  -1   3  -6 52.0546 4.68240   2
  -1   3  -7 41.9657 4.98055   2
  -1   3  -8 73.7013 6.36261   2
  -1   3  -9 108.036 8.00958   2
   1  -3   9 101.852 2.86098   1
   1  -3   9 103.214 2.86978   1
  -1   3 -10 13.3092 4.43272   2
   1  -3  10 6.90175 1.38234   1
   1  -3  10 7.93245 1.37241   1
   1  -3  11 140.102 4.54452   1
   1  -3  11 154.375 4.77855   1
  -1   3 -11 156.153 10.5369   2
   1  -3  12 4.56173 1.90761   1
  -1   3 -12 9.88545 5.80921   2
   1  -3  13 1.19661 2.00181   1
   1  -3  13 2.07057 2.18159   1
  -1   3 -13 2.38518 6.67896   2
   1  -3  14 1.59198 2.42108   1
   1  -3  14 0.80168 2.43794   1
  -1   3 -14 8.52851 7.56582   2
  -1   3 -15 136.058 14.0290   2
   1  -3  15 142.852 5.61297   1
   1  -3  15 148.205 5.80554   1
   1  -3  16 6.96114 2.13655   1
  -1   3 -16 25.4668 9.75845   2
   1  -2 -14 19.9353 9.06279   1
   1  -2 -14 37.8667 8.63871   2
  -1   2  14 16.3566 8.74022   1
   1  -2 -13 16.2358 6.70554   2
   1  -2 -13 18.3306 8.55111   1
  -1   2  13 20.9258 8.62464   1
   1  -2 -12 2.85986 5.77210   1
   1  -2 -12-1.58681 5.15749   2
  -1   2  12-0.55169 6.07214   1
   1  -2 -11 24.4158 6.77915   1
   1  -2 -11 24.0629 5.35976   2
  -1   2  11 33.5753 6.94976   1
  -1   2  10 45.9610 6.65790   1
   1  -2 -10 42.8320 6.43235   1
   1  -2 -10 48.9861 6.00432   2
  -1   2   9 225.205 11.5903   1
   1  -2  -9 217.478 11.4439   1
   1  -2  -9 226.564 9.96244   2
  -1   2   8 16.8738 4.50765   1
   1  -2  -8 16.3486 4.54029   1
   1  -2  -8 9.76693 3.34068   2
   1  -2  -7 61.2281 5.86604   1
  -1   2   7 71.5154 6.10508   1
   1  -2  -7 62.4693 4.94739   2
  -1   2   6 58.8172 5.25876   1
   1  -2  -6 62.3981 4.48975   2
   1  -2  -6 62.3877 5.41711   1
   1  -2  -5 838.990 16.8489   1
   1  -2  -5 837.218 13.6634   2
  -1   2   5 845.249 16.8019   1
   1  -2  -4 125.440 6.52704   1
   1  -2  -4 128.410 5.17654   2
  -1   2   4 124.639 6.43931   1
   1  -2  -3 214.518 6.05636   2
  -1   2   3 211.391 5.93083   2
   1  -2  -3 211.068 7.53206   1
  -1   2   3 215.375 7.48109   1
  -1   2   2 2592.02 18.9627   2
   1  -2  -2 2551.05 18.9753   2
   1  -2  -2 2579.98 23.4438   1
  -1   2   2 2491.73 22.8916   1
   1  -2  -1 1097.20 13.8798   1
   1  -2  -1 1099.82 12.0016   2
  -1   2   1 1080.78 12.0064   2
  -1   2   1 1062.23 13.6356   1
  -1   2   0 892.673 11.0140   2
   1  -2   0 844.815 10.8489   1
   1  -2   0 821.448 10.6159   2
  -1   2   0 900.400 11.1395   1
  -1   2  -1 512.496 7.20872   1
  -1   2  -1 502.255 8.87754   2
   1  -2   1 473.992 7.01309   1
   1  -2   1 489.686 8.64326   2
   1  -2   2 1268.29 8.91084   1
   1  -2   2 1226.39 14.6282   2
  -1   2  -2 1234.90 14.6623   2
  -1   2  -2 1250.94 8.87950   1
   1  -2   3 821.788 13.0907   2
  -1   2  -3 853.788 13.2313   2
  -1   2  -4 719.839 13.2007   2
  -1   2  -5 4.62851 2.62198   2
   1  -2   6 7.51876 0.79150   1
   1  -2   6 6.33650 0.75920   1
  -1   2  -6 9.24283 3.11282   2
   1  -2   7 22.1974 1.65342   1
  -1   2  -7 22.2028 4.06544   2
  -1   2  -8 326.401 12.0177   2
   1  -2   8 320.259 6.44991   1
  -1   2  -8 315.369 6.36815   1
   1  -2   9 3.54582 1.83002   1
  -1   2  -9 2.54744 3.87711   2
  -1   2  -9 0.88667 1.56948   1
  -1   2 -10 17.2267 2.58875   1
   1  -2  10 17.8163 2.73432   1
  -1   2 -10 21.2383 4.77625   2
   1  -2  11 20.2400 3.12630   1
  -1   2 -11 19.4387 5.74020   2
  -1   2 -12 116.889 10.0287   2
   1  -2  12 96.5833 5.68991   1
   1  -2  13 19.5975 3.81141   1
   1  -2  13 14.2470 3.72610   1
  -1   2 -13 14.8897 6.95384   2
   1  -2  14 0.89133 3.91487   1
  -1   2 -14-7.45819 8.50617   2
   1  -2  14 4.42631 3.93469   1
   1  -2  15 14.2257 4.44144   1
  -1   2 -15 29.2407 9.72229   2
   1  -2  15 16.1438 4.52548   1
   1  -1 -15-2.16424 7.74330   2
   1  -1 -15 16.7525 8.64818   2
   1  -1 -15 10.3499 9.43034   1
  -1   1  15 24.6414 9.84165   1
   1  -1 -14 35.4665 8.13044   2
  -1   1  14 45.9449 9.75428   1
   1  -1 -14 54.6696 8.61501   2
   1  -1 -14 39.9918 9.54335   1
   1  -1 -13-3.81576 6.48547   1
  -1   1  13-2.02640 6.89752   1
   1  -1 -13-0.57514 5.46033   2
   1  -1 -13-4.26778 6.01930   2
   1  -1 -12 15.2196 5.45744   2
  -1   1  12 17.0154 6.13322   1
   1  -1 -12 23.5039 6.46982   1
   1  -1 -11 24.3727 5.03883   2
   1  -1 -11 21.4894 5.77467   1
  -1   1  11 22.7400 5.94762   1
   1  -1 -10 7.16045 3.59578   2
  -1   1  10 12.2771 4.83134   1
   1  -1 -10 0.93652 3.82630   1
   1  -1  -9 23.2093 3.96443   2
   1  -1  -9 21.6867 4.46832   1
  -1   1   9 26.5376 4.89257   1
   1  -1  -8 38.4682 4.17255   2
   1  -1  -8 31.2959 4.71165   1
  -1   1   8 34.3919 4.83126   1
   1  -1  -7 302.283 8.84060   2
   1  -1  -7 312.578 11.0495   1
  -1   1   7 297.021 10.7249   1
   1  -1  -6 5.55382 2.75661   1
  -1   1   6 7.89660 2.90678   1
   1  -1  -6 6.99259 2.08112   2
   1  -1  -5 201.018 5.89108   2
   1  -1  -5 204.914 7.85266   1
  -1   1   5 202.712 7.82813   1
   1  -1  -4 176.657 4.85829   2
   1  -1  -4 177.992 6.81647   1
  -1   1   4 166.433 6.62495   1
  -1   1   3 229.797 6.97121   1
   1  -1  -3 223.222 4.64858   2
   1  -1  -3 225.009 6.89413   1
   1  -1  -2 1125.63 8.88405   2
   1  -1  -2 1090.74 13.5115   1
  -1   1   2 1085.57 13.4775   1
  -1   1   2 1121.81 8.80485   2
  -1   1   1 1905.09 15.7454   1
  -1   1   1 1865.67 11.0934   2
   1  -1  -1 1828.87 11.0055   2
   1  -1  -1 1886.37 15.7529   1
  -1   1   0 4.34319 1.24608   1
   1  -1   0 2.60841 1.23537   1
   1  -1   0 5.11102 1.20353   2
  -1   1   0 2.52673 1.06913   2
  -1   1  -1 116.389 2.88325   1
  -1   1  -1 115.913 2.85051   1
   1  -1   1 117.590 3.84659   2
  -1   1  -1 116.438 3.86084   2
  -1   1  -2 78.4565 1.89387   1
  -1   1  -2 81.0471 3.81456   2
  -1   1  -3 1.63700 1.57607   2
  -1   1  -3 0.36426 0.51891   1
   1  -1   3 0.49186 0.50346   1
   1  -1   4 12.0329 1.08680   1
  -1   1  -4 11.7862 1.07973   1
   1  -1   5 743.838 8.40745   1
  -1   1  -5 782.754 8.52945   1
   1  -1   6 436.827 7.59197   1
  -1   1  -6 436.596 7.52599   1
   1  -1   7 147.999 5.17158   1
  -1   1  -7 146.523 5.03882   1
   1  -1   8 3.53422 2.01203   1
  -1   1  -8 5.18649 2.01847   1
  -1   1  -9 102.975 7.83230   2
   1  -1   9 114.541 5.67631   1
  -1   1  -9 103.511 5.29961   1
   1  -1  10-0.59839 2.56026   1
  -1   1 -10-2.70944 2.45045   1
  -1   1 -11 42.3882 6.92355   2
   1  -1  11 40.8403 4.49535   1
  -1   1 -11 38.8773 4.41210   1
   1  -1  12 7.25144 3.46531   1
  -1   1 -12 3.46570 3.44001   1
  -1   1 -12 14.5660 6.29964   2
  -1   1 -13 135.537 8.23084   1
  -1   1 -13 121.505 11.3461   2
   1  -1  13 125.234 8.00405   1
  -1   1 -14 1.46082 7.81214   2
   1  -1  14 1.04994 4.83500   1
  -1   1 -14 0.61808 4.87241   1
   1  -1  15 34.6194 6.96420   1
  -1   1 -15 45.9062 7.20544   1
  -1   1 -15 45.4170 11.3848   2
   1   0 -15-10.2759 7.82623   2
   1   0 -15-0.66129 7.29123   2
  -1   0  15-9.10197 8.53918   1
   1   0 -15-7.93162 8.30238   1
   1   0 -14 7.95624 6.44494   2
   1   0 -14-2.94338 6.66127   1
   1   0 -14 9.53477 6.25091   2
  -1   0  14 3.56007 6.69632   1
   1   0 -13 44.1894 7.73046   1
  -1   0  13 33.3343 7.04033   1
   1   0 -13 28.9915 6.08887   2
  -1   0  12 43.9822 6.59524   1
   1   0 -12 42.5710 6.87475   1
   1   0 -12 50.2088 6.34113   2
  -1   0  11 440.310 15.3266   1
   1   0 -11 439.879 15.4686   1
   1   0 -11 424.350 13.5937   2
   1   0 -10 19.1281 4.02144   2
   1   0 -10 21.7589 4.59745   1
  -1   0  10 30.0604 4.99802   1
   1   0  -9 2.52401 3.30223   1
  -1   0   9 2.03087 3.04452   1
  -1   0   8 77.7928 5.82645   1
   1   0  -8 85.3936 6.29086   1
   1   0  -7 4.34814 2.63356   1
  -1   0   7 0.57636 2.19798   1
   1   0  -6 97.1755 5.68766   1
  -1   0   6 87.3459 5.41113   1
   1   0  -5 25.5940 3.15296   1
  -1   0   5 23.1603 3.14535   1
  -1   0   4 597.394 11.1473   1
   1   0  -4 617.628 11.3602   1
  -1   0   3 717.269 11.1673   1
   1   0  -3 696.314 11.0839   1
   1   0  -2 105.456 4.18329   1
  -1   0   2 101.526 4.05251   1
  -1   0   1 37.0623 2.34568   1
  -1   0   1 36.6214 2.25682   1
  -1   0   0 1532.37 12.0151   1
   1   0   0 1559.92 12.1014   1
  -1   0  -1 2.41153 1.05685   1
   1   0   1 2.53717 1.08887   1
  -1   0  -2 309.333 5.40327   1
   1   0   2 316.641 5.42985   1
  -1   0  -3 7.27587 1.47305   1
   1   0   3 7.05245 1.34483   1
  -1   0  -4 670.583 9.61904   1
   1   0   4 668.521 9.60736   1
   1   0   5 17.6442 2.34735   1
  -1   0  -5 18.5330 2.26323   1
   1   0   6 25.1980 2.91693   1
  -1   0  -6 20.4126 2.55501   1
   1   0   7 108.939 5.44522   1
  -1   0  -7 114.436 5.47547   1
  -1   0  -8 8.41190 2.61981   1
   1   0   8 8.48473 2.81422   1
   1   0   9 11.7716 3.26024   1
  -1   0  -9 10.6836 3.12401   1
  -1   0 -10 81.6989 6.14726   1
   1   0  10 81.7746 6.13407   1
   1   0  11 28.8776 4.90620   1
  -1   0 -11 20.7511 4.50736   1
   1   0  12 113.757 8.20707   1
  -1   0 -12 107.522 7.81628   1
  -1   0 -13 91.0458 8.00292   1
   1   0  13 97.4338 8.25064   1
  -1   0 -13 99.1775 10.6514   2
  -1   0 -14-8.38990 5.99629   1
   1   0  14-0.17983 5.55158   1
  -1   0 -14-17.6347 8.66363   2
   1   0  15 16.2556 7.07365   1
  -1   0 -15 28.4584 10.9669   2
  -1   0 -15 15.3263 7.34801   1
  -1  -1  16 5.14835 8.39779   1
   1   1 -16 0.34846 7.95484   2
  -1  -1  16 0.49655 8.26333   1
  -1  -1  15 7.99940 7.14074   1
  -1  -1  15 3.31832 6.68956   1
   1   1 -15-3.86705 6.36275   2
  -1  -1  14 48.1040 7.47501   1
   1   1 -14 43.4551 7.10701   2
   1   1 -13 12.1647 5.20041   2
  -1  -1  13 4.47475 4.93871   1
   1   1 -13 13.0091 5.63739   1
   1   1 -12 71.4043 7.38645   1
   1   1 -12 67.1676 6.59796   2
  -1  -1  12 70.5680 7.26754   1
   1   1 -11 37.0823 5.07941   2
   1   1 -11 37.8926 5.57480   1
  -1  -1  11 37.1656 5.51981   1
   1   1 -10 51.5781 5.06728   2
   1   1 -10 55.0499 5.80310   1
  -1  -1  10 54.8745 5.64210   1
   1   1  -9 2.06327 2.54137   2
  -1  -1   9-2.63983 2.80620   1
   1   1  -9 6.38538 3.13785   1
   1   1  -8 20.5139 3.57611   1
   1   1  -8 18.3934 2.93877   2
  -1  -1   8 16.8822 3.35082   1
   1   1  -7 32.8809 3.05775   2
   1   1  -7 30.2105 3.65106   1
  -1  -1   7 29.5037 3.68943   1
   1   1  -6 154.042 5.16017   2
  -1  -1   6 147.666 6.33681   1
   1   1  -6 145.366 6.42878   1
   1   1  -5 653.591 9.03815   2
  -1  -1   5 629.924 11.8784   1
   1   1  -4 3747.18 18.6343   2
  -1  -1   4 3809.41 26.5843   1
  -1  -1   4 3788.78 26.8513   1
   1   1  -3 3931.52 16.3911   2
  -1  -1   3 3985.76 25.7365   1
  -1  -1   3 3940.17 16.2323   2
  -1  -1   3 3915.80 25.2577   1
  -1  -1   2 2.14976 1.68219   1
   1   1  -2 3.34503 1.68698   1
  -1  -1   2 1.54236 0.86684   2
   1   1  -2 0.84709 0.84543   2
  -1  -1   1 4.15239 1.21917   2
   1   1  -1 4.41835 1.16843   2
   1   1  -1 5.45364 1.72247   1
  -1  -1   1 5.45177 1.54733   1
  -1  -1   0 52.5989 2.79423   2
   1   1   0 50.0317 2.93201   1
  -1  -1   0 51.9212 2.91351   1
  -1  -1  -1 266.084 6.22193   1
   1   1   1 262.515 6.08889   1
  -1  -1  -2 414.533 8.12845   1
   1   1   2 406.426 8.03295   1
   1   1   3 27.6449 2.76033   1
  -1  -1  -3 30.5040 2.86722   1
  -1  -1  -4 521.035 10.5650   1
   1   1   4 519.284 10.5246   1
   1   1   5 30.9689 3.35903   1
  -1  -1  -5 37.6804 3.51195   1
   1   1   6 136.371 6.52153   1
  -1  -1  -6 138.245 6.43156   1
   1   1   7 8.29305 2.97764   1
  -1  -1  -7 12.3950 3.03309   1
   1   1   8 150.441 7.78460   1
  -1  -1  -8 137.324 7.35245   1
  -1  -1  -9 55.0363 5.59202   1
   1   1   9 51.7611 5.57438   1
   1   1  10 74.2743 6.80257   1
  -1  -1 -10 64.9086 6.30705   1
   1   1  11 16.5860 5.23492   1
  -1  -1 -11 22.4662 5.02841   1
   1   1  12 7.43099 5.39351   1
  -1  -1 -12 11.2076 5.09788   1
  -1  -1 -13 28.7413 6.98087   1
   1   1  13 20.4736 6.78756   1
  -1  -1 -14-0.32204 6.97216   1
  -1  -1 -14 5.06686 9.25650   2
   1   1  14-2.37029 7.33469   1
  -1  -2  16 1.44802 7.58934   1
   1   2 -16 11.8577 8.19823   2
  -1  -2  16-0.44726 7.42022   1
  -1  -2  15 9.95397 6.50640   1
   1   2 -15 2.54626 6.51245   2
  -1  -2  15-0.82667 6.02113   1
  -1  -2  14 10.7007 5.32165   1
   1   2 -14 4.23624 5.35284   2
  -1  -2  14 9.67610 5.58166   1
   1   2 -13 3.26096 4.44604   2
  -1  -2  13-1.77539 4.53071   1
  -1  -2  13-1.17231 4.61753   1
  -1  -2  12-2.68113 3.68017   1
  -1  -2  12 5.18565 3.90949   1
   1   2 -12 2.26679 3.88470   2
  -1  -2  11 1.07168 3.30504   1
   1   2 -11 1.50527 3.43140   2
  -1  -2  11 0.57325 3.35962   1
  -1  -2  10 15.3114 3.74484   1
   1   2 -10 15.0081 3.58344   2
  -1  -2  10 18.2103 3.93937   1
   1   2  -9-2.70498 2.50991   2
  -1  -2   9 2.34739 2.77554   1
  -1  -2   8 0.39162 2.31859   1
   1   2  -8 1.86575 2.20041   2
  -1  -2   8 1.14222 2.32327   1
   1   2  -7 68.3818 4.24065   2
  -1  -2   7 70.3135 4.86363   1
  -1  -2   7 63.2490 4.64448   1
  -1  -2   6 139.823 5.25747   2
   1   2  -6 138.283 5.32350   2
  -1  -2   6 129.837 5.91232   1
  -1  -2   6 145.156 6.18525   1
   1   2  -5 93.2870 4.10154   2
  -1  -2   5 90.9173 4.76364   1
  -1  -2   5 90.1545 4.81868   1
  -1  -2   5 93.3253 4.07242   2
  -1  -2   4 154.008 5.68049   1
   1   2  -4 145.345 5.51518   1
   1   2  -4 159.637 4.88360   2
  -1  -2   4 144.004 4.60527   2
  -1  -2   3 164.094 4.78342   2
   1   2  -3 163.511 5.63675   1
   1   2  -3 163.953 4.83890   2
  -1  -2   3 156.127 5.56748   1
   1   2  -2 9.84112 1.77516   2
   1   2  -2 10.9351 2.19862   1
  -1  -2   2 14.0236 2.01943   1
  -1  -2   2 9.00224 1.72438   2
   1   2  -1 363.368 7.53255   2
  -1  -2   1 360.322 7.56581   2
   1   2  -1 349.453 8.01839   1
  -1  -2   1 347.327 7.95696   1
   1   2   0 0.92250 1.64719   1
   1   2   0 5.52547 2.02534   2
  -1  -2   0 1.47792 1.42186   1
  -1  -2   0 4.14113 1.77644   2
  -1  -2  -1 1267.51 16.2416   2
  -1  -2  -1 1332.68 16.4227   1
   1   2   1 1277.98 16.0181   1
  -1  -2  -2 2895.30 25.4481   1
   1   2   2 2839.95 25.2349   1
  -1  -2  -2 2935.01 26.6334   2
   1   2   3 779.892 14.1268   1
  -1  -2  -3 756.521 14.0024   1
  -1  -2  -3 795.318 15.0542   2
   1   2   4 40.6087 3.96981   1
  -1  -2  -4 32.6016 3.65851   1
  -1  -2  -4 38.3679 4.25142   2
  -1  -2  -5 13.5939 3.32696   2
   1   2   5 15.2664 3.36244   1
  -1  -2  -5 13.4716 3.05576   1
   1   2   6 0.91618 2.91898   1
  -1  -2  -6 4.02694 2.78032   1
  -1  -2  -7 15.5087 3.80035   1
   1   2   7 16.9439 3.95825   1
   1   2   8 26.2551 4.94223   1
  -1  -2  -8 18.0257 4.23229   1
  -1  -2  -8 15.3131 4.73426   2
  -1  -2  -9 48.8800 6.60968   2
   1   2   9 53.2076 6.37093   1
  -1  -2  -9 51.6127 6.14463   1
   1   2  10 8.20025 4.80940   1
  -1  -2 -10 7.26492 4.60866   1
  -1  -2 -10 7.40603 5.24526   2
  -1  -2 -11 6.56676 6.80651   2
  -1  -2 -11-1.38905 5.06633   1
   1   2  11 4.08601 5.48951   1
  -1  -2 -12 0.48175 5.93913   1
   1   2  12-2.44070 6.29069   1
  -1  -2 -12 5.11751 7.46763   2
  -1  -2 -13 5.56112 6.84053   1
  -1  -2 -13-6.28146 9.68697   2
   1   2  13 1.34982 7.03010   1
  -1  -2 -14 5.07239 7.10160   1
  -1  -2 -14 5.89602 9.12715   2
   1   2  14 1.63989 7.02438   1
  -1  -3  16 5.43701 6.64450   1
  -1  -3  16-2.83887 6.66503   1
   1   3 -16-11.9718 8.19981   2
  -1  -3  15 24.5238 6.63478   1
   1   3 -15 27.4066 7.30881   2
  -1  -3  15 20.9147 6.31302   1
   1   3 -14 9.01172 5.46925   2
  -1  -3  14-3.53028 5.14864   1
  -1  -3  14-1.88065 4.71305   1
   1   3 -13 22.0510 5.34988   2
  -1  -3  13 19.3939 5.05623   1
  -1  -3  13 22.4921 5.21456   1
  -1  -3  12 10.2034 4.17122   1
  -1  -3  12 7.61785 4.02506   1
   1   3 -12 8.62753 4.41505   2
   1   3 -11 140.016 8.20201   2
  -1  -3  11 153.514 8.36337   1
  -1  -3  11 147.155 8.25671   1
  -1  -3  10 5.15592 3.05284   1
  -1  -3  10 8.21256 3.38531   1
   1   3 -10 3.69541 3.15578   2
   1   3  -9 361.042 11.1380   2
  -1  -3   9 370.187 11.2393   1
  -1  -3   9 350.483 10.9688   1
   1   3  -8 28.4863 3.74312   2
  -1  -3   8 30.0505 3.77213   1
  -1  -3   8 25.5831 3.60817   1
   1   3  -7 10.5434 2.62314   2
  -1  -3   7 9.44418 2.68650   1
  -1  -3   7 11.9192 2.61191   2
  -1  -3   7 6.02067 2.49475   1
  -1  -3   6 75.9132 4.51850   2
   1   3  -6 70.0778 4.44304   2
   1   3  -6 66.5743 4.55358   1
  -1  -3   6 67.1703 4.52267   1
  -1  -3   5 250.064 7.38889   2
   1   3  -5 263.886 7.65359   2
  -1  -3   5 261.980 8.01307   1
   1   3  -5 255.196 7.99190   1
   1   3  -4 274.916 7.65420   2
  -1  -3   4 269.408 7.95027   1
  -1  -3   4 278.533 7.63402   2
   1   3  -4 275.510 8.08858   1
  -1  -3   3 517.379 10.2500   2
   1   3  -3 545.476 10.6174   2
   1   3  -3 531.492 10.9631   1
  -1  -3   3 531.255 10.8873   1
   1   3  -2 560.274 10.9889   2
   1   3  -2 559.237 11.2873   1
  -1  -3   2 549.555 10.8381   2
  -1  -3   2 568.503 11.4017   1
  -1  -3   1 11.6360 2.52016   2
   1   3  -1 6.13171 2.33676   2
  -1  -3   1 10.0467 2.46961   1
   1   3  -1 10.0131 2.20572   1
   1   3   0 1219.09 17.3573   2
  -1  -3   0 1223.87 17.4747   2
  -1  -3   0 1250.16 17.7547   1
   1   3   0 1265.60 17.7440   1
  -1  -3  -1 212.146 7.95016   1
  -1  -3  -1 220.446 8.00769   2
   1   3   1 222.730 8.09981   2
   1   3   1 233.911 8.17193   1
  -1  -3  -2 3.13529 2.59874   2
   1   3   2 3.09192 2.72430   1
  -1  -3  -2 7.12678 2.62330   1
  -1  -3  -3 10.2256 3.32187   2
  -1  -3  -3 11.7604 3.28604   1
   1   3   3 10.3064 2.99741   1
  -1  -3  -4 32.6359 4.52172   2
   1   3   4 26.5401 4.11498   1
  -1  -3  -4 30.0527 4.04135   1
   1   3   5 77.7886 6.41183   1
  -1  -3  -5 78.7897 6.34341   1
  -1  -3  -5 79.5361 6.69605   2
   1   3   6 499.464 15.0874   1
  -1  -3  -6 518.517 16.1022   2
  -1  -3  -6 487.817 14.6957   1
  -1  -3  -7 15.2668 4.79367   2
   1   3   7 11.7873 4.10786   1
  -1  -3  -7 10.2339 3.99118   1
  -1  -3  -8 550.212 18.5056   2
   1   3   8 589.853 17.9370   1
  -1  -3  -8 554.150 17.2844   1
  -1  -3  -9 24.0993 5.97452   1
   1   3   9 37.4871 6.49501   1
  -1  -3  -9 38.5730 7.35001   2
   1   3  10 39.7677 7.22094   1
  -1  -3 -10 40.7397 8.51352   2
  -1  -3 -10 33.7818 6.69579   1
   1   3  11-3.26971 6.51893   1
  -1  -3 -11 4.36440 6.26555   1
  -1  -3 -11-15.7693 8.58819   2
  -1  -3 -12-0.25118 7.28140   1
  -1  -3 -12-5.80610 9.12438   2
   1   3  12 7.14150 7.64172   1
  -1  -3 -13 32.9574 9.92223   1
  -1  -3 -13 1.78928 9.10124   2
   1   3  13 32.2426 10.4082   1
  -1  -4  16 9.75050 6.26794   1
  -1  -4  16 10.1426 6.18395   1
   1   4 -16-8.02432 8.22721   2
  -1  -4  15 3.53216 5.67657   1
  -1  -4  15-0.74497 5.47195   1
   1   4 -15 6.36950 6.65939   2
  -1  -4  14 33.3747 5.83156   1
   1   4 -14 30.2822 6.92255   2
  -1  -4  14 24.7939 5.80873   1
  -1  -4  13 11.0023 4.59394   1
  -1  -4  13 20.1246 4.90481   1
   1   4 -13 20.6872 5.67677   2
  -1  -4  12 10.7699 4.28974   1
  -1  -4  12 4.04209 3.76049   1
   1   4 -12 6.20947 4.61276   2
   1   4 -11 106.247 7.75395   2
  -1  -4  11 112.258 7.34505   1
  -1  -4  11 115.395 7.31278   1
  -1  -4  10 50.8877 5.08415   1
   1   4 -10 55.3784 5.70744   2
  -1  -4  10 44.2000 4.95904   1
  -1  -4   9 117.420 6.71406   1
  -1  -4   9 119.154 7.10101   2
  -1  -4   9 119.810 6.83330   1
   1   4  -9 119.039 7.15498   2
   1   4  -8 96.2338 6.25674   2
  -1  -4   8 110.262 6.24868   1
  -1  -4   8 93.8777 6.09094   2
  -1  -4   8 104.730 6.25591   1
  -1  -4   7 177.624 7.57585   1
   1   4  -7 202.008 7.94538   1
   1   4  -7 196.523 8.11100   2
  -1  -4   7 190.658 7.92382   2
  -1  -4   6 42.0804 4.01961   1
   1   4  -6 40.6237 4.06777   2
  -1  -4   6 47.7967 4.22588   2
   1   4  -6 45.0010 4.18124   1
  -1  -4   5 41.5342 3.95016   2
   1   4  -5 42.2730 3.96435   2
   1   4  -5 44.8354 4.00596   1
  -1  -4   5 44.3916 3.95349   1
  -1  -4   4 14.7772 2.93927   2
   1   4  -4 9.34732 2.74160   1
  -1  -4   4 11.8664 2.66214   1
   1   4  -4 15.1269 3.09639   2
  -1  -4   3 38.3577 3.97343   2
   1   4  -3 37.5908 3.92766   1
  -1  -4   3 39.0549 3.92694   1
   1   4  -3 41.4601 4.12666   2
  -1  -4   2 820.076 15.3522   2
   1   4  -2 793.249 15.1746   2
  -1  -4   2 796.692 15.2800   1
   1   4  -2 819.239 15.3670   1
   1   4  -1 4.08385 2.70364   2
  -1  -4   1 11.9281 2.89588   2
   1   4  -1 10.9521 2.83107   1
  -1  -4   1 9.57946 2.64150   1
   1   4   0 53.5801 4.76526   2
  -1  -4   0 44.7592 4.69551   1
   1   4   0 56.2964 4.66391   1
  -1  -4   0 50.6782 4.55622   2
  -1  -4  -1 16.9668 3.63355   1
   1   4   1 22.9866 3.95898   2
  -1  -4  -1 21.4018 3.94714   2
   1   4   1 21.2007 3.84138   1
  -1  -4  -2 0.75656 2.66939   2
   1   4   2 1.00757 2.89474   1
  -1  -4  -2 2.39992 3.26259   1
  -1  -4  -3 19.3616 4.09592   2
   1   4   3 16.0602 3.68770   1
  -1  -4  -3 21.6149 4.10199   1
   1   4   4-3.21141 3.19333   1
  -1  -4  -4 2.84285 3.70457   2
  -1  -4  -4 1.37798 3.64468   1
  -1  -4  -5 235.879 11.2293   1
  -1  -4  -5 222.412 11.3173   2
   1   4   5 236.908 11.2360   1
  -1  -4  -6 47.2128 6.77146   2
  -1  -4  -6 41.4154 5.99962   1
   1   4   6 38.5920 5.74938   1
  -1  -4  -7 17.0932 5.26418   1
   1   4   7 5.06046 4.97738   1
  -1  -4  -7 15.9326 5.24884   2
  -1  -4  -8 4.58475 4.88979   1
   1   4   8-0.42694 5.30927   1
  -1  -4  -8 4.54027 6.10075   2
  -1  -4  -9 10.3833 6.20113   2
   1   4   9 18.2343 6.18723   1
  -1  -4  -9 9.37244 6.44287   1
   1   4  10 4.26231 6.22794   1
  -1  -4 -10 11.6243 7.55889   2
  -1  -4 -10 15.0291 7.21195   1
   1   4  11 2.43604 7.51758   1
  -1  -4 -11-14.2223 7.75367   1
  -1  -4 -11 5.92249 8.23677   2
   1   4  12 13.5469 9.88547   1
  -1  -4 -12 18.6726 10.3340   2
  -1  -4 -12 7.05215 9.19949   1
  -1  -5  16-1.29891 6.48895   1
   1   5 -16-3.02721 8.70697   2
  -1  -5  16 15.4194 6.54553   1
   1   5 -15 11.0456 7.42060   2
  -1  -5  15 9.20878 5.57788   1
  -1  -5  15 11.0491 5.84250   1
  -1  -5  14 9.89137 4.95467   1
   1   5 -14 3.86032 5.89466   2
  -1  -5  14 13.2419 4.79781   1
   1   5 -13 118.246 9.63331   2
  -1  -5  13 121.624 8.32013   1
  -1  -5  13 109.095 8.08880   1
   1   5 -12 31.7921 5.94285   2
  -1  -5  12 37.2311 5.33743   1
  -1  -5  12 29.2785 5.00840   1
  -1  -5  11 113.204 7.37651   1
   1   5 -11 123.745 8.59327   2
  -1  -5  11 115.813 7.48067   1
  -1  -5  10 144.653 8.69231   2
  -1  -5  10 141.922 7.84518   1
  -1  -5  10 138.427 7.62757   1
   1   5 -10 136.982 8.64273   2
  -1  -5   9 0.09065 2.90067   1
   1   5  -9 2.20067 3.43612   2
  -1  -5   9 0.35433 3.17582   2
  -1  -5   9-0.87071 2.89874   1
   1   5  -8 59.0555 5.18718   1
   1   5  -8 62.1912 5.68315   2
  -1  -5   8 73.2175 6.03900   2
  -1  -5   8 63.5737 5.25163   1
  -1  -5   7 27.8285 4.09019   2
   1   5  -7 18.6361 3.99037   2
  -1  -5   7 24.7891 3.80214   1
   1   5  -7 27.2808 3.92589   1
   1   5  -6 110.872 6.54530   1
   1   5  -6 116.422 7.01261   2
  -1  -5   6 126.321 6.80075   1
  -1  -5   6 109.639 6.79977   2
  -1  -5   5 97.2484 6.35625   2
   1   5  -5 109.534 6.38539   1
  -1  -5   5 100.130 6.21883   1
   1   5  -5 96.8891 6.52567   2
  -1  -5   4 0.03007 2.42021   2
   1   5  -4-0.70287 2.69322   2
   1   5  -4 0.77318 2.27509   1
  -1  -5   4-0.34475 2.61002   1
  -1  -5   3 352.218 11.1912   1
   1   5  -3 335.085 11.2401   2
  -1  -5   3 360.133 11.5108   2
   1   5  -3 360.879 11.3011   1
   1   5  -2 21.6679 3.77574   2
  -1  -5   2 19.5606 3.66625   2
  -1  -5   2 17.9079 3.81876   1
   1   5  -2 25.7929 4.05073   1
  -1  -5   1 8.78903 3.34814   1
   1   5  -1 5.24599 3.26416   2
  -1  -5   1 11.7716 3.78696   2
   1   5  -1 10.4137 2.90337   1
  -1  -5   0 4.01358 2.80452   1
   1   5   0-0.24236 3.18200   2
   1   5   0 3.84482 3.34289   1
  -1  -5   0 3.15751 2.85487   2
   1   5   1 152.498 8.65508   2
  -1  -5  -1 139.732 8.39389   2
   1   5   1 126.451 7.86524   1
  -1  -5  -1 141.381 8.23504   1
   1   5   2 425.050 14.2874   2
  -1  -5  -2 441.120 14.6979   2
   1   5   2 443.094 14.4463   1
  -1  -5  -2 446.771 14.6300   1
  -1  -5  -3 95.1229 7.79092   1
  -1  -5  -3 78.4410 7.38012   2
   1   5   3 89.7863 7.69086   1
  -1  -5  -4 181.155 10.5416   1
   1   5   4 195.662 10.8309   1
  -1  -5  -4 200.916 11.1890   2
  -1  -5  -5 52.0572 7.42610   2
  -1  -5  -5 55.4387 7.12145   1
   1   5   5 56.2060 6.81441   1
   1   5   6 9.30263 5.94737   1
  -1  -5  -6 15.0069 5.07714   1
  -1  -5  -6 12.5905 5.91385   2
  -1  -5  -7 3.15437 6.00266   2
  -1  -5  -7-3.70087 5.15531   1
   1   5   7-7.09996 6.08769   1
   1   5   8 0.12459 6.92395   1
  -1  -5  -8 2.58590 6.33255   1
  -1  -5  -8 3.10893 7.00310   2
  -1  -5  -9 34.7783 8.51451   1
  -1  -5  -9 39.3366 9.02076   2
   1   5   9 36.9024 8.49395   1
  -1  -5 -10 5.42813 8.18157   1
   1   5  10 9.40642 8.55241   1
  -1  -5 -10 10.0803 9.50960   2
   1   5  11 66.7733 12.6040   1
  -1  -5 -11 51.6711 10.9784   1
  -1  -6  16 6.79238 6.20651   1
   1   6 -16 5.55024 8.78413   2
  -1  -6  16 13.2198 6.38003   1
  -1  -6  15 25.5588 5.88672   1
  -1  -6  15 17.0520 6.00154   1
   1   6 -15 26.7206 8.28073   2
  -1  -6  14-4.72258 5.12733   1
  -1  -6  14 4.28631 4.92042   1
   1   6 -14 3.67455 6.22926   2
  -1  -6  13 8.96431 4.79064   1
   1   6 -13 10.1062 6.07716   2
  -1  -6  13 14.3461 4.82305   1
   1   6 -12 44.9640 6.79422   2
  -1  -6  12 41.0181 5.47874   1
  -1  -6  12 46.1898 5.79977   1
   1   6 -11 75.5512 7.61932   2
  -1  -6  11 80.1750 6.72939   1
  -1  -6  11 73.9810 6.47127   1
  -1  -6  11 79.5420 7.98547   2
  -1  -6  10 68.9144 7.07588   2
  -1  -6  10 75.5666 6.49259   1
   1   6 -10 67.3118 7.04564   2
  -1  -6  10 78.0043 6.55025   1
   1   6  -9 26.1528 4.34302   1
  -1  -6   9 23.1742 4.16915   1
  -1  -6   9 25.4752 5.19463   2
   1   6  -9 23.3192 5.23558   2
  -1  -6   8 12.1210 4.39372   2
  -1  -6   8 1.91101 3.12281   1
   1   6  -8 2.45529 3.66319   2
   1   6  -8 6.81572 3.44025   1
   1   6  -7 103.946 7.67414   2
  -1  -6   7 89.1436 7.08482   2
  -1  -6   7 99.2755 6.76117   1
   1   6  -7 97.5994 6.72127   1
   1   6  -6 0.38200 3.16144   2
  -1  -6   6-4.53288 3.35598   2
  -1  -6   6 1.56280 2.89853   1
   1   6  -6-4.49124 3.07426   1
  -1  -6   5 230.405 10.2631   2
  -1  -6   5 232.412 9.89709   1
   1   6  -5 220.151 9.61537   1
   1   6  -5 232.892 10.4846   2
   1   6  -4 186.112 9.09951   1
   1   6  -4 194.897 9.72724   2
  -1  -6   4 193.167 9.23431   1
  -1  -6   4 193.857 9.70635   2
  -1  -6   3 1.46850 3.23927   2
  -1  -6   3 0.28752 3.45396   1
   1   6  -3 1.95478 3.17836   1
   1   6  -3 3.01571 3.43687   2
  -1  -6   2-2.92377 3.07475   2
   1   6  -2 0.37135 2.70327   1
   1   6  -2 2.05399 3.44960   2
  -1  -6   2 0.45206 2.86984   1
   1   6  -1 15.1186 4.17939   2
   1   6  -1 8.48334 3.94230   1
  -1  -6   1 12.3320 4.19606   1
  -1  -6   1 9.91810 4.15824   2
   1   6   0 17.9385 4.09684   1
  -1  -6   0 17.2229 4.35287   2
   1   6   0 25.6097 5.14871   2
  -1  -6   0 20.4729 5.09927   1
  -1  -6  -1 183.903 10.2666   1
  -1  -6  -1 184.442 10.4647   2
   1   6   1 183.058 10.1053   1
   1   6   1 171.174 10.1946   2
  -1  -6  -2 59.4031 6.90419   1
  -1  -6  -2 48.4191 6.23816   2
   1   6   2 52.0573 6.91379   1
   1   6   2 58.1483 6.88546   2
   1   6   3 5.57683 4.66617   1
  -1  -6  -3 6.02369 4.90622   2
  -1  -6  -3 2.74863 4.73486   1
  -1  -6  -4 12.3930 5.40261   2
   1   6   4 7.13053 5.61971   1
  -1  -6  -4 23.3776 6.37685   1
  -1  -6  -5 30.6927 7.31827   2
  -1  -6  -5 19.7586 6.36959   1
   1   6   5 14.9278 6.55757   1
  -1  -6  -6 0.12357 6.08144   1
   1   6   6-1.62719 5.16881   1
  -1  -6  -6-1.59166 6.84669   2
  -1  -6  -7-7.48337 7.16454   2
   1   6   7 3.49408 6.36732   1
  -1  -6  -7-0.39845 5.70533   1
  -1  -6  -8 69.7842 10.9284   2
   1   6   8 65.6367 9.73712   1
  -1  -6  -8 72.3251 9.84580   1
   1   6   9-19.8053 10.0611   1
  -1  -6  -9-7.98202 9.40502   2
  -1  -6 -10-2.86415 10.6111   1
   1   6  10-6.63518 10.4120   1
  -1  -6 -10-16.6020 11.0015   2
  -1  -7  16 11.9157 3.77122   1
  -1  -7  16 11.0240 3.75527   1
  -1  -7  15 55.8139 7.57760   1
  -1  -7  15 52.6208 7.29160   1
   1   7 -15 54.8472 10.1951   2
  -1  -7  14 24.1394 6.26197   1
   1   7 -14 31.3470 8.31879   2
  -1  -7  14 21.0944 5.91824   1
  -1  -7  13 56.2990 6.77198   1
  -1  -7  13 56.7499 6.69376   1
   1   7 -13 55.4026 8.29415   2
  -1  -7  12 5.96941 4.32383   1
  -1  -7  12 7.33610 5.74988   2
  -1  -7  12 2.92308 4.40174   1
   1   7 -12 14.3867 6.50814   2
   1   7 -11-0.15974 5.68414   2
  -1  -7  11-0.73113 4.21219   1
  -1  -7  11 3.26868 4.87124   2
  -1  -7  11 7.04318 4.23750   1
   1   7 -10-0.20332 4.59312   2
  -1  -7  10 1.23329 4.68399   2
  -1  -7  10 2.13656 4.03742   1
   1   7 -10 3.98729 4.09463   1
  -1  -7   9 11.3130 4.25153   1
   1   7  -9 13.2553 4.35558   1
  -1  -7   9 16.9663 4.97664   2
   1   7  -9 10.1100 4.85295   2
   1   7  -8 27.5643 5.86226   2
   1   7  -8 23.5455 4.90036   1
  -1  -7   8 27.0363 5.63916   2
  -1  -7   8 27.5463 5.02208   1
   1   7  -7 49.4764 5.70126   1
  -1  -7   7 36.3702 5.34746   1
   1   7  -7 38.7609 5.80292   2
  -1  -7   7 25.1553 5.59323   2
   1   7  -6 5.79511 4.00990   2
  -1  -7   6 7.92623 4.14713   2
  -1  -7   6 17.9663 4.39177   1
   1   7  -6 6.64376 3.64517   1
   1   7  -5 98.0399 8.33838   2
   1   7  -5 103.088 7.67101   1
  -1  -7   5 86.2697 7.40593   1
  -1  -7   5 96.8086 7.98302   2
  -1  -7   4 73.0457 6.76996   1
   1   7  -4 74.5697 6.85620   1
  -1  -7   4 76.3673 7.60757   2
   1   7  -4 79.6425 7.49293   2
   1   7  -3 53.4081 6.37675   2
  -1  -7   3 50.7800 6.39912   2
  -1  -7   3 43.5557 6.06809   1
   1   7  -3 44.8759 5.73891   1
   1   7  -2 17.9650 5.05215   2
   1   7  -2 15.5235 4.53657   1
  -1  -7   2 12.6085 4.82078   1
  -1  -7   2 20.5673 5.41527   2
   1   7  -1 5.92586 4.68569   2
  -1  -7   1 7.75520 4.41829   2
   1   7  -1 10.7061 4.24515   1
  -1  -7   1 14.4818 4.88414   1
  -1  -7   0 56.8484 6.90302   2
  -1  -7   0 51.0936 6.67707   1
   1   7   0 46.6363 7.04884   2
   1   7   0 49.4382 6.40274   1
   1   7   1 67.5918 8.28631   2
  -1  -7  -1 58.2654 7.69202   2
   1   7   1 56.4302 7.63828   1
  -1  -7  -1 54.2597 7.76988   1
   1   7   2 230.169 12.8498   2
  -1  -7  -2 224.628 13.0382   2
  -1  -7  -2 229.165 13.3083   1
   1   7   2 224.886 13.0187   1
  -1  -7  -3 43.5484 7.05395   1
  -1  -7  -3 49.3932 8.54156   2
   1   7   3 45.3969 7.21072   1
   1   7   4-2.72760 5.93752   1
  -1  -7  -4-1.66603 6.82369   2
  -1  -7  -4-7.96558 6.58073   1
  -1  -7  -5 11.4133 6.81549   1
   1   7   5 20.9385 7.18043   1
  -1  -7  -5 6.02599 6.47078   2
  -1  -7  -6 5.56673 6.67264   2
  -1  -7  -6 20.4489 7.27477   1
  -1  -7  -7 131.903 13.9588   2
   1   7   7 179.743 15.3581   1
  -1  -7  -7 144.075 14.3824   1
  -1  -7  -8-1.34429 8.39797   2
  -1  -7  -8-3.85166 9.14918   1
   1   7   8 21.2344 8.97025   1
  -1  -7  -9 13.9505 7.51707   2
  -1  -7  -9 29.0603 7.97897   1
   1   7   9 21.6075 7.37010   1
  -1  -8  15 0.62379 6.20347   1
  -1  -8  15-3.24351 5.90227   1
  -1  -8  14 8.72202 5.86738   1
  -1  -8  14 21.8241 6.26550   1
  -1  -8  13 84.3689 10.6075   2
   1   8 -13 99.6377 11.6156   2
  -1  -8  13 91.9735 8.42213   1
  -1  -8  13 78.0868 8.13330   1
   1   8 -12 11.2162 7.14087   2
  -1  -8  12 18.0220 5.73638   1
  -1  -8  12 10.2549 5.19569   1
  -1  -8  12 15.3500 7.21269   2
   1   8 -11 5.68221 6.48002   2
  -1  -8  11 1.89435 4.79855   1
  -1  -8  11 5.33744 5.98943   2
  -1  -8  10 8.47445 4.86156   1
  -1  -8  10 13.0214 6.26190   2
   1   8 -10 12.3390 6.13246   2
   1   8 -10 18.0819 5.12552   1
   1   8  -9 1.64716 5.86178   2
  -1  -8   9 17.5775 5.40868   1
  -1  -8   9 12.4321 5.46495   2
   1   8  -9 0.56820 4.33997   1
  -1  -8   8 44.1128 7.40364   2
   1   8  -8 34.3014 7.33876   2
  -1  -8   8 36.3468 5.99763   1
   1   8  -8 34.6638 5.85258   1
   1   8  -7 44.6383 6.81267   2
  -1  -8   7 51.1689 7.40002   2
  -1  -8   7 53.1043 6.81432   1
   1   8  -7 46.4023 6.40696   1
   1   8  -6 208.113 11.3006   1
  -1  -8   6 200.854 11.0899   1
   1   8  -6 196.945 12.1271   2
  -1  -8   6 203.179 12.1356   2
   1   8  -5-3.58517 4.42247   1
   1   8  -5-5.26988 5.55973   2
  -1  -8   5-1.71067 4.35401   1
   1   8  -4 37.1195 6.27208   1
  -1  -8   4 38.3365 6.17954   1
   1   8  -4 34.9070 6.94582   2
  -1  -8   4 44.8895 7.24251   2
  -1  -8   3 83.1652 8.55408   2
  -1  -8   3 66.2455 7.56589   1
   1   8  -3 64.4578 7.56036   2
   1   8  -3 76.1601 7.75118   1
  -1  -8   2 115.518 10.1020   2
  -1  -8   2 117.224 9.95983   1
   1   8  -2 135.253 10.6618   2
   1   8  -2 137.090 10.2560   1
  -1  -8   1-0.69301 4.99177   2
   1   8  -1-0.68975 5.66047   2
  -1  -8   1 4.87495 5.51160   1
   1   8  -1-0.55162 4.54960   1
   1   8   0 2.14107 5.47550   2
  -1  -8   0 6.84861 6.52116   2
  -1  -8   0 11.1726 6.07094   1
   1   8   0 9.79213 5.94255   1
  -1  -8  -1 5.22474 6.31651   2
   1   8   1-4.88720 6.21779   2
  -1  -8  -1 17.7642 6.16777   1
   1   8   1 12.7025 6.24802   1
   1   8   2 3.11823 5.45267   2
  -1  -8  -2-6.36656 6.76353   2
   1   8   2-1.43099 6.47398   1
  -1  -8  -2-13.3959 7.17469   1
  -1  -8  -3 6.86214 6.84525   2
   1   8   3 7.73118 7.44478   1
  -1  -8  -3 3.80841 7.32474   1
  -1  -8  -4 5.84393 8.16333   2
  -1  -8  -4 7.45664 6.86970   1
   1   8   4 13.4968 7.88814   1
  -1  -8  -5-8.15779 8.82622   2
  -1  -8  -5 10.1582 8.82581   1
   1   8   5-9.19957 7.95943   1
  -1  -8  -6 26.7546 10.7008   1
   1   8   6 41.8933 11.3135   1
  -1  -8  -7 16.1454 12.5399   2
  -1  -8  -7 14.0546 10.2152   1
   1   8   7-7.95866 11.0577   1
  -1  -9  14-0.89334 9.49387   2
  -1  -9  14-12.5377 6.53389   1
  -1  -9  14 0.04526 6.57338   1
  -1  -9  13 15.3538 6.50025   1
   1   9 -13 11.5304 8.42608   2
  -1  -9  13 33.8663 10.0030   2
  -1  -9  13 21.9154 6.65029   1
   1   9 -12 17.1759 9.24225   2
  -1  -9  12 2.70619 5.96097   1
  -1  -9  12 10.9141 8.47479   2
  -1  -9  12 8.76574 6.31533   1
  -1  -9  11 6.80770 5.59831   1
   1   9 -11 4.20684 8.00606   2
  -1  -9  11 0.79601 7.94464   2
   1   9 -11-0.28556 5.63388   1
   1   9 -10 1.33721 6.40020   2
  -1  -9  10 19.5479 6.29137   1
   1   9 -10 4.90005 5.44625   1
  -1  -9  10 12.7994 7.22946   2
  -1  -9   9 151.344 11.9586   2
  -1  -9   9 142.133 10.3102   1
   1   9  -9 145.236 12.4693   2
   1   9  -9 142.532 10.4062   1
   1   9  -8 38.2150 8.50319   2
  -1  -9   8 37.2222 6.81195   1
   1   9  -8 35.9804 6.96628   1
  -1  -9   8 22.4966 6.82433   2
   1   9  -7 54.6152 8.98046   2
   1   9  -7 48.6934 7.31248   1
  -1  -9   7 58.6501 7.85551   1
  -1  -9   7 72.7027 8.86378   2
   1   9  -6 43.4774 7.36451   1
  -1  -9   6 50.8751 7.79412   1
   1   9  -6 43.3725 7.63206   2
  -1  -9   6 63.1443 8.95018   2
  -1  -9   5 57.1327 8.11642   2
   1   9  -5 59.1280 8.09256   1
  -1  -9   5 61.5581 8.41734   1
   1   9  -5 58.3651 9.06743   2
  -1  -9   4 89.9488 10.0320   2
   1   9  -4 94.0308 9.53038   1
  -1  -9   4 99.3361 10.0991   1
   1   9  -4 90.5367 9.79052   2
   1   9  -3-0.82619 6.01325   1
  -1  -9   3-3.06074 6.60944   2
  -1  -9   3-6.92748 5.46402   1
   1   9  -3-3.90471 5.63826   2
   1   9  -2-0.91846 5.47931   2
  -1  -9   2-2.78338 6.53061   1
  -1  -9   2 12.0633 6.50803   2
   1   9  -2 5.47359 6.21809   1
   1   9  -1 4.23982 6.02408   2
  -1  -9   1 4.86143 5.72295   2
  -1  -9   1 5.93507 6.91651   1
   1   9  -1 3.60709 6.86365   1
   1   9   0 19.3257 7.45391   2
  -1  -9   0 7.64539 6.27144   2
  -1  -9   0 26.6704 8.54266   1
   1   9   0 15.2070 7.35268   1
   1   9   1 24.4314 8.04876   2
  -1  -9  -1 22.2264 9.07076   2
  -1  -9  -1-3.32282 8.14610   1
   1   9   1 14.1381 7.68974   1
  -1  -9  -2-6.52784 9.12979   1
  -1  -9  -2 5.28113 8.61394   2
   1   9   2-6.22837 6.43646   1
  -1  -9  -3 9.42277 9.96792   2
  -1  -9  -3-2.15297 9.26938   1
   1   9   3 13.0273 9.16066   1
  -1  -9  -4-5.09492 9.22945   2
  -1  -9  -4-13.7846 10.1190   1
   1   9   4-0.92642 8.36571   1
  -1  -9  -5 75.8373 13.2751   1
   1   9   5 93.5431 15.3389   1
  -1 -10  13 15.6778 5.40656   1
   1  10 -13 14.6528 6.95494   2
  -1 -10  13 18.7914 7.11555   2
  -1 -10  13 29.9761 6.48927   1
  -1 -10  12-13.9675 7.77604   1
   1  10 -12-10.3409 10.4253   2
  -1 -10  12-6.64856 9.34134   2
   1  10 -11-5.06488 10.4741   2
  -1 -10  11 3.49468 6.96222   1
   1  10 -11 1.88890 6.49957   1
  -1 -10  10 49.5447 11.0898   2
  -1 -10  10 71.1191 9.41126   1
   1  10 -10 55.1929 11.1861   2
   1  10 -10 60.5981 9.11369   1
  -1 -10   9 12.2484 7.10895   1
   1  10  -9 16.9435 8.21979   2
   1  10  -9 13.2196 7.35423   1
  -1 -10   9 11.2206 7.83929   2
  -1 -10   8 25.6564 7.25478   1
   1  10  -8 30.2619 9.07352   2
   1  10  -8 23.5978 7.08170   1
  -1 -10   8 24.2849 8.80491   2
   1  10  -7 13.0143 7.84971   2
  -1 -10   7 1.81317 7.73867   2
   1  10  -7-0.96182 6.66547   1
  -1 -10   7-2.69652 6.54174   1
  -1 -10   6 14.8264 7.12553   2
   1  10  -6 1.23809 5.98020   1
   1  10  -6-5.73691 7.52441   2
  -1 -10   6 10.4717 7.04153   1
   1  10  -5 44.1184 8.63494   2
  -1 -10   5 34.2003 7.99660   2
   1  10  -5 44.0852 8.48581   1
  -1 -10   5 38.7964 8.09852   1
   1  10  -4 65.9876 9.07747   1
   1  10  -4 49.8178 10.0905   2
  -1 -10   4 58.4335 9.40729   1
  -1 -10   4 58.7808 10.3234   2
  -1 -10   3 56.6381 9.91488   1
   1  10  -3 51.6693 8.96145   2
  -1 -10   3 63.4846 9.54668   2
   1  10  -3 57.5391 10.0061   1
  -1 -10   2 83.9572 11.3239   2
  -1 -10   2 84.9569 10.5818   1
   1  10  -2 90.1884 11.8368   2
   1  10  -2 79.2539 10.6554   1
  -1 -10   1 21.4650 8.40504   2
   1  10  -1 4.13871 9.54341   2
   1  10  -1 13.4251 8.69171   1
  -1 -10   1 28.5138 9.33743   1
   1  10   0 11.8021 9.59702   1
  -1 -10   0-18.4044 10.0036   2
  -1 -10   0-7.22024 8.36807   1
   1  10   0-10.6883 9.49440   2
   1  10   1-12.9251 8.63177   2
  -1 -10  -1-2.23970 8.71037   1
   1  10   1 3.52767 9.67360   1
  -1 -10  -2-12.3138 11.7722   2
  -1 -10  -2 6.94056 11.3892   1
   1  10   2 4.48021 11.2927   1
   1  10   3 85.8302 14.4324   1
  -1 -10  -3 53.5658 14.1061   1
  -1 -10  -3 74.9551 14.2928   2
   1  11 -10 12.8996 11.0623   2
   1  11 -10-2.60130 8.27661   1
  -1 -11  10 6.57517 9.73466   2
  -1 -11  10 3.48509 8.70348   1
   1  11  -9 8.22334 8.28768   1
   1  11  -9-15.3307 12.5947   2
  -1 -11   9-0.82073 9.75583   2
  -1 -11   9-1.39706 9.18732   1
   1  11  -8 28.0554 9.80650   2
   1  11  -8 20.7920 8.52380   1
  -1 -11   8 47.5223 11.2812   2
  -1 -11   8 22.1319 8.70754   1
  -1 -11   7 34.4963 10.7012   2
  -1 -11   7 16.7993 8.65057   1
   1  11  -7 20.7872 8.58512   1
   1  11  -7 8.08728 10.1475   2
  -1 -11   6 17.5052 8.94984   2
   1  11  -6 1.41234 10.1346   2
   1  11  -6 7.98101 8.17534   1
  -1 -11   6-7.93819 8.37266   1
   1  11  -5 51.7596 11.9493   2
  -1 -11   5 46.1031 11.8018   2
   1  11  -5 55.9578 10.6258   1
  -1 -11   5 62.1916 10.8991   1
   1  11  -4 1.44237 10.0223   2
   1  11  -4-6.19580 8.61073   1
  -1 -11   4 26.1689 10.6670   2
  -1 -11   4-5.98113 9.38282   1
   1  11  -3 12.1718 9.17993   1
  -1 -11   3 16.9647 10.5330   2
  -1 -11   3 36.3754 10.5403   1
   1  11  -3 16.5408 9.38050   2
   1  11  -2 16.4253 11.3184   2
   1  11  -2 37.9646 11.2237   1
  -1 -11   2 38.6659 12.5347   2
  -1 -11   2 12.0361 9.26984   1
   1  11  -1 22.4127 10.2507   2
  -1 -11   1 1.07988 9.69403   2
   1  11  -1-0.34263 11.6240   1
  -1 -11   1 16.2734 11.2109   1
  -1 -11   0 5.25302 10.2269   1
   1  11   0 24.4556 11.4549   1
   2 -11   0 6.89212 10.2099   2
  -2  11   0-6.07503 11.3552   2
   2 -11   0-23.8714 10.9726   1
  -2  11   0 8.88310 10.2687   1
   2 -11   1 2.79858 9.30035   1
  -2  11  -1 13.3780 11.6495   2
  -2  11  -1-9.59426 10.2490   1
   2 -11   1-5.23110 11.2369   2
  -2  11  -2 6.03857 10.9796   2
   2 -11   2 9.80177 8.91300   1
   2 -11   2-2.41686 9.15699   2
  -2  11  -2-8.43950 9.64834   1
   2 -11   3 4.59501 7.66282   1
  -2  11  -3 20.4432 11.0699   2
   2 -11   3 3.87431 9.88235   2
  -2  11  -3 1.16339 8.35890   1
   2 -11   4 0.18229 7.68888   1
  -2  11  -4-23.2780 11.9217   2
   2 -11   4 9.82225 10.5423   2
  -2  11  -4-7.12774 7.96440   1
  -2  11  -5 25.9072 7.61472   1
   2 -11   5 19.6765 7.46235   1
   2 -11   5 20.7678 10.8488   2
  -2  11  -5 49.2083 11.3387   2
   2 -11   6 1.97034 6.62948   1
  -2  11  -6 6.32902 6.47756   1
  -2  11  -6 7.17559 9.54472   2
   2 -11   6 4.15775 11.3073   2
  -2  11  -7 9.22029 9.40482   2
  -2  11  -7 6.83944 6.25224   1
   2 -11   7-7.79969 10.9957   2
   2 -11   7 12.3705 6.44474   1
   2 -11   8 63.8706 12.8134   2
  -2  11  -8 49.0333 6.93512   1
   2 -11   8 46.3654 7.20328   1
   2 -11   9-0.55355 3.74786   1
  -2  11  -9-1.94861 3.82358   1
   2 -10  -3 103.643 12.9366   2
  -2  10   3 113.356 14.0658   2
  -2  10   3 127.800 15.1967   1
   2 -10  -3 93.1100 13.2167   1
   2 -10  -2 50.1804 10.0485   2
   2 -10  -2 38.5418 10.8796   1
  -2  10   2 70.6710 13.0367   1
  -2  10   2 75.3897 12.0443   2
  -2  10   1 3.55713 8.95056   2
   2 -10  -1-15.8891 9.24114   1
   2 -10  -1-6.61488 8.88353   2
  -2  10   1-2.75790 9.34172   1
   2 -10   0 7.37205 8.52332   1
  -2  10   0 2.57501 8.57217   1
   2 -10   0-3.25212 8.66234   2
  -2  10   0 13.8995 8.96650   2
   2 -10   1 8.36312 9.13428   2
   2 -10   1-0.58855 7.51031   1
  -2  10  -1 3.88950 7.57038   1
  -2  10  -1-2.99636 7.37735   2
   2 -10   2 17.7830 6.98276   1
  -2  10  -2 35.7603 8.06751   1
   2 -10   2 16.0216 8.57100   2
  -2  10  -2 20.0401 8.78988   2
  -2  10  -3 2.83889 6.33480   1
   2 -10   3-2.31382 6.63746   1
  -2  10  -3 2.66495 8.70451   2
   2 -10   3 12.6484 8.27899   2
  -2  10  -4 12.8611 6.08692   1
   2 -10   4 1.92048 6.10490   1
  -2  10  -4 2.16372 8.40744   2
   2 -10   4 0.50607 8.09960   2
   2 -10   5 25.7871 9.01305   2
   2 -10   5 5.51945 5.40657   1
  -2  10  -5 4.01813 7.30695   2
  -2  10  -5 13.4739 6.03596   1
  -2  10  -6 35.0758 10.1340   2
   2 -10   6 32.9445 8.84774   2
   2 -10   6 40.3320 6.58197   1
  -2  10  -6 36.3059 6.31181   1
  -2  10  -7 1.70813 4.90471   1
   2 -10   7 5.47355 9.30705   2
  -2  10  -7 8.87391 9.84880   2
   2 -10   7 6.96644 5.11619   1
   2 -10   8 5.00671 4.50454   1
  -2  10  -8-3.91488 8.87040   2
   2 -10   8-0.71698 8.98294   2
  -2  10  -8-5.93443 4.06126   1
  -2  10  -9 6.67967 3.05899   1
   2 -10   9 8.48217 3.28970   1
  -2  10  -9 4.89627 10.3483   2
   2 -10   9 8.76910 9.57089   2
  -2  10 -10-9.03938 11.1215   2
   2 -10  10 9.57161 11.2692   2
  -2  10 -11 11.9673 12.6456   2
   2 -10  11 0.62841 9.27579   2
   2  -9  -6 30.1606 10.0035   2
   2  -9  -6 36.4670 11.0217   1
  -2   9   6 49.1890 12.7489   1
   2  -9  -5 41.6772 11.5835   1
   2  -9  -5 23.2701 9.07946   2
  -2   9   5 18.4994 10.6246   1
  -2   9   4 11.5637 10.2435   1
  -2   9   4 4.79681 7.87259   2
   2  -9  -4-3.13276 7.71879   2
   2  -9  -4 4.71814 9.82996   1
  -2   9   3 59.3303 10.0144   2
  -2   9   3 51.5539 9.38091   1
   2  -9  -3 78.4925 11.3784   1
   2  -9  -3 67.1335 9.92614   2
  -2   9   2 7.03650 7.72109   1
  -2   9   2 2.20369 6.30392   2
   2  -9  -2-16.2869 8.26076   1
   2  -9  -2-0.77263 7.10737   2
  -2   9   1 1.48908 6.32039   1
   2  -9  -1 7.58252 6.94081   1
   2  -9  -1 3.30980 6.65768   2
  -2   9   1-1.52726 6.87634   2
   2  -9   0 65.4876 9.52658   2
  -2   9   0 45.3495 8.27665   1
  -2   9   0 39.1354 8.36415   2
   2  -9   0 38.1368 8.39200   1
   2  -9   1 71.1924 9.70725   2
  -2   9  -1 68.2760 9.40508   2
  -2   9  -1 77.4181 8.75714   1
   2  -9   1 59.1526 8.20971   1
   2  -9   2-3.49605 5.78084   1
  -2   9  -2 5.73365 6.13308   2
  -2   9  -2 10.6807 5.77438   1
   2  -9   2 1.76198 5.59223   2
   2  -9   3 15.6653 5.53911   1
  -2   9  -3 18.1945 7.65311   2
  -2   9  -3 13.4887 5.66064   1
   2  -9   3 26.3462 7.94770   2
   2  -9   4 22.9281 5.49225   1
   2  -9   4 28.5555 7.10504   2
  -2   9  -4 27.6673 5.57989   1
  -2   9  -4 32.2041 7.73929   2
  -2   9  -5 57.9332 9.36214   2
   2  -9   5 46.2229 8.97110   2
   2  -9   5 48.1391 6.07326   1
  -2   9  -5 55.0547 6.22542   1
   2  -9   6-3.51031 3.86025   1
  -2   9  -6 5.66813 4.03986   1
   2  -9   6-1.45879 7.23579   2
  -2   9  -6 8.76970 7.37876   2
   2  -9   7-2.13864 3.55354   1
   2  -9   7-4.66359 6.54319   2
  -2   9  -7-0.91255 7.46848   2
  -2   9  -7 0.05555 3.42846   1
  -2   9  -8 59.3514 9.63371   2
  -2   9  -8 52.4989 4.48710   1
   2  -9   8 53.9987 8.93887   2
   2  -9   8 55.2999 4.56742   1
   2  -9   9 14.8000 7.74823   2
  -2   9  -9 7.85925 8.73402   2
   2  -9   9 2.98755 1.13912   1
  -2   9 -10 2.52566 9.38282   2
   2  -9  10 3.20828 9.43197   2
  -2   9 -11 16.1939 10.2109   2
   2  -9  11 15.3380 9.85221   2
  -2   9 -12 35.4400 13.0226   2
   2  -8  -8 19.8963 6.64535   2
  -2   8   7 23.0264 10.4271   1
   2  -8  -7 15.2085 10.7562   1
   2  -8  -7-5.35804 9.02998   2
  -2   8   6 28.5240 10.1735   1
   2  -8  -6 20.7071 8.60914   2
   2  -8  -6 13.8001 9.45868   1
  -2   8   5 82.8744 12.1446   1
   2  -8  -5 72.8528 9.65076   2
   2  -8  -5 65.6114 9.92431   1
  -2   8   5 75.8940 9.60117   2
  -2   8   4 22.6800 8.26605   1
   2  -8  -4-0.71321 7.47449   1
  -2   8   4 16.6908 6.78686   2
   2  -8  -4 15.0894 6.76070   2
  -2   8   3-1.74326 5.65370   2
   2  -8  -3-9.11930 6.18203   1
   2  -8  -3-8.62123 5.61527   2
   2  -8  -2 40.5760 8.02128   1
  -2   8   2 44.2905 7.34661   2
  -2   8   2 61.2838 9.25639   1
   2  -8  -2 55.8580 8.18783   2
   2  -8  -1 96.8229 9.41531   2
  -2   8   1 106.823 9.30253   2
   2  -8  -1 114.097 10.1336   1
  -2   8   1 87.9652 9.05022   1
  -2   8   0 6.76129 5.24286   1
   2  -8   0 5.23548 5.01439   2
   2  -8   0 4.44345 5.53930   1
  -2   8   0 7.26326 5.77100   2
   2  -8   1 42.6172 7.41663   2
  -2   8  -1 45.8533 6.48092   1
  -2   8  -1 42.4438 7.05866   2
   2  -8   1 33.8575 6.29753   1
   2  -8   2 4.26946 4.25015   1
  -2   8  -2 9.38650 5.95790   2
  -2   8  -2 6.43907 4.59724   1
   2  -8   2 5.34867 5.58887   2
   2  -8   3 4.47592 5.26864   2
   2  -8   3 11.1587 4.23980   1
  -2   8  -3 13.7595 4.65972   1
  -2   8  -3 16.7597 6.14829   2
   2  -8   4 14.6915 4.30215   1
  -2   8  -4 0.56327 5.27410   2
  -2   8  -4 6.78548 4.03681   1
   2  -8   4 15.1282 6.04965   2
   2  -8   5 29.8844 7.10646   2
  -2   8  -5 24.7149 6.32874   2
  -2   8  -5 25.8239 4.40422   1
   2  -8   5 31.3787 4.55657   1
  -2   8  -6 7.31513 3.25067   1
  -2   8  -6 8.90385 6.53024   2
   2  -8   6 13.7725 6.62285   2
   2  -8   6 6.35701 3.21315   1
   2  -8   7 42.6598 8.29723   2
  -2   8  -7 48.4067 8.00640   2
  -2   8  -7 44.7724 4.06025   1
   2  -8   7 51.6816 4.21443   1
   2  -8   8 0.12604 1.57834   1
  -2   8  -8-2.98778 6.94662   2
   2  -8   8-5.39868 7.35621   2
  -2   8  -9 13.4339 7.00758   2
   2  -8   9-3.92866 7.14887   2
  -2   8 -10 1.08558 7.06591   2
   2  -8  10 5.63120 8.00476   2
  -2   8 -11 5.58103 8.97803   2
  -2   8 -12 14.6492 9.81047   2
  -2   8 -13 31.3008 12.6938   2
  -2   7   9 1.71864 10.0580   1
   2  -7  -9 23.5092 10.6351   1
   2  -7  -9 5.04803 8.17118   2
   2  -7  -8 77.0233 10.0226   2
  -2   7   8 60.4413 11.0943   1
   2  -7  -8 47.3561 10.2464   1
   2  -7  -7 3.13921 6.59734   2
   2  -7  -7 0.69645 7.38256   1
  -2   7   7 4.48283 7.37129   1
   2  -7  -6-0.10663 6.09387   2
   2  -7  -6-2.01468 5.96358   1
  -2   7   6-9.54641 7.71141   1
  -2   7   5 6.89503 5.57392   2
   2  -7  -5 16.3599 7.39339   1
   2  -7  -5-0.35512 5.24335   2
  -2   7   5-0.33711 6.28049   1
   2  -7  -4 63.8775 7.57068   2
  -2   7   4 58.1893 8.29116   1
  -2   7   4 53.6402 7.33403   2
   2  -7  -4 52.3745 8.61459   1
   2  -7  -3-0.09513 4.42285   2
  -2   7   3-0.99311 4.37050   2
   2  -7  -3 2.34805 4.84232   1
  -2   7   3-3.62142 6.00575   1
   2  -7  -2-0.57996 4.80814   1
  -2   7   2 2.16695 4.59670   2
   2  -7  -2 7.50305 4.93281   2
  -2   7   2 1.79928 4.54454   1
  -2   7   1 307.799 13.8337   1
  -2   7   1 302.585 13.2465   2
   2  -7  -1 315.241 13.4766   2
   2  -7  -1 292.477 13.4405   1
  -2   7   0 147.972 9.81682   2
  -2   7   0 140.041 9.19794   1
   2  -7   0 145.890 9.57178   2
   2  -7   0 135.434 9.07664   1
   2  -7   1 24.9181 5.53599   2
  -2   7  -1 28.6893 5.17765   1
   2  -7   1 25.2171 4.94979   1
  -2   7  -1 21.8102 5.57806   2
   2  -7   2-2.71213 3.58289   1
  -2   7  -2 2.84020 3.42460   1
   2  -7   2 7.17774 4.88227   2
  -2   7  -2 4.60935 4.69490   2
  -2   7  -3 185.325 10.8438   2
  -2   7  -3 185.017 8.82563   1
   2  -7   3 185.872 10.5327   2
   2  -7   3 180.111 8.69863   1
   2  -7   4 14.5247 3.55397   1
  -2   7  -4 17.5022 3.60874   1
  -2   7  -4 15.4265 5.50604   2
   2  -7   4 13.5350 5.21600   2
  -2   7  -5 28.5772 6.05102   2
   2  -7   5 21.9187 5.18203   2
  -2   7  -5 24.2180 3.44161   1
   2  -7   5 30.6513 3.83058   1
  -2   7  -6 118.075 9.93808   2
   2  -7   6 123.944 10.0018   2
  -2   7  -6 114.635 5.39503   1
   2  -7   6 121.690 5.55915   1
  -2   7  -7 18.1824 5.84121   2
  -2   7  -7 17.6112 2.00825   1
   2  -7   7 19.8810 6.05285   2
   2  -7   7 21.7380 2.17039   1
  -2   7  -8 118.959 10.6803   2
   2  -7   8 108.583 9.71597   2
  -2   7  -9 9.92478 6.50716   2
   2  -7   9 10.0400 5.90349   2
  -2   7 -10 8.60421 7.33802   2
  -2   7 -11 36.1572 9.21148   2
  -2   7 -12 13.5023 9.25603   2
  -2   7 -13 95.2803 13.5096   2
  -2   7 -14 53.8553 13.2394   2
   2  -6 -10-12.4635 7.88367   2
   2  -6 -10-3.29258 11.2423   1
  -2   6  10 1.31843 11.6103   1
   2  -6  -9-11.7249 6.31797   2
  -2   6   9 8.04807 8.28900   1
   2  -6  -9 9.66317 9.41603   1
   2  -6  -8 12.4342 5.82285   2
   2  -6  -8 4.06161 8.41899   1
  -2   6   8-5.55673 7.67345   1
   2  -6  -7 20.3378 7.95255   1
   2  -6  -7 3.69574 5.32719   2
  -2   6   7 20.0157 7.62588   1
   2  -6  -6 8.92701 5.90037   1
   2  -6  -6 17.0384 5.19548   2
  -2   6   6 16.5311 5.98797   1
   2  -6  -5 1.05775 4.36223   2
   2  -6  -5 9.44050 5.54963   1
  -2   6   5 2.00400 4.36104   2
  -2   6   5 5.92571 5.77714   1
  -2   6   4 27.9210 5.29626   2
   2  -6  -4 23.8056 6.43228   1
  -2   6   4 39.0155 6.75013   1
   2  -6  -4 35.8187 5.68832   2
  -2   6   3 62.0261 7.23799   1
  -2   6   3 62.0569 6.40388   2
   2  -6  -3 66.2329 6.49480   2
   2  -6  -3 72.7841 7.57942   1
   2  -6  -2 3.82658 3.67142   1
  -2   6   2-1.60055 3.67089   2
   2  -6  -2 3.33361 3.62932   2
  -2   6   2-0.04517 4.05260   1
   2  -6  -1-3.27221 3.48558   1
  -2   6   1 2.39402 3.63044   2
   2  -6  -1-1.11933 3.48206   2
  -2   6   1-0.12331 3.46686   1
  -2   6   0 35.1330 5.17688   2
  -2   6   0 29.6536 4.88208   1
   2  -6   0 38.2595 5.21545   2
   2  -6   0 29.5242 4.82695   1
  -2   6  -1 156.360 9.05502   2
  -2   6  -1 140.622 8.00557   1
   2  -6   1 157.467 8.31675   1
   2  -6   1 146.870 8.54857   2
  -2   6  -2 18.2868 3.72795   1
   2  -6   2 12.7682 3.39253   1
  -2   6  -2 11.0104 4.08587   2
   2  -6   2 15.4295 3.95522   2
  -2   6  -3 245.051 8.82580   1
   2  -6   3 266.514 11.3951   2
   2  -6   3 257.889 9.07047   1
  -2   6  -3 247.559 11.1109   2
   2  -6   4-0.21609 2.12248   1
  -2   6  -4 0.08518 2.31571   1
  -2   6  -4 5.54751 3.63687   2
   2  -6   4 1.49095 3.13172   2
   2  -6   5 72.2374 6.89869   2
  -2   6  -5 71.9207 4.10865   1
   2  -6   5 69.3441 4.08992   1
  -2   6  -5 72.1221 7.30555   2
  -2   6  -6 16.4024 4.91663   2
   2  -6   6 17.9467 5.25924   2
   2  -6   6 15.2053 1.86873   1
  -2   6  -6 16.3860 1.88948   1
  -2   6  -7 40.8439 6.55439   2
   2  -6   7 31.7958 5.98315   2
   2  -6   8 34.1338 6.74675   2
  -2   6  -8 31.5706 6.30192   2
  -2   6  -9 15.5177 6.20727   2
  -2   6 -10 1.68598 6.14288   2
  -2   6 -11-5.58406 7.44068   2
  -2   6 -12-5.94366 6.72793   2
  -2   6 -13 5.62834 9.77977   2
  -2   6 -14-7.58080 11.4903   2
  -2   6 -15 28.1482 8.50503   2
   2  -5 -12 47.6304 7.49103   2
  -2   5  12 22.8423 7.82894   1
   2  -5 -11-2.26731 9.21981   1
   2  -5 -11 2.62786 7.27626   2
  -2   5  11 3.13869 8.84943   1
   2  -5 -10 46.7727 7.83365   2
  -2   5  10 48.8380 11.2458   1
   2  -5 -10 49.9368 9.55667   1
   2  -5  -9-3.21178 6.49048   1
   2  -5  -9 1.68558 5.37423   2
  -2   5   9-5.76702 7.26184   1
   2  -5  -8 3.76198 4.61102   2
  -2   5   8 15.6654 6.98989   1
   2  -5  -8 6.21265 5.73480   1
   2  -5  -7 11.9733 4.48130   2
   2  -5  -7 6.84880 5.40626   1
  -2   5   7 8.36360 5.27033   1
   2  -5  -6 143.867 8.50021   2
  -2   5   6 136.432 10.2147   1
   2  -5  -6 136.364 10.5024   1
   2  -5  -5 102.670 7.17091   2
  -2   5   5 102.986 8.60218   1
  -2   5   5 99.5761 6.90219   2
   2  -5  -5 95.8404 8.44868   1
   2  -5  -4 0.37029 4.30080   1
  -2   5   4 4.65968 3.36459   2
   2  -5  -4 2.95848 3.19262   2
  -2   5   4 8.27860 4.78612   1
  -2   5   3 248.010 11.5875   1
   2  -5  -3 258.028 10.0303   2
  -2   5   3 246.087 9.78911   2
   2  -5  -3 241.668 11.3981   1
   2  -5  -2 3.83176 3.75793   1
  -2   5   2 9.47027 3.44299   2
   2  -5  -2 15.6564 3.67120   2
  -2   5   2 12.4016 4.11290   1
   2  -5  -1 21.6050 3.78771   2
  -2   5   1 18.6578 3.83409   2
  -2   5   1 19.0243 4.09309   1
   2  -5  -1 19.1274 3.92731   1
  -2   5   0 715.142 16.1768   2
  -2   5   0 681.879 15.6869   1
   2  -5   0 657.057 15.5109   2
   2  -5   0 684.789 15.7600   1
  -2   5  -1 128.607 7.33945   2
   2  -5   1 122.824 7.26472   2
  -2   5  -1 111.022 6.42552   1
   2  -5   1 114.589 6.38555   1
  -2   5  -2 211.815 9.40649   2
  -2   5  -2 219.424 7.98382   1
   2  -5   2 220.762 9.42587   2
   2  -5   2 233.274 8.16175   1
  -2   5  -3 23.6159 4.40642   2
  -2   5  -3 34.0977 3.46768   1
   2  -5   3 37.1049 4.77115   2
   2  -5   3 33.4603 3.26973   1
  -2   5  -4 42.2927 5.04993   2
   2  -5   4 38.8670 5.02458   2
  -2   5  -4 42.3393 3.18897   1
   2  -5   4 42.7691 3.16828   1
  -2   5  -5 125.372 8.30187   2
   2  -5   5 123.588 8.16804   2
  -2   5  -5 127.300 3.94887   1
   2  -5   5 123.494 3.94161   1
  -2   5  -6 17.7357 4.54414   2
   2  -5   6 19.0929 4.47389   2
  -2   5  -7 28.9280 5.86847   2
   2  -5   7 24.7130 5.16602   2
  -2   5  -8 13.7760 5.09078   2
  -2   5  -9 70.4653 8.35287   2
  -2   5 -10 126.970 10.6972   2
  -2   5 -11 159.736 12.2112   2
  -2   5 -12 44.6602 9.74127   2
  -2   5 -13 21.7363 9.17092   2
  -2   5 -14 22.3900 9.96714   2
  -2   5 -15-24.2376 11.3466   2
   2  -4 -13 28.7064 6.24012   2
  -2   4  13 29.4646 8.73921   1
   2  -4 -12 53.4193 10.7706   1
   2  -4 -12 47.3517 8.29547   2
   2  -4 -11-3.47382 6.10518   2
  -2   4  11 1.74226 7.13016   1
   2  -4 -11-1.74033 6.99020   1
   2  -4 -10 31.5416 6.28584   2
   2  -4 -10 32.5467 7.49880   1
  -2   4  10 31.2122 7.69630   1
   2  -4  -9-0.82642 5.25471   1
   2  -4  -9 1.29140 4.36443   2
  -2   4   9 6.36478 5.55565   1
   2  -4  -8 7.97602 5.77564   1
   2  -4  -8 11.6613 4.32446   2
  -2   4   8 7.62231 5.80726   1
   2  -4  -7 8.82168 3.33588   2
   2  -4  -7 9.00542 5.16764   1
  -2   4   7 11.9493 5.44305   1
   2  -4  -6 0.62680 3.55837   1
   2  -4  -6 3.55894 3.17032   2
  -2   4   6 3.08770 4.51646   1
  -2   4   5 37.0141 5.37915   1
  -2   4   5 41.8365 4.34371   2
   2  -4  -5 30.4988 3.92586   2
   2  -4  -5 37.8446 5.70279   1
  -2   4   4 4.33510 2.63811   2
   2  -4  -4 0.31817 3.51354   1
   2  -4  -4-0.60475 2.32401   2
  -2   4   4 1.77906 2.82424   1
  -2   4   3 111.376 5.99987   2
  -2   4   3 127.852 7.85880   1
   2  -4  -3 116.406 6.10420   2
   2  -4  -3 120.482 7.49937   1
  -2   4   2 55.5962 4.51190   2
   2  -4  -2 60.7187 4.63033   2
  -2   4   2 55.8679 5.12019   1
   2  -4  -2 53.2054 5.24439   1
  -2   4   1 305.697 10.2532   1
  -2   4   1 302.401 9.39133   2
   2  -4  -1 297.245 9.32933   2
   2  -4  -1 303.862 10.2583   1
   2  -4   0 84.7559 5.35174   2
  -2   4   0 83.5417 5.33393   1
   2  -4   0 83.3095 5.39574   1
  -2   4   0 85.0549 5.35631   2
  -2   4  -1 689.193 14.4509   2
  -2   4  -1 675.099 12.9995   1
   2  -4   1 706.274 14.4838   2
   2  -4   1 661.596 12.8725   1
   2  -4   2 8.71170 2.22938   1
  -2   4  -2 9.66172 3.06545   2
   2  -4   2 6.93006 2.87497   2
  -2   4  -2 7.07010 2.15131   1
  -2   4  -3 311.600 10.6263   2
  -2   4  -3 308.630 7.24756   1
   2  -4   3 306.349 10.5104   2
   2  -4   3 311.273 7.26081   1
  -2   4  -4 220.398 9.48389   2
   2  -4   4 216.735 9.40437   2
   2  -4   4 221.468 5.08058   1
  -2   4  -4 219.321 5.03736   1
  -2   4  -5 62.3177 5.71331   2
   2  -4   5 57.1482 5.69184   2
  -2   4  -6 44.1648 5.57616   2
  -2   4  -7 484.882 15.7636   2
  -2   4  -8-1.42194 3.74661   2
  -2   4  -9 1.20776 4.42299   2
  -2   4 -10 64.5775 7.90741   2
  -2   4 -11 5.24432 4.86042   2
  -2   4 -12 9.81374 6.47810   2
  -2   4 -13 2.51512 8.57633   2
  -2   4 -14-15.1848 9.29465   2
  -2   4 -15-7.13740 9.38024   2
   2  -3 -13 30.7148 6.84523   2
   2  -3 -13 12.1483 8.60071   1
  -2   3  13-1.44613 9.83985   1
  -2   3  12 19.9498 8.36635   1
   2  -3 -12 45.7051 10.2369   1
   2  -3 -12 27.7556 6.71262   2
   2  -3 -11 2.16614 4.64641   2
  -2   3  11-5.08091 7.20676   1
   2  -3 -11-4.08226 7.16940   1
   2  -3 -10 3.12032 5.74366   1
   2  -3 -10 6.63298 4.25630   2
  -2   3  10 0.98993 6.33691   1
   2  -3  -9 3.91509 3.65034   2
  -2   3   9 8.73683 4.99111   1
   2  -3  -9 6.04341 5.09484   1
   2  -3  -8 52.1428 4.93247   2
  -2   3   8 52.9013 7.07305   1
   2  -3  -8 33.1113 6.65552   1
   2  -3  -7 104.277 6.06946   2
  -2   3   7 90.6393 7.96263   1
   2  -3  -7 109.288 8.55989   1
   2  -3  -6 148.747 6.49995   2
   2  -3  -6 148.973 9.01309   1
  -2   3   6 152.521 9.21620   1
   2  -3  -5-0.03854 2.82556   1
   2  -3  -5 3.17554 2.06344   2
  -2   3   5 0.80107 2.65337   1
   2  -3  -4 28.0692 3.02205   2
   2  -3  -4 23.6835 4.39253   1
  -2   3   4 26.5802 4.35492   1
  -2   3   4 25.5310 3.01527   2
   2  -3  -3 8.03823 3.23213   1
  -2   3   3 7.52349 2.16035   2
  -2   3   3 4.73617 2.89649   1
   2  -3  -3 7.53918 2.07223   2
  -2   3   2 45.4132 3.49319   2
   2  -3  -2 38.5664 3.22070   2
   2  -3  -2 34.2308 3.93065   1
  -2   3   2 42.2511 4.37334   1
   2  -3  -1 42.5268 3.37777   2
   2  -3  -1 51.6304 4.26155   1
  -2   3   1 42.6592 3.96665   1
  -2   3   1 47.9219 3.56132   2
  -2   3   0 24.9907 2.94176   2
   2  -3   0 21.8598 2.82147   2
   2  -3   0 19.8323 2.87376   1
  -2   3   0 19.0406 2.81101   1
  -2   3  -1 46.4904 3.89087   2
   2  -3   1 51.3974 4.01667   2
   2  -3   1 45.9420 3.44032   1
  -2   3  -1 46.2194 3.41122   1
  -2   3  -2 36.7106 3.69747   2
   2  -3   2 31.0598 3.61707   2
   2  -3   2 35.8447 2.74290   1
  -2   3  -2 37.5780 2.78535   1
  -2   3  -3 220.385 5.08160   1
   2  -3   3 224.899 8.50112   2
  -2   3  -3 230.095 8.56700   2
  -2   3  -3 217.226 5.08061   1
  -2   3  -4 748.271 6.80499   1
  -2   3  -4 763.154 16.0907   2
  -2   3  -4 752.670 6.68379   1
  -2   3  -5 3.41586 2.66628   2
  -2   3  -6 0.71868 3.38857   2
  -2   3  -7 218.613 10.4842   2
  -2   3  -8 9.92416 4.55072   2
  -2   3  -9 23.7051 5.37916   2
  -2   3 -10 73.2914 7.89894   2
  -2   3 -11 26.2678 6.94476   2
  -2   3 -12 5.02247 6.59599   2
  -2   3 -13-13.3583 8.68680   2
  -2   3 -14 48.7705 11.1032   2
  -2   3 -15-3.31649 9.35574   2
   2  -2 -14 13.5901 6.33601   2
   2  -2 -14 14.2414 6.52336   2
  -2   2  14-1.50106 10.1505   1
  -2   2  13 31.3758 9.80121   1
   2  -2 -13 36.0597 6.43820   2
   2  -2 -13 37.2071 6.66240   2
   2  -2 -13 47.2837 9.68394   1
   2  -2 -12-5.18461 6.89708   1
  -2   2  12 13.1127 7.20399   1
   2  -2 -12 6.55590 4.56909   2
   2  -2 -11 10.0525 4.09776   2
  -2   2  11 17.0511 6.51142   1
   2  -2 -11 12.0124 6.53641   1
   2  -2 -10 76.4468 5.92619   2
  -2   2  10 71.1759 7.98421   1
   2  -2 -10 82.4950 9.11771   1
   2  -2  -9 135.861 6.85541   2
   2  -2  -9 123.904 9.71686   1
  -2   2   9 148.441 10.3168   1
   2  -2  -8 5.49513 3.82929   1
   2  -2  -8 4.79794 2.42124   2
  -2   2   8 3.95532 4.21529   1
   2  -2  -7 7.89020 3.67579   1
  -2   2   7 11.0161 3.56521   1
   2  -2  -7 11.8338 2.47490   2
   2  -2  -6 1.29465 3.55661   1
   2  -2  -6 4.59439 1.89607   2
  -2   2   6 7.94145 3.85138   1
   2  -2  -5 203.982 5.74729   2
   2  -2  -5 198.342 9.26495   1
  -2   2   5 208.415 9.43182   1
   2  -2  -4 10.1582 1.72202   2
   2  -2  -4 7.68369 3.22841   1
  -2   2   4 10.0070 2.94108   1
  -2   2   4 6.17156 1.54621   2
  -2   2   3 3.71311 2.67107   1
   2  -2  -3 3.02155 2.64876   1
   2  -2  -3 3.07703 1.35237   2
  -2   2   3 3.20213 1.36021   2
  -2   2   2 50.0914 2.86868   2
   2  -2  -2 49.7430 2.79886   2
   2  -2  -2 51.2540 4.29163   1
  -2   2   2 45.6844 4.10220   1
  -2   2   1 751.707 10.6000   2
   2  -2  -1 724.798 10.3037   2
   2  -2  -1 735.910 13.2964   1
  -2   2   1 737.048 13.2278   1
   2  -2   0 64.6962 3.63301   2
  -2   2   0 59.8293 3.54094   2
   2  -2   0 59.1495 3.83528   1
  -2   2   0 61.6662 3.85705   1
   2  -2   1 339.412 8.39450   2
  -2   2  -1 333.742 8.31325   2
   2  -2   1 318.513 7.46066   1
  -2   2  -1 315.776 7.30448   1
  -2   2  -2 5.41482 1.49491   1
  -2   2  -2 2.62716 2.14890   2
  -2   2  -2 7.10729 1.58225   1
  -2   2  -3 51.2224 4.35558   2
  -2   2  -3 53.1312 2.50382   1
  -2   2  -3 52.9504 2.51076   1
  -2   2  -4 355.611 10.8555   2
  -2   2  -4 345.513 4.88717   1
  -2   2  -4 325.257 4.81206   1
  -2   2  -5 10.5063 3.45210   2
  -2   2  -6 4.67303 3.29690   2
  -2   2  -7-7.02133 3.70924   2
  -2   2  -8 301.327 12.9245   2
   2  -2   9 10.9540 1.08789   1
  -2   2  -9 6.71098 4.02029   2
  -2   2  -9 9.94214 1.07757   1
  -2   2 -10-1.73568 5.44914   2
  -2   2 -10 2.72581 1.03729   1
  -2   2 -11 157.185 11.9895   2
   2  -2  12 66.6702 3.00042   1
  -2   2 -12 69.6419 9.81738   2
   2  -2  12 72.2862 3.13504   1
  -2   2 -13 19.6032 7.73307   2
   2  -2  13 15.0643 1.77590   1
  -2   2 -14 42.5022 11.2912   2
  -2   2 -15 23.9028 10.4565   2
   2  -1 -15 1.71693 6.45951   2
   2  -1 -15 8.60230 6.59405   2
  -2   1  15 4.29263 10.1622   1
   2  -1 -15-3.08791 9.15172   1
   2  -1 -14-1.77091 5.67028   2
  -2   1  14-3.37768 8.73318   1
   2  -1 -14-5.03470 5.16331   2
   2  -1 -14-6.58681 8.25774   1
  -2   1  13 3.15896 6.59621   1
   2  -1 -13 4.60797 4.53144   2
   2  -1 -13 0.50704 4.72881   2
   2  -1 -13-7.95040 7.38096   1
  -2   1  12 186.682 12.7115   1
   2  -1 -12 186.868 9.07322   2
   2  -1 -12 190.177 9.20597   2
   2  -1 -12 196.339 13.3808   1
   2  -1 -11 7.95849 3.45824   2
   2  -1 -11 4.38421 3.45535   2
   2  -1 -11 0.33846 4.90355   1
   2  -1 -10 10.8980 3.13248   2
  -2   1  10 4.32754 4.92513   1
   2  -1 -10 9.43757 3.13890   2
   2  -1 -10 13.9287 5.24102   1
   2  -1  -9 153.819 9.81081   1
   2  -1  -9 165.750 6.58658   2
  -2   1   9 158.447 9.77023   1
   2  -1  -8 154.865 9.15197   1
   2  -1  -8 155.610 5.73674   2
  -2   1   8 149.337 9.06355   1
   2  -1  -7 144.457 4.89621   2
   2  -1  -7 150.133 8.75144   1
  -2   1   7 143.365 8.50639   1
   2  -1  -6 238.459 5.28035   2
   2  -1  -6 229.615 9.94028   1
  -2   1   6 239.302 10.0125   1
   2  -1  -5 181.776 3.75083   2
   2  -1  -5 170.432 8.27994   1
  -2   1   5 187.697 8.49176   1
   2  -1  -4 79.5302 2.00340   2
   2  -1  -4 84.9421 5.60524   1
  -2   1   4 79.3836 5.47545   1
   2  -1  -3 83.6669 5.33272   1
  -2   1   3 85.5275 2.10499   2
  -2   1   3 85.3852 5.12689   1
   2  -1  -3 85.4121 2.06654   2
  -2   1   2 206.476 3.99875   2
   2  -1  -2 218.945 7.52223   1
  -2   1   2 208.876 7.39682   1
  -2   1   1-0.12909 1.72884   1
  -2   1   1 0.51150 1.07418   2
  -2   1   0 209.440 5.64791   2
  -2   1   0 210.072 6.31868   1
  -2   1   0 216.443 6.49522   1
  -2   1  -1 16.4563 2.35178   2
  -2   1  -1 18.9050 2.19656   1
  -2   1  -1 16.3141 2.12722   1
   2  -1   2 0.82085 1.30343   1
  -2   1  -2 0.16739 1.30638   1
  -2   1  -2 3.31263 1.88296   2
  -2   1  -3 136.735 4.27538   1
   2  -1   3 143.056 4.40087   1
  -2   1  -4 833.568 10.1279   1
   2  -1   4 875.106 10.3525   1
   2  -1   5 103.190 3.80515   1
  -2   1  -5 104.598 3.88857   1
  -2   1  -6 83.3266 3.67629   1
   2  -1   6 85.0066 3.66928   1
   2  -1   7 25.1975 2.49521   1
  -2   1  -7 27.8138 2.55550   1
  -2   1  -8 109.798 4.73182   1
   2  -1   8 107.609 4.69078   1
  -2   1  -9 12.4371 5.16202   2
   2  -1   9 13.0391 2.60237   1
  -2   1  -9 13.2075 2.58058   1
  -2   1 -10 130.200 9.98790   2
  -2   1 -10 129.698 5.90019   1
   2  -1  10 127.441 5.83449   1
  -2   1 -11 3.67828 2.80771   1
  -2   1 -11 2.20178 6.47794   2
   2  -1  11 1.83210 2.73973   1
  -2   1 -12 4.85670 3.40695   1
  -2   1 -12 6.07942 6.76476   2
   2  -1  12-2.31401 3.19846   1
   2  -1  13 1.25945 3.67604   1
  -2   1 -13 11.2125 7.78636   2
  -2   1 -13 2.28035 3.73402   1
   2  -1  14 9.95334 3.96389   1
  -2   1 -14-3.73663 9.72548   2
  -2   1 -14-2.58082 4.48887   1
   2   0 -15-5.31826 6.10341   2
  -2   0  15 2.14651 8.57715   1
   2   0 -15 1.09738 6.15810   2
  -2   0  15 7.02926 9.01666   1
   2   0 -14-1.56306 4.83579   2
  -2   0  14-5.12944 6.55275   1
   2   0 -14 0.84585 5.01682   2
   2   0 -14 11.8696 7.93120   1
   2   0 -13 1.15975 4.30059   2
  -2   0  13 7.24735 6.50319   1
   2   0 -13-2.39352 4.15128   2
   2   0 -13-0.06207 6.40517   1
   2   0 -12 4.16918 3.58979   2
  -2   0  12 2.94508 5.47374   1
   2   0 -12 2.01566 3.48904   2
   2   0 -12 8.82683 5.55935   1
   2   0 -11 47.3654 4.56989   2
   2   0 -11 45.3521 6.83945   1
  -2   0  11 37.7172 6.22342   1
   2   0 -11 38.3089 4.37239   2
   2   0 -10 29.4731 3.52244   2
   2   0 -10 28.2063 3.40116   2
   2   0 -10 33.2296 5.64850   1
  -2   0  10 30.1844 5.72958   1
   2   0  -9 0.61288 1.92928   2
  -2   0   9 3.33431 3.91921   1
   2   0  -9 0.03408 1.99074   2
   2   0  -9-4.01470 3.92822   1
   2   0  -8 107.218 4.30479   2
   2   0  -8 106.117 4.30090   2
   2   0  -8 101.575 7.66516   1
  -2   0   8 108.474 7.68089   1
   2   0  -7 500.791 7.40651   2
   2   0  -7 494.462 14.3756   1
   2   0  -7 497.858 7.36867   2
  -2   0   7 496.504 14.2951   1
   2   0  -6 7.22606 0.87871   2
  -2   0   6 8.33173 3.26745   1
   2   0  -6 5.55027 2.63535   1
   2   0  -6 7.93770 0.90928   2
   2   0  -5 690.322 15.2312   1
  -2   0   5 701.749 15.2608   1
  -2   0   4 3.24727 2.07477   1
  -2   0   3 9.45048 2.23083   1
  -2   0   3 7.81832 2.40855   1
  -2   0   2 185.775 6.84979   1
  -2   0   2 184.284 6.92326   1
  -2   0   2 183.381 3.39979   2
  -2   0   1 80.6113 4.47163   1
  -2   0   1 83.2977 4.56086   1
   2   0   0 1514.45 16.9628   1
  -2   0   0 1435.81 16.6332   1
  -2   0  -1 1286.48 15.2018   1
   2   0   1 1261.03 15.1060   1
   2   0   2 74.2986 3.87526   1
  -2   0  -2 82.7364 4.03816   1
   2   0   3 227.944 6.48072   1
  -2   0  -3 250.678 6.83935   1
   2   0   4 344.956 8.13113   1
  -2   0  -4 357.067 8.28346   1
   2   0   5 2.41127 1.67629   1
  -2   0  -5-1.37191 1.87242   1
  -2   0  -6 48.7984 3.81780   1
   2   0   6 49.4669 3.69765   1
  -2   0  -7 24.1476 3.25873   1
   2   0   7 25.7882 3.26182   1
  -2   0  -8 2.88211 2.40009   1
   2   0   8 5.01151 2.52991   1
   2   0   9 23.4811 3.71882   1
  -2   0  -9 26.2465 3.81743   1
   2   0  10 216.821 9.01213   1
  -2   0 -10 225.814 9.17419   1
   2   0  11 16.5204 4.35550   1
  -2   0 -11 24.6864 4.63212   1
  -2   0 -12 0.37203 4.32639   1
   2   0  12 4.01006 4.17030   1
  -2   0 -12-1.04961 6.47319   2
  -2   0 -13 1.41724 5.15028   1
  -2   0 -13 10.9861 9.48367   2
   2   0  13 2.58646 4.85946   1
  -2   0 -14 10.6783 5.87506   1
   2   0  14 6.53837 5.99241   1
   2   1 -16 12.5375 5.81453   2
   2   1 -16-4.69482 5.71661   2
  -2  -1  16-5.77410 8.35748   1
  -2  -1  16-10.3267 8.31959   1
  -2  -1  15 51.4260 9.44079   1
   2   1 -15 47.6630 7.04642   2
   2   1 -15 36.4397 6.44315   2
  -2  -1  15 35.7480 9.03956   1
  -2  -1  14 45.3589 8.79939   1
   2   1 -14 51.9291 6.41730   2
  -2  -1  14 63.3254 9.10343   1
   2   1 -14 36.0276 5.71858   2
   2   1 -13 30.5734 4.96725   2
  -2  -1  13 43.6657 8.03904   1
  -2  -1  13 47.2235 8.13317   1
   2   1 -12 34.0556 4.43843   2
  -2  -1  12 26.0847 6.45590   1
  -2  -1  12 34.7453 6.72383   1
  -2  -1  11 9.38819 4.40782   1
   2   1 -11 6.39874 2.81719   2
  -2  -1  10 22.2899 5.13755   1
   2   1 -10 29.3103 3.33003   2
  -2  -1  10 24.1523 5.20533   1
   2   1  -9 116.080 4.99128   2
  -2  -1   9 107.430 7.68761   1
  -2  -1   9 114.866 7.89828   1
  -2  -1   8 1.15030 2.72664   1
   2   1  -8 0.11652 1.51400   2
  -2  -1   8-3.07306 3.62759   1
   2   1  -7 300.576 5.78512   2
  -2  -1   7 296.847 10.7759   1
  -2  -1   7 301.345 11.0280   1
   2   1  -6 191.256 3.79735   2
  -2  -1   6 178.029 8.03387   1
  -2  -1   6 190.860 8.43771   1
   2   1  -5 189.188 2.94932   2
  -2  -1   5 193.376 8.00305   1
  -2  -1   5 188.269 7.96622   1
  -2  -1   4 7.70762 2.65026   1
  -2  -1   4 4.09385 0.63319   2
  -2  -1   4 10.1444 2.98477   1
  -2  -1   3 281.890 4.63955   2
  -2  -1   3 270.629 8.67805   1
  -2  -1   2 276.013 8.44506   1
   2   1  -2 285.713 8.56294   1
  -2  -1   2 274.513 5.57980   2
  -2  -1   1 1315.03 17.3928   1
   2   1  -1 1239.35 16.9995   1
  -2  -1   1 1263.17 13.6466   2
  -2  -1   0 89.6647 4.71434   1
   2   1   0 77.7228 4.52796   1
   2   1   1 1107.97 15.6981   1
  -2  -1  -1 1119.02 15.6773   1
   2   1   2 30.3562 3.15868   1
  -2  -1  -2 22.1737 2.87218   1
   2   1   3 60.9371 4.21487   1
  -2  -1  -3 64.9826 4.39273   1
  -2  -1  -4 168.585 6.86041   1
   2   1   4 177.884 6.96078   1
   2   1   5 5.88683 2.53640   1
  -2  -1  -5 5.38905 2.62224   1
  -2  -1  -6 137.939 6.91993   1
   2   1   6 136.738 6.78849   1
  -2  -1  -7 229.901 9.07474   1
   2   1   7 226.274 8.99769   1
   2   1   8 673.553 15.8683   1
  -2  -1  -8 703.735 16.0994   1
   2   1   9 32.8927 4.79569   1
  -2  -1  -9 31.4700 4.73363   1
  -2  -1 -10 0.33232 3.81842   1
   2   1  10 4.16584 3.84946   1
  -2  -1 -11 24.8276 5.57436   1
   2   1  11 20.3171 5.49483   1
  -2  -1 -12 10.5686 5.82290   1
   2   1  12 10.6314 5.97027   1
  -2  -1 -13 11.7841 6.05045   1
   2   1  13 10.3639 6.06278   1
  -2  -2  16 32.6465 9.99326   1
  -2  -2  16 31.8842 9.70268   1
   2   2 -16 39.3752 7.59311   2
   2   2 -15 26.6982 6.37139   2
  -2  -2  15 25.1486 8.26992   1
  -2  -2  15 10.7416 8.01231   1
  -2  -2  14 11.6398 6.40478   1
  -2  -2  14-4.60096 6.16887   1
   2   2 -14 7.41638 5.00418   2
  -2  -2  13-5.92946 6.05459   1
  -2  -2  13-1.69873 5.25015   1
   2   2 -13 1.45431 4.03671   2
  -2  -2  12 14.3683 5.69620   1
   2   2 -12 7.21921 3.47554   2
  -2  -2  12-0.34455 4.49787   1
   2   2 -11 75.7124 5.46343   2
  -2  -2  11 59.6398 7.00266   1
  -2  -2  11 66.4101 6.95893   1
   2   2 -10 189.145 7.17226   2
  -2  -2  10 172.135 9.84612   1
  -2  -2  10 159.139 9.53936   1
   2   2  -9 235.806 7.25179   2
  -2  -2   9 218.029 10.2513   1
  -2  -2   9 217.891 10.3193   1
   2   2  -8 221.120 6.44138   2
  -2  -2   8 234.233 10.2394   1
  -2  -2   8 219.053 9.78267   1
   2   2  -7 235.005 6.09446   2
  -2  -2   7 228.050 9.70420   1
  -2  -2   7 217.789 9.34793   1
   2   2  -6 460.117 7.91161   2
  -2  -2   6 443.154 7.60069   2
  -2  -2   6 456.471 12.7151   1
  -2  -2   6 454.668 12.8325   1
   2   2  -5 114.137 3.97450   2
  -2  -2   5 114.305 3.87054   2
  -2  -2   5 116.032 6.42483   1
  -2  -2   5 113.838 6.42916   1
   2   2  -4 134.161 4.35074   2
   2   2  -4 121.249 6.36770   1
  -2  -2   4 120.594 4.13013   2
  -2  -2   4 129.867 6.48752   1
   2   2  -3 3.49905 1.53529   2
  -2  -2   3 5.23466 1.67570   2
   2   2  -3 1.18233 2.32833   1
  -2  -2   3 6.36915 2.19186   1
  -2  -2   2 165.044 6.96440   1
   2   2  -2 165.810 7.10991   1
  -2  -2   2 157.253 5.47332   2
  -2  -2   1 41.9894 3.41789   2
   2   2  -1 48.6525 4.07336   1
  -2  -2   1 47.3679 3.96620   1
  -2  -2   0 102.660 5.31008   2
   2   2   0 111.280 5.73699   1
  -2  -2   0 100.624 5.59677   1
   2   2   1 340.307 9.93587   1
  -2  -2  -1 349.435 10.0608   2
  -2  -2  -1 332.814 9.81254   1
  -2  -2  -2 20.6452 3.58696   2
  -2  -2  -2 18.6206 3.34953   1
   2   2   2 27.8673 3.53689   1
  -2  -2  -3 5.38870 2.92537   2
  -2  -2  -3 4.99549 2.55746   1
   2   2   3 5.97819 2.51631   1
  -2  -2  -4 43.9715 4.55899   1
   2   2   4 42.6447 4.38773   1
  -2  -2  -5 207.947 9.07263   1
   2   2   5 214.797 9.02627   1
  -2  -2  -6 227.046 9.84299   1
   2   2   6 225.513 9.70869   1
   2   2   7 56.5450 5.77932   1
  -2  -2  -7 59.5301 6.06697   1
  -2  -2  -8 0.11624 3.73548   1
   2   2   8 2.88826 3.71687   1
  -2  -2  -9 19.9841 5.03771   1
   2   2   9 14.4047 4.88134   1
  -2  -2  -9 16.3878 5.81565   2
  -2  -2 -10-1.54331 4.85123   1
  -2  -2 -10 7.89235 6.53768   2
   2   2  10 4.38403 4.89854   1
  -2  -2 -11-1.89245 8.49663   2
  -2  -2 -11 8.99574 5.46709   1
   2   2  11 5.21269 5.58594   1
  -2  -2 -12 1.64983 6.45163   1
  -2  -2 -12 0.23889 8.42923   2
   2   2  12 3.36690 6.36176   1
  -2  -2 -13 1.12994 11.3052   2
  -2  -2 -13 3.30528 7.37217   1
   2   2  13 2.03106 7.51468   1
  -2  -3  16 6.99579 8.06843   1
  -2  -3  16-5.78106 7.84771   1
   2   3 -16-8.68570 6.99361   2
  -2  -3  15 5.18051 7.32998   1
   2   3 -15 5.50397 5.78742   2
  -2  -3  15-4.80660 6.87525   1
  -2  -3  14-1.15121 6.14084   1
   2   3 -14 0.70612 4.67430   2
  -2  -3  14-3.37481 6.45561   1
   2   3 -13 30.0522 5.01055   2
  -2  -3  13 27.4584 6.52326   1
  -2  -3  13 27.7667 6.81959   1
  -2  -3  12 21.9872 5.75291   1
   2   3 -12 19.0032 4.24401   2
  -2  -3  12 17.3009 5.55581   1
   2   3 -11 109.798 6.54060   2
  -2  -3  11 100.616 8.05369   1
  -2  -3  11 95.1710 7.93934   1
  -2  -3  10 8.55001 4.21948   1
   2   3 -10 5.85369 2.80261   2
  -2  -3  10 6.42352 3.86589   1
   2   3  -9 98.2027 5.43716   2
  -2  -3   9 88.6959 7.08269   1
  -2  -3   9 93.4691 7.26425   1
  -2  -3   8 147.537 6.00414   2
  -2  -3   8 160.184 8.61652   1
  -2  -3   8 147.216 8.30098   1
   2   3  -8 158.808 6.33370   2
  -2  -3   7 0.13263 2.91708   1
   2   3  -7-2.36671 1.99795   2
  -2  -3   7 1.39557 1.81128   2
  -2  -3   7-5.00067 3.54332   1
   2   3  -6 12.3488 2.35731   2
  -2  -3   6 11.2550 2.28279   2
   2   3  -6 19.1129 3.78718   1
  -2  -3   6 9.63359 3.21933   1
   2   3  -5 546.862 13.8659   1
  -2  -3   5 521.446 13.5338   1
   2   3  -5 572.142 10.8275   2
  -2  -3   5 586.269 10.8298   2
   2   3  -4 49.6264 3.59834   2
  -2  -3   4 49.2510 3.67120   2
  -2  -3   4 52.1631 4.78778   1
   2   3  -4 48.1819 4.74344   1
   2   3  -3 1401.92 17.6897   2
  -2  -3   3 1352.76 17.4640   2
  -2  -3   3 1437.67 21.4372   1
   2   3  -3 1437.44 21.5552   1
   2   3  -2 107.025 5.44405   2
  -2  -3   2 103.262 5.43375   2
   2   3  -2 106.001 6.28482   1
  -2  -3   2 101.264 6.05665   1
  -2  -3   1 111.563 5.86569   2
   2   3  -1 113.543 6.40850   1
  -2  -3   1 113.338 6.36718   1
  -2  -3   0 225.726 8.63632   2
  -2  -3   0 227.847 8.99494   1
   2   3   0 235.303 8.95904   1
  -2  -3  -1 3.15688 3.04376   2
   2   3   1 4.97830 2.81971   1
  -2  -3  -1 0.38394 2.84624   1
   2   3   2 8.08143 3.30968   1
  -2  -3  -2 8.38280 3.18760   1
  -2  -3  -2 2.53030 2.60747   2
  -2  -3  -3 46.3654 5.55523   2
  -2  -3  -3 34.8028 4.69967   1
   2   3   3 42.5235 4.80581   1
  -2  -3  -4 80.8430 6.92677   2
   2   3   4 74.7429 6.13176   1
  -2  -3  -4 85.3308 6.78702   1
  -2  -3  -5 37.4480 5.29706   1
  -2  -3  -5 34.8058 5.61140   2
   2   3   5 38.1388 5.33945   1
  -2  -3  -6 138.116 9.99026   2
  -2  -3  -6 146.793 9.07640   1
   2   3   6 149.137 9.02451   1
  -2  -3  -7-0.05447 5.03295   2
  -2  -3  -7 1.57512 4.43842   1
   2   3   7 2.57903 4.00057   1
  -2  -3  -8 1.55737 6.09334   2
  -2  -3  -8-0.70352 4.44792   1
   2   3   8-1.63622 4.71243   1
  -2  -3  -9 51.8747 8.56237   2
   2   3   9 52.1358 7.62626   1
  -2  -3  -9 60.3839 7.92450   1
  -2  -3 -10 2.30905 6.70310   2
  -2  -3 -10 12.6700 6.01814   1
   2   3  10 2.05221 6.11903   1
  -2  -3 -11-6.11900 6.68177   1
  -2  -3 -11 14.9247 8.18073   2
   2   3  11-6.63129 6.99015   1
  -2  -3 -12-0.50230 7.96290   1
   2   3  12-8.55530 7.92840   1
  -2  -3 -12-9.21915 9.16861   2
  -2  -4  16 32.0441 8.67968   1
   2   4 -16 34.2778 7.83403   2
  -2  -4  16 19.5507 8.10406   1
  -2  -4  15 32.1616 8.08098   1
  -2  -4  15 25.1954 7.78787   1
   2   4 -15 15.8164 6.03176   2
  -2  -4  14 15.4969 6.22559   1
  -2  -4  14 1.24337 5.94199   1
   2   4 -14-1.08810 5.21922   2
  -2  -4  13 19.6055 6.05567   1
  -2  -4  13 9.96845 5.72733   1
   2   4 -13 11.0866 4.78260   2
   2   4 -12 35.6667 5.12934   2
  -2  -4  12 36.8529 6.23760   1
  -2  -4  12 34.1001 6.29648   1
   2   4 -11 3.91388 3.21754   2
  -2  -4  11 4.97236 4.23486   1
  -2  -4  10 8.58031 4.19661   1
  -2  -4  10 6.68731 4.45495   1
   2   4 -10 9.66404 3.48053   2
   2   4  -9 27.5726 3.96070   2
  -2  -4   9 24.5151 3.75540   2
  -2  -4   9 23.1219 4.51228   1
  -2  -4   9 26.0308 4.76258   1
   2   4  -8 3.94105 2.68177   2
  -2  -4   8 2.98328 2.48828   2
  -2  -4   8 6.21147 3.58883   1
  -2  -4   8 7.61137 3.74728   1
   2   4  -7 72.1505 5.10876   2
   2   4  -7 65.9757 5.87353   1
  -2  -4   7 64.6256 4.70706   2
  -2  -4   7 70.9956 6.01135   1
   2   4  -6 455.900 11.4650   2
  -2  -4   6 459.982 13.6614   1
  -2  -4   6 481.171 11.6441   2
   2   4  -6 465.270 13.6515   1
  -2  -4   5 20.7983 3.62392   1
  -2  -4   5 31.5698 3.62526   2
   2   4  -5 24.9580 3.39865   2
   2   4  -5 22.4032 3.80160   1
  -2  -4   4 91.5665 5.54891   2
   2   4  -4 104.933 5.90641   2
   2   4  -4 91.8170 6.56563   1
  -2  -4   4 99.9341 6.46464   1
   2   4  -3 73.6665 5.24584   2
   2   4  -3 88.0356 6.12472   1
  -2  -4   3 86.0632 6.29625   1
  -2  -4   3 76.6080 5.37419   2
   2   4  -2 70.4777 5.64082   1
  -2  -4   2 67.8616 5.21960   2
  -2  -4   2 72.2703 5.59977   1
   2   4  -2 64.4984 5.09982   2
   2   4  -1-0.05946 2.75524   2
  -2  -4   1 2.09567 2.55810   2
   2   4  -1 0.23204 2.99522   1
  -2  -4   1 0.19879 2.47918   1
   2   4   0 142.899 7.97953   1
  -2  -4   0 131.905 7.63161   2
  -2  -4   0 166.514 8.47226   1
  -2  -4  -1 90.0634 6.79230   2
  -2  -4  -1 90.6424 6.63016   1
   2   4   1 96.4728 7.00304   1
  -2  -4  -2 214.575 10.2905   2
  -2  -4  -2 205.382 9.85777   1
   2   4   2 204.629 9.84885   1
  -2  -4  -3 35.0035 5.34073   1
   2   4   3 28.4226 4.96336   1
  -2  -4  -3 24.0909 5.33349   2
  -2  -4  -4 514.300 16.4945   1
  -2  -4  -4 509.040 17.1148   2
   2   4   4 524.264 16.3072   1
  -2  -4  -5 14.4556 5.81332   2
  -2  -4  -5 6.21169 4.22200   1
   2   4   5 11.3625 4.85628   1
  -2  -4  -6 4.37509 5.26735   2
  -2  -4  -6 4.79255 4.93963   1
   2   4   6 9.87611 4.98603   1
  -2  -4  -7 7.35027 6.34811   2
  -2  -4  -7 17.7580 6.25737   1
   2   4   7 7.38348 5.54868   1
  -2  -4  -8-0.93637 7.14064   2
  -2  -4  -8-0.38884 6.03926   1
   2   4   8-0.73477 5.76321   1
  -2  -4  -9 44.6836 9.42578   2
  -2  -4  -9 41.6525 8.02861   1
   2   4   9 46.4191 8.17943   1
  -2  -4 -10 12.3213 10.0070   2
  -2  -4 -10 19.1502 7.74567   1
   2   4  10 12.2071 7.72091   1
  -2  -4 -11-2.33420 9.79607   2
  -2  -4 -11 11.7834 8.40722   1
   2   4  11 5.49419 8.70086   1
   2   5 -16 37.8093 8.49304   2
  -2  -5  16 32.4568 8.97253   1
  -2  -5  16 36.0149 9.12797   1
  -2  -5  15 23.7240 7.74034   1
   2   5 -15 20.9857 6.60691   2
  -2  -5  15 31.0105 7.67228   1
  -2  -5  14-1.53663 6.16926   1
   2   5 -14 1.01995 5.20522   2
  -2  -5  14-1.74793 5.93606   1
   2   5 -13 10.4350 4.85047   2
  -2  -5  13 9.37694 5.52976   1
  -2  -5  13 12.2577 5.95808   1
  -2  -5  12 2.06882 4.70262   1
   2   5 -12 0.42818 4.39910   2
  -2  -5  12-8.12031 5.34962   1
  -2  -5  11 2.51342 4.57442   1
   2   5 -11 3.83103 3.88996   2
  -2  -5  11 2.92820 4.48148   1
   2   5 -10 2.03322 3.30307   2
  -2  -5  10 5.06285 4.20386   1
  -2  -5  10 10.2628 3.77857   2
  -2  -5  10 1.01014 3.94965   1
   2   5  -9 0.65956 3.13808   2
  -2  -5   9 4.51262 3.91015   1
  -2  -5   9 0.25348 3.22256   2
  -2  -5   9 1.59832 3.91741   1
  -2  -5   8 2.20061 3.28352   1
  -2  -5   8 5.81534 3.28539   2
   2   5  -8 5.60177 3.38592   2
   2   5  -8-2.66741 3.32194   1
   2   5  -7 248.513 9.91439   2
  -2  -5   7 239.437 9.60777   2
   2   5  -7 217.429 10.3831   1
  -2  -5   7 236.469 10.6230   1
   2   5  -6 18.2653 3.83265   2
  -2  -5   6 28.9227 4.10499   2
   2   5  -6 28.7301 4.56686   1
  -2  -5   6 24.1390 4.33709   1
   2   5  -5 56.3332 5.35324   2
   2   5  -5 50.2285 5.61516   1
  -2  -5   5 52.9310 5.37338   1
  -2  -5   5 50.3125 4.99338   2
   2   5  -4 2.93476 3.17450   1
   2   5  -4 0.57056 2.72404   2
  -2  -5   4-0.28458 2.73482   2
  -2  -5   4 2.09201 3.45666   1
   2   5  -3 36.6267 4.82533   2
   2   5  -3 39.3950 5.18353   1
  -2  -5   3 34.6619 4.76007   2
  -2  -5   3 35.9303 4.92639   1
   2   5  -2 316.638 11.6256   2
  -2  -5   2 303.897 11.5076   2
   2   5  -2 298.809 11.7320   1
  -2  -5   2 295.285 11.7684   1
   2   5  -1 28.6852 5.00014   1
   2   5  -1 30.4389 4.51544   2
  -2  -5   1 24.8391 4.80815   1
  -2  -5   1 35.0525 4.78340   2
   2   5   0 11.3420 4.38786   1
  -2  -5   0 10.8285 4.27937   2
  -2  -5   0 16.9102 4.66963   1
   2   5   0 10.0216 3.82338   2
  -2  -5  -1 122.184 8.72767   1
  -2  -5  -1 119.800 8.63356   2
   2   5   1 137.256 8.77546   1
  -2  -5  -2 1.67439 4.31794   1
   2   5   2-3.71210 4.08759   1
  -2  -5  -2 6.41697 4.63612   2
  -2  -5  -3 10.8361 4.84494   2
   2   5   3 8.67379 4.10863   1
  -2  -5  -3 8.97543 5.16792   1
  -2  -5  -4 17.8581 5.96753   2
  -2  -5  -4 14.5278 5.80407   1
   2   5   4 16.4343 5.28809   1
  -2  -5  -5-0.81713 4.78959   2
  -2  -5  -5 4.93400 5.48839   1
   2   5   5-1.66721 4.23879   1
  -2  -5  -6 0.38014 6.10258   2
  -2  -5  -6 1.95478 5.36287   1
   2   5   6 3.21860 4.84949   1
  -2  -5  -7 11.2733 7.54240   2
  -2  -5  -7 8.40094 6.27658   1
   2   5   7 17.2699 7.09738   1
  -2  -5  -8 80.3995 10.3006   1
  -2  -5  -8 75.2224 11.1809   2
   2   5   8 81.9281 10.3457   1
   2   5   9 101.942 12.0481   1
  -2  -5  -9 81.2272 10.9642   1
  -2  -5  -9 84.2645 12.2019   2
  -2  -5 -10 34.5314 10.6833   1
   2   5  10 12.5671 9.61170   1
  -2  -6  16-7.59241 6.51391   1
  -2  -6  16-1.90676 6.14319   1
   2   6 -16-1.05916 6.25266   2
  -2  -6  15 11.9224 6.85699   1
   2   6 -15 13.8229 6.75232   2
  -2  -6  14 6.62666 6.29859   1
   2   6 -14 10.8728 6.44006   2
  -2  -6  14 10.3496 6.59248   1
  -2  -6  13 8.43718 5.40164   1
   2   6 -13 5.28536 5.35243   2
  -2  -6  13 15.6579 6.21397   1
  -2  -6  12 2.25232 4.80557   1
   2   6 -12-0.04479 4.75532   2
  -2  -6  12 1.29894 4.95355   1
  -2  -6  12-2.16343 4.41581   2
   2   6 -11-3.97837 4.59529   2
  -2  -6  11-1.17497 4.58759   1
  -2  -6  11 7.60718 4.58472   2
  -2  -6  11-7.13096 5.26826   1
  -2  -6  10 25.5000 5.25678   2
   2   6 -10 28.8990 5.54701   2
  -2  -6  10 26.0751 5.47101   1
  -2  -6  10 35.1552 6.13379   1
  -2  -6   9 10.9598 4.54742   1
   2   6  -9 3.70576 4.32740   1
   2   6  -9 13.4357 4.53705   2
  -2  -6   9 6.81732 3.99373   2
   2   6  -8 30.5897 5.27391   2
  -2  -6   8 18.8447 5.07223   1
  -2  -6   8 27.0996 4.94509   2
   2   6  -8 25.7117 5.09102   1
   2   6  -7 77.8995 6.87158   2
  -2  -6   7 85.8066 7.08607   2
   2   6  -7 85.9817 7.31727   1
  -2  -6   7 67.8547 6.97491   1
   2   6  -6 12.3647 4.14692   2
   2   6  -6 10.6745 4.01040   1
  -2  -6   6 9.43183 3.72266   2
  -2  -6   6 3.95899 3.57124   1
  -2  -6   5 67.2404 6.55816   2
   2   6  -5 74.7173 6.74947   2
   2   6  -5 71.2936 6.89416   1
  -2  -6   5 81.4369 7.36793   1
   2   6  -4 66.5862 6.60789   2
   2   6  -4 78.9927 6.94777   1
  -2  -6   4 83.5587 7.56606   1
  -2  -6   4 72.6105 6.61805   2
  -2  -6   3 144.156 9.00205   2
   2   6  -3 149.031 9.15779   1
  -2  -6   3 158.332 9.78129   1
   2   6  -3 152.524 9.09337   2
   2   6  -2 223.251 10.9013   2
  -2  -6   2 218.423 10.8890   2
   2   6  -2 233.190 11.6433   1
  -2  -6   2 230.595 11.3558   1
  -2  -6   1 211.370 11.4247   1
  -2  -6   1 209.073 11.2225   2
   2   6  -1 222.124 11.3878   2
   2   6  -1 194.112 10.7695   1
   2   6   0 327.164 13.7350   2
  -2  -6   0 333.533 14.1958   2
  -2  -6   0 338.881 14.3046   1
   2   6   0 314.019 13.8887   1
  -2  -6  -1 24.6105 5.37616   2
   2   6   1 15.2821 5.45653   1
  -2  -6  -1 25.8018 5.99873   1
  -2  -6  -2 32.6022 6.64157   2
  -2  -6  -2 42.0666 6.81131   1
   2   6   2 40.3972 6.59794   1
  -2  -6  -3-2.79576 4.35980   2
  -2  -6  -3-2.04831 5.36901   1
   2   6   3 6.80260 5.71322   1
  -2  -6  -4-6.18455 6.25823   2
  -2  -6  -4-1.91550 6.03178   1
   2   6   4 6.01727 5.05011   1
  -2  -6  -5 54.4440 8.40654   1
  -2  -6  -5 56.3712 8.84730   2
   2   6   5 57.1932 8.31617   1
  -2  -6  -6 110.224 11.9170   2
  -2  -6  -6 99.5078 10.9535   1
   2   6   6 106.585 11.2031   1
  -2  -6  -7 12.1962 8.47476   2
  -2  -6  -7 11.2916 8.22568   1
   2   6   7-7.71539 6.78562   1
  -2  -6  -8 111.825 14.7389   2
  -2  -6  -8 141.200 14.0758   1
  -2  -6  -9 4.32770 12.0209   2
  -2  -6  -9 14.3722 9.74866   1
   2   6   9 6.48119 10.0573   1
  -2  -7  15 44.1113 8.75225   1
   2   7 -15 56.4753 10.2158   2
  -2  -7  15 59.6867 9.81324   1
  -2  -7  14-2.34542 7.17766   1
   2   7 -14 13.0141 7.20146   2
  -2  -7  14 4.00340 6.70230   1
  -2  -7  13 2.44622 6.31474   1
  -2  -7  13 9.26732 6.02686   1
   2   7 -13 5.98622 6.45325   2
  -2  -7  12 4.03875 5.54191   1
   2   7 -12-2.12545 5.60998   2
  -2  -7  12-0.94858 5.54068   2
  -2  -7  12 3.73110 5.70418   1
   2   7 -11 52.2083 7.58493   2
  -2  -7  11 53.8603 7.49490   2
  -2  -7  11 54.3962 7.81199   1
  -2  -7  11 44.5984 7.40972   1
   2   7 -10 7.20068 4.95816   2
   2   7 -10 11.3970 5.24780   1
  -2  -7  10 13.5438 5.25738   2
  -2  -7  10 5.12440 5.06969   1
   2   7  -9 87.8159 8.39522   1
   2   7  -9 90.7375 8.41527   2
  -2  -7   9 90.4034 8.16980   2
  -2  -7   9 90.3010 8.64363   1
   2   7  -8 1.56131 4.84773   1
   2   7  -8 4.61685 4.76743   2
  -2  -7   8 3.18780 4.47313   2
  -2  -7   8 1.25439 4.22089   1
   2   7  -7 26.2442 5.81095   1
  -2  -7   7 29.8043 5.71753   2
  -2  -7   7 27.8655 5.84146   1
   2   7  -7 32.2127 5.71655   2
   2   7  -6 9.37255 4.84881   1
   2   7  -6 3.17554 4.08354   2
  -2  -7   6 10.7434 4.34879   2
  -2  -7   6 6.35506 4.72693   1
   2   7  -5 8.80388 4.41164   2
  -2  -7   5 5.72407 4.15209   1
  -2  -7   5 5.48832 4.55422   2
   2   7  -5 13.1324 5.03096   1
   2   7  -4 42.6606 6.41250   2
  -2  -7   4 41.5780 6.17423   2
   2   7  -4 50.4100 7.24934   1
  -2  -7   4 42.6212 6.98011   1
  -2  -7   3 1.16828 4.59764   1
   2   7  -3 4.59638 5.07020   2
  -2  -7   3 2.35000 4.21183   2
   2   7  -3 0.66023 4.59192   1
  -2  -7   2-5.55663 4.31180   1
   2   7  -2-9.30148 4.86989   2
  -2  -7   2 4.84724 5.20181   2
   2   7  -2-4.38076 5.10283   1
   2   7  -1 166.383 10.9201   2
  -2  -7   1 176.147 11.5301   1
  -2  -7   1 197.818 12.1211   2
   2   7  -1 171.152 11.3498   1
   2   7   0 34.7733 6.26127   2
  -2  -7   0 44.1287 7.35542   2
   2   7   0 31.2419 6.95445   1
  -2  -7   0 34.1046 7.06925   1
  -2  -7  -1 40.1724 7.60708   1
  -2  -7  -1 36.3040 7.18594   2
   2   7   1 29.3119 6.36564   1
   2   7   2 0.98528 4.84167   1
  -2  -7  -2-0.88779 6.53650   2
  -2  -7  -2 3.96636 6.41560   1
  -2  -7  -3 30.5104 8.69994   2
  -2  -7  -3 37.6992 8.44849   1
   2   7   3 38.0092 8.66857   1
  -2  -7  -4 6.69604 6.85279   2
  -2  -7  -4 8.94733 8.11339   1
   2   7   4 0.95835 6.57618   1
  -2  -7  -5 106.826 12.3962   1
  -2  -7  -5 107.150 12.3284   2
   2   7   5 90.9944 11.2770   1
  -2  -7  -6 108.685 13.4163   2
  -2  -7  -6 85.7362 12.8831   1
  -2  -7  -7 56.5578 12.5985   1
  -2  -7  -7 106.120 14.5080   2
  -2  -8  14 23.4498 7.99374   1
   2   8 -14 16.5595 8.58187   2
  -2  -8  14 41.2468 8.60179   1
   2   8 -13 7.91689 7.30374   2
  -2  -8  13 10.1752 7.56987   2
  -2  -8  13 12.9188 7.35261   1
  -2  -8  13 7.60516 7.12790   1
   2   8 -12-0.71225 6.69366   2
  -2  -8  12-4.79246 6.25671   2
  -2  -8  12-10.9286 7.35127   1
  -2  -8  12-2.64336 7.01905   1
   2   8 -11 53.2644 8.39829   2
  -2  -8  11 63.9760 8.67395   2
   2   8 -11 59.9662 8.33159   1
  -2  -8  11 69.6757 8.63979   1
   2   8 -10 12.1035 6.30750   1
   2   8 -10-3.90041 6.11301   2
  -2  -8  10-11.2527 5.92299   1
  -2  -8  10-7.08476 6.21213   2
  -2  -8   9 28.9542 6.96830   2
   2   8  -9 15.4928 6.02971   1
   2   8  -9 14.7157 6.01891   2
  -2  -8   9 27.4740 6.64989   1
   2   8  -8 41.2933 7.15528   2
  -2  -8   8 34.7002 6.87242   2
  -2  -8   8 41.8020 7.34620   1
   2   8  -8 35.8511 6.66820   1
   2   8  -7-1.19972 5.59527   2
   2   8  -7 4.71617 5.33856   1
  -2  -8   7 10.0884 5.50084   1
  -2  -8   7 16.8500 5.95553   2
   2   8  -6 13.1994 5.54385   2
  -2  -8   6 14.8769 5.94331   1
   2   8  -6 14.7324 5.93053   1
  -2  -8   6 18.2583 5.60864   2
   2   8  -5 86.4081 8.98529   2
  -2  -8   5 84.2386 9.12254   2
   2   8  -5 91.5064 9.44313   1
  -2  -8   5 92.9190 9.22210   1
  -2  -8   4 29.5797 6.73792   2
  -2  -8   4 32.0617 6.66422   1
   2   8  -4 23.5557 6.80121   2
   2   8  -4 22.3707 6.40799   1
   2   8  -3 116.729 10.1796   2
  -2  -8   3 112.313 10.5350   2
   2   8  -3 104.192 10.0538   1
  -2  -8   3 102.537 9.55398   1
   2   8  -2 260.003 14.3873   1
  -2  -8   2 247.420 14.4475   2
   2   8  -2 261.567 14.2795   2
  -2  -8   2 260.941 14.7818   1
   2   8  -1-2.22616 5.40487   2
  -2  -8   1 4.76594 6.20666   1
   2   8  -1-3.44010 6.13025   1
  -2  -8   1 7.08525 5.39378   2
   2   8   0 9.90162 6.44709   2
   2   8   0 0.32517 5.78987   1
  -2  -8   0 0.52734 5.84925   2
  -2  -8   0 11.0853 7.14619   1
   2   8   1 1.62980 6.53064   1
  -2  -8  -1 10.4822 7.74513   2
  -2  -8  -1 7.72383 7.11992   1
  -2  -8  -2 59.3071 9.67594   2
  -2  -8  -2 60.0897 10.7740   1
   2   8   2 59.1778 9.39497   1
   2   8   3 22.6813 8.26607   1
  -2  -8  -3 33.3985 9.72508   2
  -2  -8  -3 39.1171 8.85275   1
  -2  -8  -4 99.4441 12.6504   2
  -2  -8  -4 106.771 13.2415   1
   2   8   4 104.987 12.7260   1
  -2  -8  -5-0.08725 9.25926   2
  -2  -8  -5 23.8180 10.0343   1
   2   8   5 6.73289 9.18790   1
  -2  -8  -6 3.43891 10.2465   2
  -2  -8  -6 2.10773 10.2547   1
   2   8   6 9.21361 10.3245   1
  -2  -9  13 5.74950 8.06210   1
  -2  -9  13 4.96511 9.14622   2
  -2  -9  13 14.9302 8.17188   1
   2   9 -13 3.48544 9.55866   2
   2   9 -12 10.2039 8.48704   2
  -2  -9  12 11.9880 7.27145   1
  -2  -9  12 17.2358 8.12737   2
  -2  -9  12 20.9537 8.33046   1
   2   9 -11 70.5755 10.5270   2
  -2  -9  11 67.8827 10.1587   2
   2   9 -11 37.2217 8.63854   1
  -2  -9  11 51.6854 9.43056   1
  -2  -9  10 7.88193 6.76486   1
   2   9 -10 12.6337 6.59093   1
   2   9 -10 3.59099 7.79721   2
   2   9  -9 60.7881 8.90504   2
  -2  -9   9 58.1713 9.38963   1
  -2  -9   9 39.5113 8.15671   2
   2   9  -9 54.0858 8.80017   1
   2   9  -8 1.65571 6.61094   2
   2   9  -8 0.86434 6.59215   1
  -2  -9   8 18.1197 7.49152   2
  -2  -9   8 17.7371 7.89617   1
  -2  -9   7-11.5043 6.69122   1
   2   9  -7 14.7018 6.98026   1
   2   9  -7 6.07612 6.73240   2
  -2  -9   7 9.97475 7.20486   2
  -2  -9   6 3.91723 6.40354   1
   2   9  -6 9.26226 6.12384   2
   2   9  -6-3.46677 6.39889   1
  -2  -9   6 11.5438 7.40261   2
   2   9  -5 62.8148 9.18232   2
  -2  -9   5 73.8351 9.30062   2
   2   9  -5 72.3246 9.86564   1
  -2  -9   5 73.8105 9.47836   1
   2   9  -4 10.6320 7.50867   2
  -2  -9   4 5.83992 6.37284   2
  -2  -9   4 8.13261 7.66588   1
   2   9  -4 13.4241 7.66103   1
  -2  -9   3 0.40894 7.39324   1
   2   9  -3-2.83976 6.05991   2
  -2  -9   3-0.33741 6.13997   2
   2   9  -3-0.33908 6.97913   1
   2   9  -2 13.7385 8.44050   2
  -2  -9   2 16.3815 8.40347   2
   2   9  -2 6.84585 7.44240   1
  -2  -9   2 20.7565 8.73939   1
   2   9  -1 11.5166 8.15103   2
   2   9  -1 4.90858 6.46918   1
  -2  -9   1 5.61293 8.18449   2
  -2  -9   1-3.11044 8.31231   1
   2   9   0 14.0216 7.97144   1
  -2  -9   0 20.2194 8.20493   2
  -2  -9   0-7.29860 9.11551   1
   2   9   1 4.53464 7.34339   1
  -2  -9  -1-8.38160 9.27195   2
  -2  -9  -1 2.39591 8.55367   1
   2   9   2 8.75333 10.4051   1
  -2  -9  -2-11.7594 10.5942   2
  -2  -9  -2 15.2177 8.61827   1
   2   9   3 2.14488 11.2446   1
  -2  -9  -3 13.2028 9.17409   2
  -2  -9  -3 7.99201 10.7924   1
  -2  -9  -4 22.4265 12.6104   2
   2   9   4-4.32539 11.4498   1
  -2  -9  -4 5.17234 12.1093   1
  -2 -10  12-8.82315 7.64553   1
   2  10 -12-12.2789 8.88638   2
   2  10 -12 9.73129 7.83698   1
  -2 -10  12-8.82461 8.74904   2
   2  10 -11 16.7377 8.63450   1
  -2 -10  11-5.07266 9.06431   1
  -2 -10  11 18.6606 9.04087   2
   2  10 -11 8.56953 10.0045   2
  -2 -10  10 45.7565 10.0454   1
   2  10 -10 19.0522 8.22142   1
   2  10 -10 24.2281 9.46491   2
  -2 -10  10 32.8883 9.15366   2
  -2 -10   9 5.91411 7.88301   1
   2  10  -9 10.3985 8.94633   2
  -2 -10   9 0.72504 8.03584   2
   2  10  -9 2.68772 7.71198   1
   2  10  -8 46.9438 10.3848   2
  -2 -10   8 46.0386 10.9919   2
   2  10  -8 34.1588 8.85712   1
  -2 -10   8 43.4976 9.52760   1
  -2 -10   7 70.5548 10.8745   2
   2  10  -7 44.4886 9.79326   1
   2  10  -7 33.6373 9.00451   2
  -2 -10   7 48.2261 9.79287   1
  -2 -10   6 7.58031 7.27252   1
   2  10  -6-2.52409 8.00923   2
  -2 -10   6-8.87972 8.31306   2
   2  10  -6 4.09290 8.32855   1
  -2 -10   5 29.0564 9.61418   1
   2  10  -5 27.0474 9.47866   2
  -2 -10   5 8.12610 8.48382   2
   2  10  -5 24.4194 8.46543   1
   2  10  -4-1.22567 7.28486   2
  -2 -10   4 2.14121 7.58190   2
   2  10  -4 8.89333 8.77572   1
  -2 -10   4-2.98765 8.19893   1
   2  10  -3 15.4138 9.63361   2
  -2 -10   3 26.0132 10.2660   2
   2  10  -3 5.59654 8.39870   1
  -2 -10   3 5.54986 9.62077   1
   2  10  -2-0.80424 9.91894   2
  -2 -10   2-4.92202 9.82706   2
   2  10  -2 7.38283 9.34467   1
  -2 -10   2 15.2129 8.57253   1
   2  10  -1 48.0635 10.2900   1
  -2 -10   1 29.0272 9.72101   2
  -2 -10   1 43.8263 11.2506   1
   2  10  -1 16.6424 9.14251   2
   2  10   0-9.37158 10.0042   1
  -2 -10   0-5.41399 11.5724   2
  -2 -10   0 2.71415 10.7779   1
   2  10   1 47.6236 13.4342   1
  -2 -10  -1 23.6119 13.1360   2
  -2 -10  -1 41.3061 12.8316   1
  -2 -11   9 9.98086 6.49312   1
   2  11  -9 10.8600 7.01168   2
  -2 -11   9 11.1430 7.62849   2
   2  11  -9 2.78010 7.32055   1
  -2 -11   8 22.1368 10.8513   1
  -2 -11   8 44.6302 11.9208   2
   2  11  -8 41.9026 12.7165   2
   2  11  -8 39.6584 11.8961   1
  -2 -11   7 0.96490 10.4741   1
   2  11  -7-8.25229 11.3323   1
   2  11  -7-0.76257 9.14349   2
  -2 -11   7 1.36242 9.94918   2
   2  11  -6 14.5545 11.0933   2
  -2 -11   6-3.05026 10.0375   2
  -2 -11   6 20.6330 11.1566   1
   2  11  -6 6.92818 10.6478   1
   2  11  -5 10.7402 11.3742   2
  -2 -11   5 15.0131 11.8306   2
   2  11  -5 9.76255 11.2112   1
  -2 -11   5-3.07149 10.7854   1
   2  11  -4-1.05767 11.3376   2
  -2 -11   4 3.96427 12.1751   2
   2  11  -4-13.0478 11.0523   1
  -2 -11   4 11.4690 11.6018   1
  -2 -11   3-9.19182 11.7923   2
   2  11  -3-4.69174 10.4318   1
  -2 -11   3-9.28577 9.52225   1
   3 -11   3 5.92276 4.49417   1
  -3  11  -3 4.10570 4.52681   1
   3 -11   4 10.1067 5.52361   1
  -3  11  -4 25.5708 8.19174   2
   3 -11   4 11.8317 5.77289   2
  -3  11  -4 10.9821 5.72225   1
   3 -11   5 6.88503 3.99858   1
  -3  11  -5 7.34701 4.07285   1
  -3  10   2 1.39161 10.4449   1
  -3  10   2-3.32337 9.85632   2
   3 -10  -2-12.1017 10.2992   2
   3 -10  -2-2.65005 9.45522   1
   3 -10  -1 2.48380 10.2957   1
  -3  10   1 3.27716 9.71933   1
  -3  10   1-10.5069 9.47527   2
   3 -10  -1 8.48122 10.2658   2
  -3  10   0-11.7313 8.58362   1
   3 -10   0 0.21750 8.64229   1
  -3  10   0-1.47427 9.37557   2
   3 -10   0-3.55018 8.75344   2
   3 -10   1 4.28891 8.23343   1
  -3  10  -1 18.2828 8.65037   1
  -3  10  -1 4.40396 8.85881   2
   3 -10   1-7.33702 9.23349   2
   3 -10   2 23.7114 7.99663   1
  -3  10  -2 13.8111 8.07005   1
  -3  10  -2 10.5970 9.17929   2
   3 -10   2 27.3692 9.15669   2
   3 -10   3-7.26604 7.05854   1
  -3  10  -3-6.75059 8.37454   2
  -3  10  -3 5.90637 6.90861   1
   3 -10   3 7.66490 8.65135   2
   3 -10   4 5.01105 6.54973   1
  -3  10  -4-3.12683 7.93138   2
  -3  10  -4 10.2878 6.78555   1
   3 -10   4-8.65013 9.34918   2
   3 -10   5 0.99765 5.60460   1
  -3  10  -5 3.44328 10.2365   2
   3 -10   5-2.72106 9.70885   2
  -3  10  -5 3.99980 5.92259   1
  -3  10  -6-2.40206 5.16288   1
   3 -10   6 1.63326 5.09974   1
  -3  10  -7 8.12355 10.3742   2
  -3  10  -7 8.14677 4.18921   1
   3 -10   7 8.68302 4.17888   1
  -3  10  -8 13.7029 1.86996   1
  -3  10  -8 18.4261 12.2163   2
  -3  10  -9 15.4854 12.4865   2
   3 -10   9 8.86572 9.75292   2
  -3   9   5 21.0516 9.51792   1
   3  -9  -5 14.9606 7.44309   2
  -3   9   5 2.02464 7.21191   2
  -3   9   4 34.3475 10.0110   1
   3  -9  -4 27.3819 11.8659   1
  -3   9   4 30.1445 9.17492   2
   3  -9  -4 13.3218 8.65047   2
  -3   9   3 36.5090 10.9674   1
   3  -9  -3 26.1103 9.88001   1
  -3   9   3 16.9455 8.63404   2
   3  -9  -3 22.4542 8.99604   2
   3  -9  -2-0.36662 7.27505   1
  -3   9   2-5.08825 7.34387   2
  -3   9   2 9.91019 7.92971   1
   3  -9  -2-1.02476 7.48120   2
   3  -9  -1 12.8804 8.40575   1
  -3   9   1-9.83460 7.28846   2
  -3   9   1-1.54208 7.06423   1
   3  -9  -1 5.38435 7.28187   2
  -3   9   0-12.1985 7.58077   1
   3  -9   0 8.43364 7.12785   1
   3  -9   0-7.20662 7.39270   2
  -3   9   0 5.46620 6.71314   2
  -3   9  -1 15.5335 6.86527   1
   3  -9   1 18.4693 6.75835   1
  -3   9  -1 14.3317 7.43894   2
   3  -9   1-5.36020 7.42521   2
  -3   9  -2-9.84747 5.71369   1
   3  -9   2-0.41834 6.08927   1
  -3   9  -2-0.98929 6.69104   2
   3  -9   2-7.74738 7.67381   2
   3  -9   3 18.5076 5.98512   1
  -3   9  -3 20.8040 6.19359   1
  -3   9  -3 21.6316 8.24628   2
   3  -9   3 15.2195 7.36493   2
   3  -9   4 8.36138 5.08098   1
  -3   9  -4 2.06584 7.32663   2
  -3   9  -4 2.27518 4.94436   1
   3  -9   4 1.74210 7.05239   2
  -3   9  -5 10.9601 7.91006   2
   3  -9   5 6.86094 4.67752   1
  -3   9  -5 2.19211 4.40657   1
   3  -9   5 16.4674 7.17659   2
   3  -9   6-2.55514 3.91265   1
  -3   9  -6 3.65765 7.85544   2
  -3   9  -6 2.15306 3.74706   1
  -3   9  -7 2.23792 2.77413   1
   3  -9   7-0.67490 2.69871   1
  -3   9  -8 29.3138 10.5337   2
   3  -9   8 21.8058 8.53018   2
  -3   9  -9-3.38771 10.1911   2
   3  -9   9-0.32677 10.4258   2
  -3   9 -10 37.2213 11.6679   2
  -3   9 -11 26.9233 11.1051   2
   3  -8  -7-9.16130 7.42219   2
  -3   8   7 16.6953 11.7100   1
   3  -8  -6 4.31942 9.41373   1
   3  -8  -6 19.4393 7.86420   2
  -3   8   6 9.81692 8.85374   1
  -3   8   5-4.77468 6.57144   2
   3  -8  -5-12.6362 7.06802   2
   3  -8  -5 1.12611 8.94662   1
  -3   8   5 2.18293 9.75765   1
   3  -8  -4 35.8959 9.87489   1
  -3   8   4 35.8195 7.61065   2
   3  -8  -4 47.0245 8.10759   2
  -3   8   4 31.9983 9.72346   1
   3  -8  -3 5.59896 6.70343   1
  -3   8   3 5.72551 6.44321   2
   3  -8  -3 13.4149 6.51149   2
  -3   8   3 2.99460 7.95487   1
   3  -8  -2-2.29810 7.07860   1
  -3   8   2 0.48713 5.73526   2
   3  -8  -2 2.19032 6.09639   2
  -3   8   2-3.86775 6.47838   1
  -3   8   1 58.2740 8.24265   2
   3  -8  -1 58.3602 8.05789   2
  -3   8   1 48.3577 7.95584   1
   3  -8  -1 50.0899 8.26753   1
  -3   8   0 0.72097 5.58232   2
   3  -8   0 8.33355 6.20029   2
   3  -8   0-3.72741 5.49527   1
  -3   8   0 4.44182 5.78153   1
  -3   8  -1 63.2910 8.70856   2
   3  -8   1 60.6568 8.22145   2
  -3   8  -1 64.6813 7.85040   1
   3  -8   1 55.8523 7.42492   1
  -3   8  -2-3.15501 4.56312   1
   3  -8   2 3.03453 4.66917   1
  -3   8  -2 0.68966 5.31497   2
   3  -8   2 6.95128 5.21444   2
  -3   8  -3 13.4282 6.51573   2
   3  -8   3 31.9668 5.35922   1
  -3   8  -3 26.2451 5.55469   1
   3  -8   3 16.5855 6.40688   2
   3  -8   4 5.75269 3.68347   1
  -3   8  -4 7.23603 4.21894   1
  -3   8  -4 6.35250 5.69349   2
   3  -8   4 2.01501 5.80684   2
  -3   8  -5 53.8068 8.38428   2
   3  -8   5 46.1748 8.40366   2
  -3   8  -5 43.2857 5.06704   1
   3  -8   5 40.8564 5.05716   1
  -3   8  -6-0.58603 6.64366   2
   3  -8   6 2.58310 6.31199   2
  -3   8  -6 1.78204 2.82576   1
   3  -8   6 0.72924 2.85005   1
  -3   8  -7 7.85101 1.35019   1
   3  -8   7 5.14849 7.15018   2
  -3   8  -8-9.18353 8.34473   2
   3  -8   8 2.77164 7.50741   2
  -3   8  -9 18.4483 8.92175   2
  -3   8 -10-3.60674 9.33331   2
  -3   8 -11-1.18941 10.0994   2
  -3   8 -12 28.4281 11.3606   2
   3  -7  -8 42.7305 8.40816   2
   3  -7  -8 35.1504 11.7153   1
  -3   7   8 15.2305 10.3472   1
   3  -7  -7 8.03135 8.72207   1
   3  -7  -7 13.5507 6.71268   2
  -3   7   7 21.6377 10.0037   1
   3  -7  -6 33.4540 6.79722   2
   3  -7  -6 45.8579 10.7904   1
  -3   7   6 37.7158 9.91687   1
  -3   7   5 40.9378 6.98579   2
   3  -7  -5 28.4583 6.66263   2
  -3   7   5 23.5825 8.65277   1
   3  -7  -5 20.0673 8.28581   1
   3  -7  -4-0.39505 6.27746   1
  -3   7   4 6.34165 5.34180   2
   3  -7  -4 4.02050 5.31409   2
  -3   7   4-5.02028 7.74398   1
  -3   7   3 33.8946 6.33908   2
   3  -7  -3 35.9983 6.24705   2
   3  -7  -3 36.9843 7.49243   1
  -3   7   3 19.8216 7.40736   1
   3  -7  -2 66.1115 7.40077   2
  -3   7   2 67.5093 8.34205   1
   3  -7  -2 64.2932 8.04499   1
  -3   7   2 70.6936 7.42251   2
   3  -7  -1 51.6386 6.92189   2
  -3   7   1 41.0926 7.12086   1
  -3   7   1 40.2241 6.49052   2
   3  -7  -1 48.8710 7.01607   1
   3  -7   0-4.33997 4.42525   1
  -3   7   0 3.43895 4.83683   2
   3  -7   0-4.79737 4.46057   2
  -3   7   0-3.06265 4.69261   1
   3  -7   1 1.56515 4.27786   1
  -3   7  -1 1.44736 4.76858   2
   3  -7   1 1.49650 4.74272   2
  -3   7  -1-0.51281 4.02188   1
  -3   7  -2 238.218 12.4645   2
   3  -7   2 240.820 12.3358   2
   3  -7   2 241.011 10.7767   1
  -3   7  -2 229.588 10.7279   1
  -3   7  -3 176.706 11.2743   2
  -3   7  -3 192.004 9.16291   1
   3  -7   3 177.727 11.0088   2
   3  -7   3 199.760 9.26043   1
   3  -7   4 12.3510 3.68062   1
  -3   7  -4 16.9215 5.50775   2
  -3   7  -4 19.4924 4.00154   1
   3  -7   4 7.37686 4.91057   2
  -3   7  -5 87.9795 9.09026   2
   3  -7   5 63.0599 8.39437   2
  -3   7  -5 77.5720 5.19712   1
   3  -7   5 74.4382 5.10671   1
  -3   7  -6 1.52303 1.67735   1
  -3   7  -6 11.6577 6.05943   2
   3  -7   6 3.26317 5.36627   2
  -3   7  -6 1.78078 1.70052   1
  -3   7  -7 1.73498 5.37819   2
   3  -7   7 3.38113 6.02601   2
  -3   7  -8-4.93408 6.70242   2
  -3   7  -9 19.0183 8.18604   2
  -3   7 -10 20.2791 8.36397   2
  -3   7 -11 29.9084 9.51520   2
  -3   7 -12-9.56045 11.2545   2
  -3   7 -13 35.9053 12.2580   2
   3  -6 -10 1.21088 11.7448   1
   3  -6 -10 17.8539 7.33375   2
  -3   6  10-0.09328 11.9483   1
   3  -6  -9 4.84643 9.53480   1
   3  -6  -9-0.65393 6.17459   2
  -3   6   9-0.51870 8.35246   1
   3  -6  -8 10.2592 9.81180   1
   3  -6  -8-1.00693 5.41477   2
  -3   6   8 3.27855 9.42628   1
   3  -6  -7 14.1462 7.41746   1
   3  -6  -7 28.3215 6.05926   2
  -3   6   7 16.3142 8.90333   1
   3  -6  -6-4.51119 5.66867   1
   3  -6  -6 0.39091 4.63409   2
  -3   6   6-12.2670 7.18497   1
  -3   6   5 50.1497 6.12872   2
   3  -6  -5 45.7534 5.84296   2
  -3   6   5 54.0792 8.67950   1
   3  -6  -5 50.9330 8.13427   1
  -3   6   4 39.9015 5.65743   2
  -3   6   4 47.4384 7.30617   1
   3  -6  -4 39.1331 5.73376   2
   3  -6  -4 54.0583 8.07690   1
  -3   6   3 69.8236 6.71737   2
   3  -6  -3 82.3637 7.01028   2
  -3   6   3 89.4554 8.64205   1
   3  -6  -3 76.8453 8.50445   1
   3  -6  -2 7.90958 4.67866   1
  -3   6   2-0.11432 3.76933   2
   3  -6  -2 1.76222 3.71558   2
  -3   6   2 8.32306 4.47003   1
   3  -6  -1 15.9762 4.73381   1
  -3   6   1 13.8580 4.38108   2
   3  -6  -1 15.5223 4.35974   2
  -3   6   1 16.9035 5.08081   1
  -3   6   0 211.287 10.5467   2
  -3   6   0 199.452 10.3678   1
   3  -6   0 215.089 10.3707   2
   3  -6   0 224.951 10.7875   1
  -3   6  -1 205.167 10.5339   2
  -3   6  -1 224.735 10.2298   1
   3  -6   1 221.957 10.6412   2
   3  -6   1 218.340 10.0569   1
  -3   6  -2 95.6671 7.82683   2
  -3   6  -2 91.3580 6.52456   1
   3  -6   2 84.3413 7.28173   2
   3  -6   2 89.3143 6.41938   1
  -3   6  -3 26.3518 4.16545   1
  -3   6  -3 18.2449 4.69196   2
   3  -6   3 17.8080 4.74287   2
   3  -6   3 21.7292 3.78001   1
  -3   6  -4 60.7082 7.31080   2
   3  -6   4 55.6726 6.69951   2
  -3   6  -4 58.3830 4.59542   1
   3  -6   4 52.9997 4.46610   1
  -3   6  -5 125.331 9.72808   2
   3  -6   5 134.408 9.65679   2
  -3   6  -5 130.813 5.16774   1
  -3   6  -5 135.146 5.34467   1
   3  -6   6 35.8848 7.10671   2
  -3   6  -6 39.6422 6.82019   2
  -3   6  -7-10.0221 5.81504   2
  -3   6  -8 17.5913 6.93977   2
  -3   6  -9 93.1549 10.2143   2
  -3   6 -10 13.5125 8.17083   2
  -3   6 -11 17.9141 8.51465   2
  -3   6 -12 19.6037 10.6795   2
  -3   6 -13-10.5492 10.5593   2
   3  -5 -11 3.73569 6.11634   2
  -3   5  11-8.24692 9.12861   1
   3  -5 -10-1.60213 7.85870   1
   3  -5 -10-3.08082 5.22057   2
  -3   5  10-10.9797 8.93174   1
   3  -5  -9-0.46788 8.86101   1
   3  -5  -9 0.45716 4.67298   2
  -3   5   9 16.6329 8.93954   1
   3  -5  -8 7.35250 7.51605   1
   3  -5  -8-3.70084 4.41864   2
  -3   5   8-9.99506 7.09670   1
   3  -5  -7 15.2378 6.93455   1
   3  -5  -7 12.3242 4.12675   2
  -3   5   7 20.2268 7.18353   1
   3  -5  -6 7.15876 6.30388   1
   3  -5  -6 5.50769 3.70405   2
  -3   5   6 7.90917 5.28881   1
   3  -5  -5 12.7701 5.91496   1
   3  -5  -5 3.29379 3.16784   2
  -3   5   5 0.49854 4.77793   1
  -3   5   5 10.9968 3.58389   2
   3  -5  -4 10.8640 5.24329   1
  -3   5   4 15.3957 3.78510   2
   3  -5  -4 14.2970 3.80247   2
  -3   5   4 19.0181 5.23469   1
   3  -5  -3-2.82466 4.53729   1
  -3   5   3-0.84121 2.95000   2
   3  -5  -3 0.29882 3.13304   2
  -3   5   3 3.89041 4.33637   1
   3  -5  -2 9.27826 3.97590   1
  -3   5   2 14.3692 3.84819   2
  -3   5   2 8.60187 4.01496   1
   3  -5  -2 9.96699 3.33530   2
  -3   5   1 106.795 7.55124   1
  -3   5   1 100.551 6.80976   2
   3  -5  -1 112.133 6.97077   2
   3  -5  -1 110.964 7.78059   1
  -3   5   0 251.388 10.4116   1
  -3   5   0 249.793 10.1928   2
   3  -5   0 258.191 10.2487   2
   3  -5   0 254.762 10.5447   1
  -3   5  -1 133.905 7.40274   1
  -3   5  -1 152.810 8.41861   2
   3  -5   1 146.474 8.16359   2
   3  -5   1 146.433 7.72733   1
  -3   5  -2-0.18533 3.25270   2
  -3   5  -2 3.27212 2.67905   1
   3  -5   2 5.89902 3.62036   2
   3  -5   2 0.53981 2.68076   1
  -3   5  -3 2.90240 3.73824   2
   3  -5   3 8.29570 4.22959   2
  -3   5  -3 7.98074 2.72204   1
   3  -5   3 7.85488 2.70169   1
  -3   5  -4 6.29723 4.17761   2
   3  -5   4-0.29364 4.17473   2
  -3   5  -4 5.96122 2.18060   1
  -3   5  -4 7.89294 2.31228   1
  -3   5  -5 18.9058 1.99272   1
  -3   5  -5 21.0819 4.83241   2
  -3   5  -5 16.9524 1.83625   1
  -3   5  -6 33.2463 6.04757   2
  -3   5  -7 56.4071 7.47154   2
  -3   5  -8-3.78304 4.76604   2
  -3   5  -9 78.5139 9.45565   2
  -3   5 -10 19.3844 6.83268   2
  -3   5 -11 2.30764 8.23161   2
  -3   5 -12-3.66889 9.35067   2
  -3   5 -13-7.26134 11.2097   2
   3  -4 -12 35.6329 6.42381   2
  -3   4  12 11.2766 9.89700   1
   3  -4 -11 17.6209 5.02831   2
   3  -4 -11 5.31425 10.0563   1
  -3   4  11 16.4117 10.0012   1
  -3   4  10 115.066 12.5986   1
   3  -4 -10 112.230 7.10334   2
   3  -4 -10 130.378 13.1500   1
   3  -4  -9 12.0086 6.66145   1
   3  -4  -9 1.42956 3.53565   2
  -3   4   9 3.33174 7.59995   1
   3  -4  -8 4.74902 5.30242   1
   3  -4  -8 6.79153 3.34424   2
  -3   4   8 10.6033 6.60343   1
   3  -4  -7 40.3049 4.30286   2
  -3   4   7 30.7546 7.10117   1
   3  -4  -7 39.8902 7.15239   1
   3  -4  -6 50.7582 4.49967   2
   3  -4  -6 56.6664 7.76413   1
  -3   4   6 49.2537 6.78019   1
  -3   4   5 20.8859 3.33404   2
   3  -4  -5 12.5785 5.27257   1
   3  -4  -5 17.1259 3.16779   2
  -3   4   5 21.1543 5.63361   1
  -3   4   4 72.9267 4.90110   2
   3  -4  -4 71.2898 4.83326   2
   3  -4  -4 72.5929 7.39431   1
  -3   4   4 65.7698 6.63330   1
   3  -4  -3 165.838 6.89594   2
  -3   4   3 176.569 7.26853   2
   3  -4  -3 158.859 9.30851   1
  -3   4   3 163.770 9.42796   1
   3  -4  -2-1.40417 3.01119   1
  -3   4   2-2.23912 2.53692   2
  -3   4   2 2.71946 2.92733   1
   3  -4  -2-0.54072 2.40778   2
  -3   4   1 142.039 6.92476   2
   3  -4  -1 147.744 6.97464   2
   3  -4  -1 154.216 8.29829   1
  -3   4   1 158.661 8.37468   1
  -3   4   0 3.61929 2.80861   1
  -3   4   0-3.06653 2.54146   2
   3  -4   0-4.20831 2.81414   2
   3  -4   0-1.19167 2.88177   1
  -3   4  -1 15.8155 3.61337   2
   3  -4   1 22.5901 3.87347   2
   3  -4   1 16.5950 3.41510   1
  -3   4  -1 17.6062 3.29601   1
  -3   4  -2 4.13548 2.32101   1
  -3   4  -2 4.74961 3.14834   2
   3  -4   2 5.54553 3.18706   2
   3  -4   2 1.48592 2.35149   1
  -3   4  -3 14.3695 2.48835   1
  -3   4  -3 9.33106 3.89273   2
  -3   4  -3 14.4753 2.54222   1
  -3   4  -4 1.99897 1.60492   1
  -3   4  -4 1.27408 3.41188   2
  -3   4  -4-0.95470 1.61072   1
  -3   4  -5 17.4272 1.46720   1
  -3   4  -5 19.6498 1.58754   1
  -3   4  -5 18.7625 4.37653   2
  -3   4  -6 248.046 12.1566   2
  -3   4  -7 226.177 12.2586   2
  -3   4  -8 34.1623 6.90580   2
  -3   4  -9 16.6782 6.47902   2
  -3   4 -10 4.91594 7.04870   2
  -3   4 -11 9.36798 7.50397   2
  -3   4 -12 8.35063 9.60974   2
  -3   4 -13 16.2292 8.69589   2
   3  -3 -13 14.2756 4.80058   2
  -3   3  13-11.5662 10.0142   1
   3  -3 -13 13.0687 4.82120   2
   3  -3 -13 7.85824 11.9633   1
   3  -3 -12 4.41593 3.81988   2
  -3   3  12-2.25974 10.3266   1
   3  -3 -12 2.99386 3.73670   2
   3  -3 -12 2.97338 7.98436   1
   3  -3 -11-2.17531 3.19699   2
  -3   3  11 3.79210 7.05791   1
   3  -3 -10 0.77143 2.79441   2
  -3   3  10-4.03689 7.24674   1
   3  -3 -10 6.72453 7.46035   1
   3  -3  -9-2.12774 6.74047   1
   3  -3  -9-0.56360 2.53930   2
  -3   3   9 1.07154 5.43924   1
   3  -3  -8-0.94717 5.87336   1
  -3   3   8-3.25983 4.88335   1
   3  -3  -8 0.01697 2.11616   2
   3  -3  -7-6.14025 4.26807   1
  -3   3   7-1.54664 5.35237   1
   3  -3  -7 1.12782 1.94051   2
  -3   3   6 1.70945 4.53314   1
   3  -3  -6 0.39828 4.05357   1
   3  -3  -6 4.14352 1.86966   2
   3  -3  -5 19.1120 4.53587   1
   3  -3  -5 16.3171 2.29376   2
  -3   3   5 24.1480 5.24090   1
  -3   3   4 90.2334 4.32887   2
   3  -3  -4 85.6725 4.16825   2
   3  -3  -4 86.7153 7.40424   1
  -3   3   4 96.3997 7.56051   1
  -3   3   3 23.6890 2.76634   2
   3  -3  -3 21.8713 2.65728   2
   3  -3  -3 24.6753 4.38282   1
  -3   3   3 25.1156 4.66626   1
  -3   3   2 6.71465 3.26962   1
  -3   3   2 6.59872 2.19734   2
   3  -3  -2 3.96419 1.98672   2
   3  -3  -2 7.49554 3.04728   1
  -3   3   1 231.863 7.66115   2
   3  -3  -1 222.028 7.45373   2
   3  -3  -1 225.327 9.30896   1
  -3   3   1 224.787 9.16817   1
  -3   3   0 3.60471 2.55730   1
  -3   3   0 7.10537 2.56908   2
   3  -3   0 5.37615 2.48444   2
   3  -3   0 4.82960 2.69294   1
  -3   3  -1 335.582 10.3331   2
  -3   3  -1 340.450 9.75444   1
  -3   3  -1 333.162 9.78235   1
  -3   3  -2 131.083 7.08182   2
  -3   3  -2 126.589 5.74786   1
  -3   3  -2 133.880 5.85249   1
  -3   3  -3 168.161 8.41825   2
  -3   3  -3 148.702 5.61424   1
  -3   3  -3 167.394 5.98216   1
  -3   3  -4 40.9618 2.84328   1
  -3   3  -4 38.8953 4.85748   2
  -3   3  -4 44.8274 3.00195   1
  -3   3  -5 6.28027 1.22554   1
  -3   3  -5 6.66233 4.00833   2
  -3   3  -5 7.33998 1.23023   1
  -3   3  -6-0.30699 4.09984   2
  -3   3  -7 39.6198 6.64676   2
  -3   3  -8 18.1970 5.17757   2
  -3   3  -9 13.9579 6.52065   2
  -3   3 -10 5.95004 6.69505   2
  -3   3 -11 7.83583 7.08994   2
  -3   3 -12-6.79456 7.52030   2
  -3   3 -13-17.4616 10.7507   2
   3  -2 -14 12.5232 2.92019   2
   3  -2 -14 7.14521 2.69025   2
  -3   2  14 24.0125 8.64434   1
   3  -2 -14 31.4167 8.90992   1
   3  -2 -13 7.20863 3.07448   2
  -3   2  13-9.95123 9.30998   1
   3  -2 -13 5.66500 3.13165   2
   3  -2 -13-3.21756 10.6092   1
   3  -2 -12 10.3037 2.91957   2
  -3   2  12 10.3636 7.49733   1
   3  -2 -12 16.0569 3.13205   2
   3  -2 -12 5.41353 8.80055   1
  -3   2  11 8.28710 6.31172   1
   3  -2 -11 2.44343 2.25465   2
   3  -2 -11-3.65886 6.53870   1
   3  -2 -10 133.703 4.68397   2
   3  -2 -10 134.104 4.68982   2
   3  -2 -10 133.597 11.4671   1
  -3   2  10 129.959 11.2352   1
   3  -2  -9 16.3698 1.88286   2
  -3   2   9 10.6241 6.28607   1
   3  -2  -9 22.7411 7.09981   1
  -3   2   8 1.33020 4.70614   1
   3  -2  -8-4.37419 4.42266   1
  -3   2   7 8.93554 4.07352   1
   3  -2  -7 15.0927 4.41352   1
  -3   2   6 22.3056 5.01723   1
   3  -2  -6 23.6850 5.37532   1
   3  -2  -5 9.46262 0.98659   2
  -3   2   5 12.5101 4.32301   1
   3  -2  -5 7.77012 3.55736   1
  -3   2   4 1.96297 3.39452   1
  -3   2   4 0.78939 0.93638   2
   3  -2  -4-2.29658 3.52955   1
  -3   2   3 91.5677 3.59048   2
   3  -2  -3 94.6260 6.90624   1
  -3   2   3 87.6289 6.42784   1
  -3   2   2 18.5135 2.24951   2
  -3   2   2 20.7701 3.60871   1
   3  -2  -2 17.9417 3.74848   1
  -3   2   1 141.507 5.52908   2
  -3   2   1 140.898 7.08050   1
  -3   2   1 151.151 7.37582   1
  -3   2   0 267.979 8.98343   1
  -3   2   0 287.443 8.35892   2
  -3   2   0 270.907 9.10249   1
  -3   2  -1 138.918 6.44508   2
  -3   2  -1 139.917 6.29734   1
  -3   2  -1 140.249 6.29236   1
  -3   2  -2 283.538 9.64626   2
  -3   2  -2 282.209 8.15510   1
  -3   2  -2 275.302 8.15935   1
  -3   2  -3 641.258 11.3201   1
  -3   2  -3 624.361 15.0948   2
  -3   2  -3 659.259 11.5959   1
  -3   2  -4 32.5576 4.58214   2
  -3   2  -4 31.1844 2.83082   1
  -3   2  -4 34.2803 2.84683   1
  -3   2  -5 174.455 9.49900   2
  -3   2  -5 180.442 5.27816   1
  -3   2  -5 177.342 5.31829   1
  -3   2  -6 54.4511 6.49769   2
  -3   2  -6 43.5432 2.58333   1
  -3   2  -6 51.8220 2.77298   1
  -3   2  -7 32.6529 6.13240   2
  -3   2  -7 34.5913 1.93108   1
  -3   2  -8 384.078 16.1784   2
  -3   2  -9 9.52401 6.08350   2
  -3   2 -10 101.562 10.8711   2
  -3   2 -11 3.39618 7.76326   2
  -3   2 -12 12.1275 9.81597   2
  -3   2 -13 10.9505 10.5917   2
   3  -1 -14 15.1055 2.87272   2
  -3   1  14 0.16077 9.94800   1
   3  -1 -13 21.9961 2.76814   2
  -3   1  13 22.9937 9.69052   1
   3  -1 -13 32.3703 10.3391   1
   3  -1 -12 0.35629 1.62411   2
  -3   1  12-0.34493 6.48676   1
   3  -1 -12-0.73875 1.66752   2
   3  -1 -12 7.16013 7.78001   1
  -3   1  11-4.32982 5.40336   1
   3  -1 -11 1.06943 1.06127   2
   3  -1 -11-9.09187 6.59202   1
  -3   1  10 1.22962 5.51657   1
   3  -1 -10-1.50666 4.80657   1
  -3   1   9 26.1989 6.38407   1
   3  -1  -9 27.2792 6.44394   1
   3  -1  -8 49.1700 7.00748   1
  -3   1   8 59.1451 7.18664   1
  -3   1   7 5.81125 3.84184   1
   3  -1  -7-3.50782 3.69834   1
  -3   1   6 3.38358 3.81981   1
   3  -1  -6 1.37208 3.06500   1
  -3   1   5 13.0962 3.64789   1
   3  -1  -5 22.4689 4.72646   1
  -3   1   4 122.314 7.59592   1
  -3   1   4 139.055 8.12260   1
  -3   1   3 3.86986 3.11353   1
  -3   1   3 2.37112 0.82635   2
  -3   1   3-2.09227 2.85397   1
  -3   1   2 366.351 11.3116   1
  -3   1   2 363.076 6.96134   2
  -3   1   2 360.695 11.3701   1
  -3   1   1 9.27399 2.90825   1
  -3   1   1 13.4016 2.10494   2
  -3   1   1 11.0998 3.06881   1
  -3   1   0 1.37316 2.12567   1
  -3   1   0 4.16096 2.06986   2
  -3   1   0 1.67699 2.31354   1
  -3   1  -1 31.9563 3.58053   2
  -3   1  -1 28.9001 3.33630   1
  -3   1  -1 35.1203 3.70856   1
  -3   1  -2 2.59519 1.96639   1
  -3   1  -2 4.47190 2.73856   2
  -3   1  -2 6.06485 2.21711   1
  -3   1  -3 89.8352 6.33088   2
   3  -1   3 84.1568 4.73094   1
  -3   1  -3 84.3555 4.67694   1
   3  -1   4 5.57134 2.07472   1
  -3   1  -4 9.14994 2.22791   1
  -3   1  -4 7.90568 3.60550   2
  -3   1  -5 448.241 14.6536   2
  -3   1  -5 446.139 9.74861   1
   3  -1   5 444.775 9.70131   1
  -3   1  -6 384.147 9.10753   1
  -3   1  -6 363.994 14.1080   2
   3  -1   6 366.267 8.78263   1
  -3   1  -7 147.767 5.82911   1
  -3   1  -7 145.052 10.0069   2
   3  -1   7 159.949 5.98629   1
  -3   1  -8 36.3446 7.14960   2
   3  -1   8 41.5771 3.50495   1
  -3   1  -8 39.7327 3.42318   1
  -3   1  -9 264.005 14.8262   2
   3  -1   9 252.913 7.52200   1
  -3   1  -9 243.349 7.32855   1
   3  -1  10 25.0154 3.21416   1
  -3   1 -10 27.1468 7.82280   2
  -3   1 -10 29.0507 3.28674   1
  -3   1 -11-1.92399 2.56636   1
   3  -1  11 0.08597 2.50083   1
  -3   1 -11 3.26432 6.32319   2
  -3   1 -12 6.29862 2.68570   1
   3  -1  12 6.04618 2.59382   1
  -3   1 -12 1.66890 9.98482   2
  -3   1 -13 0.17334 8.92903   2
  -3   1 -13-2.93594 1.96946   1
  -3   0  15 15.2421 10.1762   1
   3   0 -15 10.9231 2.23528   2
  -3   0  15 17.9250 10.1582   1
  -3   0  14-2.04397 8.61257   1
   3   0 -14-2.54288 1.96317   2
  -3   0  14 6.99288 8.99342   1
  -3   0  13 4.95395 7.55246   1
  -3   0  13 6.24112 7.90571   1
   3   0 -13 9.00649 1.63334   2
  -3   0  12 124.543 11.9176   1
  -3   0  12 168.805 12.6276   1
  -3   0  11 41.1780 6.88806   1
  -3   0  11 59.0506 8.59232   1
  -3   0  10 14.8177 5.56406   1
  -3   0  10-4.01818 5.35733   1
  -3   0   9-4.26152 4.20847   1
  -3   0   9 1.08101 4.14953   1
  -3   0   8 466.834 16.4029   1
  -3   0   8 474.001 16.5259   1
  -3   0   7 133.303 8.93931   1
  -3   0   7 140.335 9.16395   1
  -3   0   6 48.2358 5.39369   1
  -3   0   6 41.4767 5.55288   1
  -3   0   5 3.83582 3.27033   1
  -3   0   5 13.3400 3.47613   1
  -3   0   4 3.47606 3.29744   1
  -3   0   4 1.08848 2.89407   1
  -3   0   3 38.4453 1.86827   2
  -3   0   3 36.3082 1.76928   2
  -3   0   3 46.6806 4.72674   1
  -3   0   3 43.9990 4.72391   1
  -3   0   2 0.41003 2.30590   1
  -3   0   2 2.98285 1.42444   2
  -3   0   2 2.99473 2.77640   1
  -3   0   1 0.82053 2.42682   1
  -3   0   1 1.85005 2.57333   1
   3   0   0 6.69132 2.58254   1
  -3   0   0 2.59270 2.41025   1
   3   0   1 480.325 11.7741   1
  -3   0  -1 460.530 11.5640   1
  -3   0  -2-2.73530 2.35911   1
   3   0   2 7.85705 2.58741   1
  -3   0  -3 94.1098 5.44018   1
   3   0   3 105.548 5.76308   1
  -3   0  -4 52.9475 4.48724   1
   3   0   4 54.3559 4.41906   1
  -3   0  -5 128.548 6.42036   1
   3   0   5 136.102 6.51099   1
  -3   0  -6 121.878 6.45277   1
   3   0   6 110.609 6.02080   1
  -3   0  -7 76.0965 5.38997   1
   3   0   7 72.7007 5.25904   1
  -3   0  -8 2.13471 2.92335   1
   3   0   8 0.87363 2.88692   1
  -3   0  -9 5.09720 3.15065   1
   3   0   9 1.44199 3.21326   1
   3   0  10 32.2791 4.73236   1
  -3   0 -10 39.2988 5.07312   1
  -3   0 -11 12.9108 4.38678   1
   3   0  11 12.7711 4.29158   1
  -3   0 -11 8.10636 7.21863   2
   3   0  12 61.6513 6.30053   1
  -3   0 -12 61.9105 11.1648   2
  -3   0 -12 49.7785 6.08621   1
   3   0  13 36.5353 5.92337   1
  -3   0 -13 33.0007 5.89476   1
  -3  -1  15 12.6254 10.0410   1
   3   1 -15 9.52317 2.42827   2
  -3  -1  14 10.4583 8.69052   1
   3   1 -14 3.98528 1.86700   2
  -3  -1  14 11.0737 8.82628   1
   3   1 -13 1.77784 1.28085   2
  -3  -1  13 9.81227 7.44453   1
  -3  -1  12 10.1169 5.84559   1
  -3  -1  12 10.0551 6.48605   1
  -3  -1  11 37.6412 6.75970   1
  -3  -1  11 38.3447 6.79340   1
  -3  -1  10 336.177 15.0920   1
  -3  -1  10 368.193 15.6627   1
  -3  -1   9 78.5215 7.59693   1
  -3  -1   9 75.0405 7.81941   1
  -3  -1   8 2.10443 4.03237   1
  -3  -1   8 6.83312 3.75153   1
  -3  -1   7 20.4141 4.83913   1
  -3  -1   7 9.90741 4.15051   1
  -3  -1   6-2.08630 3.28270   1
  -3  -1   6-2.81991 3.23142   1
  -3  -1   5 547.899 15.5076   1
  -3  -1   5 551.959 15.6760   1
  -3  -1   4 293.858 4.48310   2
  -3  -1   4 288.587 11.0761   1
  -3  -1   4 305.189 11.4973   1
  -3  -1   3 19.9203 2.05486   2
  -3  -1   3 20.1022 3.70290   1
  -3  -1   3 18.0042 3.66532   1
   3   1  -2 2.05993 2.53280   1
  -3  -1   2 5.35205 1.87925   2
  -3  -1   2 9.46086 3.26283   1
  -3  -1   1 110.205 5.29985   2
   3   1  -1 108.987 6.62414   1
  -3  -1   1 105.822 6.44825   1
  -3  -1   0 55.9199 4.80261   1
   3   1   0 62.7104 5.15515   1
   3   1   1 188.729 8.14149   1
  -3  -1  -1 181.458 7.90407   1
   3   1   2 27.0155 3.81205   1
  -3  -1  -2 29.7521 3.90145   1
   3   1   3 3.61334 2.69965   1
  -3  -1  -3 3.21679 2.75463   1
  -3  -1  -4 16.9123 3.57508   1
   3   1   4 22.3585 3.77642   1
  -3  -1  -5 4.93009 3.13108   1
   3   1   5 4.51275 2.96167   1
   3   1   6 85.0491 6.29397   1
  -3  -1  -6 83.2171 6.29053   1
   3   1   7 18.3301 3.99311   1
  -3  -1  -7 17.7126 4.30970   1
   3   1   8-3.99832 3.82014   1
  -3  -1  -8 2.36333 3.83811   1
   3   1   9 12.5446 4.67390   1
  -3  -1  -9 5.41940 4.31993   1
  -3  -1 -10-3.99399 4.78689   1
   3   1  10 6.65147 4.64403   1
  -3  -1 -11-5.54952 5.07926   1
   3   1  11 0.89181 5.34064   1
   3   1  12 58.4497 7.82860   1
  -3  -1 -12 71.2394 8.59125   1
   3   2 -15-1.75491 2.50560   2
  -3  -2  15-2.90307 8.55003   1
  -3  -2  14 6.74637 8.39437   1
   3   2 -14-2.02335 2.15562   2
  -3  -2  14-1.80486 7.75853   1
   3   2 -13-0.22567 1.79369   2
  -3  -2  13-2.45901 6.44287   1
   3   2 -13 1.97492 1.82009   2
  -3  -2  13-4.33215 6.71823   1
  -3  -2  12 3.36940 5.67952   1
   3   2 -12 10.9899 1.67823   2
   3   2 -12 13.2881 1.87511   2
  -3  -2  12 18.5689 7.05912   1
   3   2 -11 13.3197 1.47049   2
  -3  -2  11 21.2478 6.51002   1
  -3  -2  11 11.4189 5.28721   1
  -3  -2  10 110.787 9.31123   1
  -3  -2  10 98.5359 8.87053   1
  -3  -2   9 6.43832 4.33276   1
  -3  -2   9 9.89692 4.64817   1
  -3  -2   8 28.7347 5.60328   1
  -3  -2   8 33.6779 5.73233   1
  -3  -2   7 18.3253 4.79782   1
  -3  -2   7 15.0254 4.61184   1
  -3  -2   6 33.8385 1.75975   2
  -3  -2   6 32.7754 5.01283   1
  -3  -2   6 32.0660 5.21292   1
  -3  -2   5 418.269 7.01714   2
  -3  -2   5 416.866 13.8517   1
  -3  -2   5 415.200 13.8571   1
  -3  -2   4 348.035 7.51749   2
   3   2  -4 337.615 12.0468   1
  -3  -2   4 349.464 12.3688   1
  -3  -2   3 407.553 9.12458   2
   3   2  -3 411.460 13.0888   1
  -3  -2   3 408.689 13.0154   1
  -3  -2   2 73.3431 4.61810   2
  -3  -2   2 75.5138 5.89214   1
   3   2  -2 76.0376 6.03502   1
  -3  -2   1 43.9914 4.66866   1
  -3  -2   1 37.0722 3.93724   2
   3   2  -1 41.5767 4.59211   1
  -3  -2   0 4.83542 2.95252   1
  -3  -2   0 1.50787 2.62677   2
   3   2   0 5.01031 2.81344   1
   3   2   1-0.81158 2.95412   1
  -3  -2  -1 0.90424 2.87778   2
  -3  -2  -1-0.64078 2.51801   1
  -3  -2  -2 331.495 11.9046   2
   3   2   2 321.209 11.3505   1
  -3  -2  -2 369.887 12.1909   1
  -3  -2  -3 33.0532 5.27076   2
   3   2   3 26.4717 4.38691   1
  -3  -2  -3 34.9330 4.74181   1
   3   2   4 235.003 10.2523   1
  -3  -2  -4 237.309 10.3345   1
   3   2   5 26.7318 4.70309   1
  -3  -2  -5 43.1135 5.52563   1
   3   2   6 10.8709 4.07129   1
  -3  -2  -6 4.44396 4.02288   1
   3   2   7 2.96200 4.32930   1
  -3  -2  -7 3.33358 4.19870   1
  -3  -2  -8 12.8256 6.28189   2
   3   2   8-3.60456 4.68980   1
  -3  -2  -8 5.39390 4.66179   1
  -3  -2  -9 7.77665 6.57179   2
   3   2   9 1.81706 4.82876   1
  -3  -2  -9 2.66792 5.14260   1
  -3  -2 -10 3.89943 7.69698   2
   3   2  10 2.88034 5.71563   1
  -3  -2 -10 5.11821 6.11284   1
  -3  -2 -11 9.35188 9.32897   2
   3   2  11-0.40419 6.97834   1
  -3  -2 -11 17.3145 6.74206   1
  -3  -3  15 14.0241 9.28371   1
   3   3 -15 8.20649 3.47662   2
  -3  -3  15 12.5872 8.84698   1
   3   3 -14 13.3152 3.54755   2
  -3  -3  14 17.5560 8.13805   1
  -3  -3  14 13.1471 7.87009   1
  -3  -3  13 1.56824 6.60899   1
   3   3 -13 2.78788 2.68180   2
  -3  -3  13 0.50496 6.46193   1
   3   3 -12 12.0995 2.72691   2
  -3  -3  12 11.1152 6.45222   1
  -3  -3  12 11.0475 5.67462   1
   3   3 -11 48.9424 3.59408   2
  -3  -3  11 55.5858 7.95620   1
  -3  -3  11 50.0176 7.55185   1
   3   3 -10 55.7474 3.49439   2
  -3  -3  10 59.3293 7.65167   1
  -3  -3  10 55.0866 7.14925   1
   3   3  -9 24.6743 2.54518   2
  -3  -3   9 23.2782 5.31794   1
  -3  -3   9 21.5667 5.23956   1
   3   3  -8 24.7219 2.48437   2
  -3  -3   8 24.6885 2.43771   2
  -3  -3   8 34.7062 5.39674   1
  -3  -3   8 26.8859 5.33170   1
  -3  -3   7 1.21587 3.94531   1
   3   3  -7 1.02255 1.69067   2
  -3  -3   7 0.18263 1.61567   2
   3   3  -6 2.16718 1.80971   2
  -3  -3   6 2.54590 1.87642   2
  -3  -3   6 5.36914 3.91672   1
  -3  -3   5 0.17846 1.92031   2
   3   3  -5 0.03938 3.04435   1
  -3  -3   5 3.80037 3.46608   1
  -3  -3   4 25.0499 3.14589   2
  -3  -3   4 18.8076 4.57876   1
   3   3  -4 29.5887 4.69162   1
  -3  -3   3 3.47757 2.51840   2
  -3  -3   3 0.96627 2.85881   1
   3   3  -3-2.64034 3.48771   1
   3   3  -2 98.1282 7.26907   1
  -3  -3   2 97.6174 7.13920   1
  -3  -3   2 100.643 6.07665   2
  -3  -3   1 57.3920 5.12720   2
   3   3  -1 59.2152 5.65835   1
  -3  -3   1 52.0507 5.47424   1
   3   3   0 3.30177 3.51789   1
  -3  -3   0-2.33281 2.98196   2
  -3  -3   0 0.36792 3.22110   1
  -3  -3  -1 28.5186 4.82600   2
  -3  -3  -1 22.3927 4.73127   1
   3   3   1 18.3155 4.41952   1
  -3  -3  -2 97.1608 7.64839   2
   3   3   2 86.6576 6.82855   1
  -3  -3  -2 87.9745 7.06779   1
   3   3   3 250.566 11.2982   1
  -3  -3  -3 242.912 11.8826   2
  -3  -3  -3 234.169 11.0774   1
  -3  -3  -4 9.29598 4.35395   1
  -3  -3  -4 4.85032 4.91825   2
   3   3   4 9.46442 4.21618   1
  -3  -3  -5 13.8944 5.75396   2
  -3  -3  -5 23.5970 5.55165   1
   3   3   5 18.8353 4.97433   1
  -3  -3  -6 5.49214 5.88306   2
   3   3   6 1.29229 4.69355   1
  -3  -3  -6 4.00794 5.10209   1
  -3  -3  -7-0.84047 6.56187   2
   3   3   7 4.43851 5.07273   1
  -3  -3  -7 10.7011 5.43982   1
  -3  -3  -8 72.2960 10.5157   2
  -3  -3  -8 85.4873 9.03906   1
   3   3   8 75.3049 8.46968   1
  -3  -3  -9 111.136 10.3459   1
  -3  -3  -9 103.151 12.4116   2
   3   3   9 107.998 10.0569   1
  -3  -3 -10 175.678 15.4037   2
  -3  -3 -10 168.429 12.4610   1
   3   3  10 154.641 12.3111   1
   3   3  11 45.8050 9.23558   1
  -3  -3 -11 64.7104 10.1445   1
  -3  -4  15 0.07029 8.37117   1
  -3  -4  15 6.17371 8.73865   1
   3   4 -15 5.88993 4.38742   2
  -3  -4  14 0.46401 7.41542   1
  -3  -4  14-13.3076 8.33144   1
   3   4 -14 4.68462 4.24586   2
  -3  -4  13-3.37373 6.56944   1
  -3  -4  13-1.50254 6.72521   1
   3   4 -13-0.82560 3.61548   2
  -3  -4  12-1.95966 5.99070   1
   3   4 -12 2.75281 3.30108   2
  -3  -4  12 0.29455 6.24048   1
   3   4 -11 4.98624 2.97177   2
  -3  -4  11 12.6584 6.13213   1
  -3  -4  11 2.22324 5.48760   1
   3   4 -10 41.9935 4.24513   2
  -3  -4  10 56.9312 7.56124   1
  -3  -4  10 48.8300 7.53232   1
   3   4  -9 159.468 6.78804   2
  -3  -4   9 161.543 6.69478   2
  -3  -4   9 169.729 10.8448   1
  -3  -4   9 157.050 10.6343   1
   3   4  -8-0.80977 2.40887   2
  -3  -4   8 1.60360 2.37584   2
  -3  -4   8 6.66458 4.54639   1
  -3  -4   8-1.22278 3.68321   1
   3   4  -7 239.606 8.23021   2
  -3  -4   7 282.058 12.8640   1
  -3  -4   7 291.913 8.95447   2
   3   4  -7 284.035 12.7956   1
   3   4  -6 10.3183 4.68638   1
   3   4  -6 8.26895 2.95061   2
  -3  -4   6 11.7205 2.84832   2
  -3  -4   6 18.6553 4.84828   1
   3   4  -5 2.09342 2.56655   2
   3   4  -5-2.76171 4.10593   1
  -3  -4   5 1.32322 3.80125   1
  -3  -4   5 2.14124 2.65670   2
   3   4  -4 13.8520 3.31617   2
  -3  -4   4 9.08946 4.27122   1
  -3  -4   4 8.26192 3.08343   2
   3   4  -4 6.75251 4.03029   1
  -3  -4   3 313.322 10.8291   2
   3   4  -3 323.824 13.0778   1
  -3  -4   3 317.181 12.6341   1
  -3  -4   2 63.0184 5.74482   2
   3   4  -2 61.8438 6.11819   1
  -3  -4   2 58.5888 6.22970   1
  -3  -4   1 68.8176 6.33930   2
   3   4  -1 68.8349 6.81265   1
  -3  -4   1 74.9726 6.71621   1
  -3  -4   0-0.70273 3.31390   2
  -3  -4   0 6.00432 4.38735   1
   3   4   0 1.24082 3.28740   1
  -3  -4  -1 125.267 8.77407   2
   3   4   1 130.348 9.11362   1
  -3  -4  -1 125.513 8.72402   1
  -3  -4  -2 114.948 8.68976   2
   3   4   2 108.871 8.49683   1
  -3  -4  -2 123.429 9.12068   1
  -3  -4  -3 83.7542 8.10594   2
   3   4   3 92.4188 8.06033   1
  -3  -4  -3 69.5108 7.49518   1
  -3  -4  -4-7.39442 6.28011   2
   3   4   4 0.39422 4.06698   1
  -3  -4  -4 7.38612 5.15710   1
  -3  -4  -5 29.8742 6.84251   1
  -3  -4  -5 21.3332 7.30725   2
   3   4   5 25.6715 6.35734   1
  -3  -4  -6 122.186 11.1813   2
  -3  -4  -6 121.586 10.1666   1
   3   4   6 124.479 10.1344   1
   3   4   7-4.85925 6.37811   1
  -3  -4  -7 9.61391 6.74972   2
  -3  -4  -7 3.01789 6.50666   1
   3   4   8-2.70382 7.01616   1
  -3  -4  -8 12.4764 7.63935   2
  -3  -4  -8 8.14220 6.90400   1
   3   4   9 4.68104 7.57786   1
  -3  -4  -9 26.2384 11.1128   2
  -3  -4  -9 16.7250 8.28916   1
   3   4  10-1.84993 8.61907   1
  -3  -4 -10 9.64125 10.3987   2
  -3  -4 -10 12.8993 8.83521   1
   3   5 -15-4.91412 5.91750   2
  -3  -5  15 6.84220 8.61428   1
  -3  -5  14-6.19650 8.08679   1
   3   5 -14-7.73318 4.76359   2
  -3  -5  14-0.53076 7.02678   1
  -3  -5  13 5.09461 6.50948   1
   3   5 -13 9.02771 4.48072   2
  -3  -5  13 3.08870 7.12855   1
  -3  -5  12 0.18230 5.61850   1
   3   5 -12-0.62417 3.83774   2
  -3  -5  12-7.43436 6.45009   1
  -3  -5  11 31.0601 7.19000   1
   3   5 -11 18.0436 4.27089   2
  -3  -5  11 22.8561 6.99772   1
   3   5 -10 35.0802 4.78063   2
  -3  -5  10 31.6524 6.55273   1
  -3  -5  10 33.1489 4.63378   2
  -3  -5  10 34.9741 7.33987   1
   3   5  -9 12.9491 3.59846   2
  -3  -5   9 6.19077 4.68519   1
  -3  -5   9 10.5789 3.47706   2
  -3  -5   9 12.0686 5.80592   1
   3   5  -8 40.8168 4.66933   2
  -3  -5   8 35.3850 6.29223   1
  -3  -5   8 49.9944 5.01364   2
   3   5  -8 39.5228 6.39879   1
   3   5  -7 18.1217 4.86362   1
  -3  -5   7 18.1114 3.92543   2
   3   5  -7 13.3276 3.83265   2
  -3  -5   7 12.8318 4.36656   1
   3   5  -6 32.7262 4.54805   2
  -3  -5   6 34.5014 4.62633   2
   3   5  -6 31.9854 5.43184   1
  -3  -5   6 33.2575 5.81523   1
  -3  -5   5 4.03010 4.39424   1
   3   5  -5 6.20691 3.51499   2
  -3  -5   5 4.35477 3.44334   2
   3   5  -5 4.62979 3.75138   1
   3   5  -4 2.63291 3.42030   2
  -3  -5   4 7.42393 3.67495   2
   3   5  -4 8.33271 4.56907   1
  -3  -5   4 5.99167 4.73187   1
  -3  -5   3 496.883 15.0521   2
   3   5  -3 519.271 17.1090   1
  -3  -5   3 486.689 16.6601   1
  -3  -5   2 269.089 11.7021   2
   3   5  -2 277.528 12.7855   1
  -3  -5   2 261.405 12.5370   1
  -3  -5   1 4.59933 3.72973   2
  -3  -5   1 6.81443 4.61188   1
   3   5  -1 7.71997 4.59535   1
  -3  -5   0 256.617 12.2533   2
   3   5   0 254.782 12.6133   1
  -3  -5   0 240.650 12.5877   1
  -3  -5  -1 7.48504 5.19847   1
  -3  -5  -1 9.21170 5.01481   2
   3   5   1 12.2000 4.59025   1
  -3  -5  -2 4.61153 5.32877   1
  -3  -5  -2-2.89920 5.42605   2
   3   5   2 3.12087 5.12214   1
  -3  -5  -3 20.3086 6.38921   1
  -3  -5  -3 19.9444 6.72699   2
   3   5   3 17.1029 6.34628   1
  -3  -5  -4 40.9767 8.02664   1
  -3  -5  -4 36.0182 7.34461   2
   3   5   4 35.7179 7.34500   1
  -3  -5  -5 3.46455 6.19710   2
   3   5   5 8.18207 6.77294   1
  -3  -5  -5 6.71069 6.93882   1
  -3  -5  -6 69.7258 10.8866   2
  -3  -5  -6 57.2963 9.60942   1
   3   5   6 44.8487 8.82205   1
   3   5   7-4.14514 7.21903   1
  -3  -5  -7 9.21790 7.93780   2
  -3  -5  -7 2.35884 7.41796   1
   3   5   8 17.6959 8.97500   1
  -3  -5  -8 21.8160 9.43631   2
  -3  -5  -8 12.2629 8.36555   1
  -3  -5  -9 65.0786 10.8925   1
   3   5   9 51.9446 10.8257   1
  -3  -6  15 22.1142 10.3501   1
   3   6 -15 24.7551 7.35832   2
  -3  -6  15 23.7597 9.30202   1
  -3  -6  14 22.5342 8.60682   1
   3   6 -14 19.3122 6.59675   2
  -3  -6  14 22.9763 8.87167   1
  -3  -6  13 21.4100 8.32582   1
   3   6 -13 34.1489 6.47922   2
  -3  -6  13 19.5217 7.77372   1
   3   6 -12 30.2798 5.77976   2
  -3  -6  12 42.7373 7.82952   1
  -3  -6  12 50.5270 8.54929   1
   3   6 -11 30.4624 5.75838   2
  -3  -6  11 28.0774 5.51223   2
  -3  -6  11 24.7558 6.96659   1
  -3  -6  11 18.3002 7.39302   1
   3   6 -10 59.1169 6.35407   2
  -3  -6  10 59.4731 6.17515   2
  -3  -6  10 66.9977 8.86248   1
  -3  -6  10 59.8950 8.00635   1
   3   6  -9 17.5713 6.07393   1
  -3  -6   9 6.72890 4.78337   1
   3   6  -9 6.92904 4.22610   2
  -3  -6   9 3.88608 3.97531   2
   3   6  -8 6.54582 5.43105   1
  -3  -6   8 0.59655 5.29852   1
   3   6  -8-4.52111 3.75733   2
  -3  -6   8-6.01786 3.98194   2
  -3  -6   7 7.98556 4.52863   1
   3   6  -7 10.8360 4.28162   2
  -3  -6   7 14.2854 4.44131   2
   3   6  -6-2.32859 4.08663   2
  -3  -6   6 5.00549 3.95071   2
   3   6  -6 13.8070 5.63080   1
  -3  -6   6 1.52223 4.18438   1
   3   6  -5 378.540 13.9218   2
  -3  -6   5 376.515 13.7782   2
   3   6  -5 391.308 15.9388   1
  -3  -6   5 370.081 15.7124   1
   3   6  -4 103.241 8.03040   2
  -3  -6   4 97.1139 7.97993   2
   3   6  -4 122.944 9.73975   1
  -3  -6   4 108.394 9.01816   1
   3   6  -3 80.6259 7.53789   2
  -3  -6   3 93.2612 8.07161   2
   3   6  -3 84.0708 8.55500   1
  -3  -6   3 75.3876 8.19267   1
  -3  -6   2-0.43397 4.33036   2
  -3  -6   2-4.60911 5.52881   1
   3   6  -2-3.79543 4.84012   1
  -3  -6   1 20.3137 5.68228   1
  -3  -6   1 19.1970 5.58689   2
   3   6  -1 17.2845 5.21858   1
  -3  -6   0 14.4012 5.97073   1
  -3  -6   0 10.1204 5.78345   2
   3   6   0 9.12280 4.93264   1
  -3  -6  -1 0.93309 5.82471   2
   3   6   1-6.48954 5.78131   1
  -3  -6  -2 3.56131 5.18705   1
  -3  -6  -2 11.4733 5.79348   2
   3   6   2 16.4583 6.80455   1
  -3  -6  -3 52.1796 8.98636   1
  -3  -6  -3 26.4434 7.38343   2
   3   6   3 39.9626 8.08047   1
  -3  -6  -4 34.1554 8.91915   2
   3   6   4 24.0131 8.06137   1
  -3  -6  -4 13.7064 6.80326   1
   3   6   5 16.1302 8.02427   1
  -3  -6  -5 38.0716 10.1567   2
  -3  -6  -5 10.5619 8.44052   1
   3   6   6 25.9290 9.87391   1
  -3  -6  -6 22.7267 9.26213   2
  -3  -6  -6 28.4021 9.04480   1
   3   6   7-5.99992 8.98478   1
  -3  -6  -7 2.78739 10.4895   1
  -3  -7  14 29.6580 10.0188   1
  -3  -7  14 9.35341 9.08665   1
   3   7 -14 7.42016 7.38345   2
  -3  -7  13 16.2815 8.91440   1
  -3  -7  13 16.3598 8.45209   1
   3   7 -13 11.2718 6.53006   2
  -3  -7  12 17.6791 8.42811   1
   3   7 -12 4.01330 6.06767   2
  -3  -7  12 13.7203 6.12433   2
  -3  -7  11-2.08525 6.53600   1
   3   7 -11 0.27629 5.39327   2
  -3  -7  11 7.93517 5.23275   2
  -3  -7  11 5.42858 6.69831   1
  -3  -7  10 13.1269 7.11952   1
   3   7 -10 3.16057 5.96727   1
   3   7 -10 13.0247 5.70908   2
  -3  -7  10 2.42025 5.19037   2
   3   7  -9 8.78635 6.18423   1
   3   7  -9-0.77481 4.87933   2
  -3  -7   9 2.98378 5.01285   2
  -3  -7   9 3.67683 6.18861   1
   3   7  -8 2.43900 4.80183   2
   3   7  -8 12.2431 6.33858   1
  -3  -7   8 12.2895 5.30597   2
  -3  -7   8 6.12164 5.20005   1
   3   7  -7 0.32832 4.72009   2
  -3  -7   7 3.68596 4.65741   2
  -3  -7   7 0.88642 5.72567   1
   3   7  -7 13.1165 6.35573   1
   3   7  -6 47.0120 6.84802   2
  -3  -7   6 41.1597 6.77432   2
   3   7  -6 35.1998 7.29608   1
  -3  -7   6 41.9913 7.50168   1
   3   7  -5 229.016 12.3912   2
  -3  -7   5 214.243 11.9999   2
   3   7  -5 231.960 13.5457   1
  -3  -7   5 229.690 13.6801   1
   3   7  -4 6.12388 5.95798   1
   3   7  -4-0.71386 4.71200   2
  -3  -7   4 12.1776 5.46150   2
  -3  -7   4 6.40566 6.09280   1
  -3  -7   3 113.616 9.61913   2
   3   7  -3 109.705 10.4600   1
  -3  -7   3 102.304 9.64614   1
   3   7  -3 104.511 9.65362   2
  -3  -7   2-2.90414 5.87365   1
  -3  -7   2 10.1655 5.96060   2
   3   7  -2 6.12972 6.37958   1
  -3  -7   1 6.21779 6.91527   1
  -3  -7   1 7.91909 5.21414   2
   3   7  -1 11.4925 6.54702   1
  -3  -7   0 48.2873 7.81385   2
   3   7   0 57.6231 8.69634   1
  -3  -7   0 51.5783 9.23485   1
  -3  -7  -1-1.08753 6.71420   1
  -3  -7  -1 16.5859 7.77036   2
   3   7   1-1.69820 5.64024   1
  -3  -7  -2 132.420 12.1406   2
   3   7   2 150.123 12.9015   1
  -3  -7  -2 167.285 13.7971   1
  -3  -7  -3 5.64959 8.65538   2
   3   7   3 15.8258 8.00159   1
  -3  -7  -3 13.6562 8.52920   1
  -3  -7  -4 13.0219 8.54457   2
   3   7   4-5.99588 8.72682   1
  -3  -7  -4 18.0447 10.3209   1
  -3  -7  -5 32.4764 9.85224   2
  -3  -7  -5 30.6061 11.3269   1
   3   7   6-2.53169 9.98150   1
  -3  -7  -6 32.7660 13.3823   2
  -3  -7  -6 20.0993 11.9486   1
   3   8 -13 5.17852 7.35881   2
  -3  -8  13 7.78646 7.28316   2
  -3  -8  13 3.75408 8.90314   1
  -3  -8  13 19.7813 9.96456   1
   3   8 -12-1.31849 7.38719   2
  -3  -8  12-2.86314 6.96674   2
  -3  -8  12 9.57784 7.82605   1
  -3  -8  12-1.36298 8.95484   1
   3   8 -11 12.2896 7.26945   2
  -3  -8  11 6.47607 6.78958   2
  -3  -8  11 4.84314 7.94858   1
   3   8 -10-0.81293 6.16479   2
  -3  -8  10-0.57731 6.50426   2
   3   8 -10-6.03443 8.37626   1
  -3  -8  10 9.42526 7.14515   1
   3   8  -9 10.2868 6.21713   2
  -3  -8   9 11.2750 6.25288   2
  -3  -8   9 16.1837 7.34622   1
   3   8  -9 5.48077 6.77856   1
   3   8  -8 6.13368 7.02682   1
   3   8  -8-0.54970 6.26467   2
  -3  -8   8-8.34984 6.19440   2
  -3  -8   8-0.79528 6.56349   1
   3   8  -7 15.9303 6.71381   2
  -3  -8   7 10.6757 5.92267   2
  -3  -8   7 20.2255 7.84922   1
   3   8  -7 13.6949 6.72387   1
  -3  -8   6 21.5142 7.54946   1
  -3  -8   6 34.2689 7.26854   2
   3   8  -6 37.4051 7.80605   1
   3   8  -5 19.0631 7.34702   1
   3   8  -5 15.2278 6.91567   2
  -3  -8   5 13.2998 7.33456   1
  -3  -8   5 16.0897 6.32873   2
   3   8  -4 5.22103 7.26839   1
   3   8  -4-4.27195 6.43058   2
  -3  -8   4 6.50087 6.99100   1
  -3  -8   4 10.9469 6.77073   2
   3   8  -3 1.75123 6.08200   2
  -3  -8   3 16.2601 7.50236   1
  -3  -8   3 5.80450 6.35980   2
   3   8  -3 7.65318 7.68475   1
  -3  -8   2 16.1059 7.32073   1
  -3  -8   2 20.0044 8.28373   2
   3   8  -2 16.5215 8.43570   1
  -3  -8   1 9.44189 8.71682   1
  -3  -8   1 2.22507 6.18490   2
   3   8  -1 11.5387 6.92283   1
  -3  -8   0 31.6619 8.21259   1
  -3  -8   0 20.4517 8.32790   2
   3   8   0 24.3168 7.71700   1
  -3  -8  -1 13.2857 7.86617   2
   3   8   1 11.3654 7.38222   1
   3   8   2 116.454 14.2694   1
  -3  -8  -2 123.591 13.4463   2
  -3  -8  -2 108.428 13.8770   1
  -3  -8  -3-7.27818 11.1745   2
   3   8   3 13.9379 10.0276   1
  -3  -8  -3 2.72218 8.54910   1
  -3  -8  -4 89.4152 14.3167   2
  -3  -8  -4 69.5532 12.8906   1
   3   9 -12 12.5462 8.90391   2
  -3  -9  12-0.30192 8.99320   1
  -3  -9  12 4.45702 8.35055   2
  -3  -9  12-20.6187 10.1190   1
   3   9 -11 8.00940 8.35909   2
   3   9 -11 21.1429 10.0296   1
  -3  -9  11 10.8340 8.74387   1
  -3  -9  11 9.31041 8.17990   2
   3   9 -10 6.32321 7.81236   1
   3   9 -10 8.77953 7.70413   2
  -3  -9  10 2.89681 9.34241   1
  -3  -9  10 6.41687 7.78959   2
   3   9  -9 16.5681 8.26761   2
   3   9  -9-2.28936 8.94351   1
  -3  -9   9 14.2554 9.46389   1
  -3  -9   9 13.0050 7.73334   2
   3   9  -8 1.10049 7.85375   2
  -3  -9   8-1.25362 8.54663   1
  -3  -9   8-14.7003 7.61813   2
   3   9  -8 8.74798 7.85661   1
   3   9  -7 8.19296 7.93397   2
  -3  -9   7 3.32579 8.62368   1
  -3  -9   7 0.06472 7.20975   2
   3   9  -7 9.33714 7.94298   1
   3   9  -6 18.6088 7.61828   2
  -3  -9   6 16.8346 7.69901   1
   3   9  -6 0.89567 8.98521   1
  -3  -9   6 13.5248 8.05861   2
   3   9  -5 1.06059 6.99741   1
  -3  -9   5 15.5938 8.61942   1
   3   9  -5 10.4193 7.30160   2
  -3  -9   5 2.52129 7.36432   2
  -3  -9   4 27.9997 9.77370   1
   3   9  -4 21.1987 8.24456   2
  -3  -9   4 19.6512 8.61846   2
   3   9  -4 12.9553 8.77497   1
   3   9  -3 7.70808 8.14469   2
  -3  -9   3 2.19537 8.73028   1
  -3  -9   3-7.82915 8.00076   2
   3   9  -3-2.50402 7.13967   1
  -3  -9   2 8.69010 9.27212   1
  -3  -9   2 20.4451 9.78766   2
   3   9  -2 18.0524 10.3753   1
  -3  -9   1-11.8265 9.57209   1
  -3  -9   1 2.23248 8.60143   2
   3   9  -1 17.6095 9.48350   1
  -3  -9   0-10.9765 11.0432   2
   3   9   0 0.51307 9.79079   1
  -3  -9   0 1.73640 11.0488   1
  -3  -9  -1 110.946 14.7384   2
   3   9   1 98.6556 14.3134   1
  -3  -9  -1 104.146 13.5175   1
   3   9   2 96.4011 14.6182   1
  -3  -9  -2 81.6323 14.8059   2
  -3  -9  -2 80.9460 13.8661   1
   3  10 -10 20.3587 6.95456   2
  -3 -10  10 30.3180 7.36267   1
  -3 -10  10 16.9760 6.80933   2
   3  10 -10 27.3207 7.58494   1
   3  10  -9 15.2061 11.1030   1
   3  10  -9 8.25665 10.3028   2
  -3 -10   9 20.8174 11.5968   1
  -3 -10   9-9.58352 9.84734   2
  -3 -10   8 19.2484 10.9895   1
   3  10  -8 22.4936 9.90182   2
  -3 -10   8 10.2973 9.92252   2
   3  10  -8 10.7834 10.2657   1
  -3 -10   7 9.83003 10.4386   1
   3  10  -7-7.59775 10.7949   2
   3  10  -7 6.79960 9.02894   1
  -3 -10   7-0.07533 9.18045   2
  -3 -10   6 11.9748 10.0250   1
   3  10  -6 7.32045 8.63841   2
   3  10  -6 18.1769 10.7542   1
  -3 -10   6-3.91281 9.51910   2
  -3 -10   5 2.72306 9.00769   1
   3  10  -5 7.83199 10.8326   1
   3  10  -5-1.42100 10.2963   2
  -3 -10   5 4.59924 8.90051   2
  -3 -10   4 1.30242 11.2719   1
   3  10  -4-15.0196 11.6486   2
  -3 -10   4-0.97281 10.7533   2
   3  10  -4-19.6539 11.8348   1
  -3 -10   3 34.2707 12.2105   1
  -3 -10   3 28.7090 10.3089   2
   3  10  -3 34.3653 10.8991   1
  -3 -10   2 47.2063 12.1718   1
  -3 -10   2 20.0239 11.4570   2
   3  10  -2 31.1251 12.4838   1
  -3 -10   1 37.2019 9.44444   2
   4 -10   2-2.68771 4.92851   1
  -4  10  -2 1.34637 5.08345   1
  -4  10  -2 2.52244 5.07939   2
   4 -10   2 6.50879 5.91420   2
   4 -10   3-4.24726 5.95948   1
  -4  10  -3 8.06463 7.48013   2
   4 -10   3 8.64522 6.79296   2
  -4  10  -4 24.2125 7.60250   2
  -4  10  -4 31.2528 6.15233   1
   4 -10   4 10.0611 7.57598   2
   4 -10   4 22.7384 5.51283   1
   4  -9  -3 14.4588 6.91942   1
  -4   9   3-0.68106 4.70634   2
   4  -9  -3 4.96313 4.74403   2
  -4   9   3 19.0575 6.81640   1
   4  -9  -2 21.7294 11.0260   1
  -4   9   2-12.0619 8.45538   2
   4  -9  -2 10.6080 8.95282   2
  -4   9   2 20.5208 10.7034   1
   4  -9  -1 18.8286 9.22058   1
  -4   9   1 14.2699 8.78362   2
   4  -9  -1 12.2261 8.16943   2
  -4   9   1 34.9509 9.96191   1
  -4   9   0 2.03690 7.76377   1
   4  -9   0 3.46249 8.40809   1
  -4   9   0 11.6777 8.17074   2
   4  -9   0 18.6341 8.35152   2
  -4   9  -1 85.4635 11.4714   2
   4  -9   1 72.0640 11.1113   2
  -4   9  -1 96.8150 10.8972   1
   4  -9   1 80.2896 9.91878   1
   4  -9   2 15.1519 7.05568   1
  -4   9  -2 26.5401 7.86139   1
  -4   9  -2 9.74751 8.59815   2
   4  -9   2 7.90961 8.54351   2
  -4   9  -3 12.3289 6.70170   1
  -4   9  -3 14.6603 9.14905   2
   4  -9   3 6.66177 8.87099   2
   4  -9   3 23.4508 6.90212   1
  -4   9  -4 78.2775 11.4089   2
   4  -9   4 107.675 12.8146   2
  -4   9  -4 99.1848 8.94338   1
   4  -9   4 104.051 8.91831   1
  -4   9  -5 10.7560 9.60968   2
  -4   9  -5 3.28149 4.95145   1
   4  -9   5 2.33954 7.97197   2
  -4   9  -6 8.33898 3.39760   1
  -4   9  -6-1.83745 10.6637   2
   4  -9   6 14.9130 10.3619   2
  -4   9  -6 2.31808 3.31927   1
  -4   9  -7 51.0906 12.5295   2
  -4   9  -8 4.17635 9.87198   2
   4  -8  -5 14.9998 10.9796   1
  -4   8   5 5.47252 7.32944   2
   4  -8  -5 10.5247 7.43823   2
  -4   8   5 18.7430 11.0978   1
   4  -8  -4 3.24289 9.91392   1
  -4   8   4 7.45873 7.13763   2
   4  -8  -4-10.7795 7.64361   2
  -4   8   4 2.98834 8.91968   1
   4  -8  -3-0.60199 9.58630   1
  -4   8   3-1.58611 7.05635   2
   4  -8  -3 9.89214 6.57930   2
  -4   8   3-0.30007 7.84159   1
  -4   8   2 56.8181 9.02144   2
   4  -8  -2 72.3464 9.20251   2
   4  -8  -2 68.3021 10.5339   1
  -4   8   1 16.8012 6.95997   2
   4  -8  -1 8.60371 7.88635   1
   4  -8  -1 18.1353 7.45949   2
  -4   8   1 24.8124 7.80207   1
   4  -8   0 18.6104 7.41539   1
  -4   8   0 8.52230 6.74025   2
   4  -8   0 8.99988 6.36707   2
  -4   8   0 7.71183 6.77071   1
   4  -8   1 24.6102 6.70761   1
  -4   8  -1 39.8171 8.19168   2
   4  -8   1 30.7446 7.88550   2
  -4   8  -1 23.5538 7.08698   1
  -4   8  -2 14.5366 7.61067   2
   4  -8   2 5.51283 6.67772   2
  -4   8  -2 11.1714 6.30922   1
   4  -8   2 15.2926 5.80104   1
  -4   8  -3 12.2995 5.65793   1
  -4   8  -3 12.7110 6.94852   2
   4  -8   3 17.1150 6.78966   2
   4  -8   3 6.41515 5.25965   1
  -4   8  -4 8.19713 4.44799   1
  -4   8  -4-7.81738 8.09352   2
   4  -8   4 1.75874 6.89975   2
   4  -8   4-7.85232 5.14231   1
  -4   8  -5 36.0064 8.91285   2
  -4   8  -5 30.0833 4.85128   1
  -4   8  -5 24.0876 4.74114   1
   4  -8   5 25.5245 8.96134   2
  -4   8  -6 1.95219 2.17407   1
  -4   8  -6 5.54618 2.47200   1
  -4   8  -7 34.0433 10.2736   2
  -4   8  -8 32.2310 9.40584   2
  -4   8  -9-10.5472 8.71875   2
  -4   8 -10-19.2544 11.0870   2
   4  -7  -7 34.6217 10.7433   1
   4  -7  -7 6.69868 6.33368   2
  -4   7   7 23.8087 11.9983   1
   4  -7  -6 13.4891 10.7102   1
   4  -7  -6 2.52426 5.60827   2
  -4   7   6-15.2804 9.51334   1
   4  -7  -5 0.70531 7.89045   1
  -4   7   5-1.04641 5.48627   2
   4  -7  -5 2.03981 5.54097   2
  -4   7   5-10.7796 8.23182   1
  -4   7   4 40.3462 6.52919   2
   4  -7  -4 40.8869 7.08772   2
  -4   7   4 33.7529 9.03808   1
   4  -7  -4 43.0463 9.46993   1
   4  -7  -3 12.3850 7.32897   1
  -4   7   3 10.2442 5.22334   2
   4  -7  -3 2.83420 5.14054   2
  -4   7   3-8.12256 7.41181   1
  -4   7   2 55.7723 7.45571   2
  -4   7   2 62.0139 9.44771   1
   4  -7  -2 71.7750 7.66376   2
   4  -7  -2 67.0775 8.98154   1
  -4   7   1 51.0457 7.45922   2
  -4   7   1 39.7021 7.93046   1
   4  -7  -1 41.4882 6.90302   2
   4  -7  -1 48.7392 7.66975   1
  -4   7   0-1.99230 5.41019   2
   4  -7   0-5.73905 5.07103   2
  -4   7   0 8.99854 6.10859   1
   4  -7   0-8.51835 5.29237   1
  -4   7  -1 8.11872 6.09024   2
   4  -7   1-0.40469 5.49413   2
  -4   7  -1-2.72479 5.09617   1
   4  -7   1 1.32810 4.96203   1
  -4   7  -2 46.6687 7.68067   2
  -4   7  -2 52.6621 6.65534   1
   4  -7   2 55.4244 8.05427   2
   4  -7   2 44.9371 6.46725   1
  -4   7  -3 2.93172 5.83224   2
   4  -7   3-2.68647 4.25602   1
  -4   7  -3-0.29280 4.15272   1
  -4   7  -4 6.63229 6.23241   2
  -4   7  -4 12.8192 4.02617   1
   4  -7   4 21.4312 7.01753   2
  -4   7  -4 15.3211 4.31272   1
  -4   7  -5-0.70012 3.13305   1
  -4   7  -5-7.24578 6.31931   2
  -4   7  -5-0.34488 2.85359   1
  -4   7  -6 7.73461 1.33954   1
  -4   7  -6 0.86125 6.65542   2
  -4   7  -6 8.77007 1.41354   1
  -4   7  -7 2.38680 8.21421   2
  -4   7  -8 62.4864 11.3414   2
  -4   7  -9-3.44464 9.18929   2
  -4   7 -10 12.9094 11.1332   2
  -4   7 -11-15.7934 11.1118   2
   4  -6  -8-14.2508 12.5112   1
   4  -6  -8 5.42160 4.72473   2
  -4   6   8 11.5101 9.99533   1
   4  -6  -7-9.05447 8.66445   1
   4  -6  -7 2.38795 4.43416   2
  -4   6   7-7.93761 7.92270   1
   4  -6  -6 36.1824 10.1103   1
   4  -6  -6 33.6374 5.63855   2
  -4   6   6 50.2621 9.93294   1
   4  -6  -5 1.48650 7.43251   1
  -4   6   5 13.0615 4.56436   2
   4  -6  -5 9.12153 4.37165   2
  -4   6   5 17.5272 7.82901   1
  -4   6   4 37.9486 5.82662   2
   4  -6  -4 23.7835 7.80346   1
  -4   6   4 41.4589 8.10343   1
   4  -6  -4 26.5560 4.99525   2
   4  -6  -3 3.57465 5.67937   1
  -4   6   3 1.06252 4.16539   2
  -4   6   3-11.4562 6.89239   1
   4  -6  -3 3.86851 4.19543   2
  -4   6   2 123.333 10.4887   1
  -4   6   2 127.715 8.54742   2
   4  -6  -2 124.700 8.16251   2
   4  -6  -2 129.662 10.3290   1
  -4   6   1 17.7133 4.87105   2
  -4   6   1 10.7640 5.59215   1
   4  -6  -1 18.7272 4.88944   2
  -4   6   0 95.8653 8.47147   1
  -4   6   0 100.265 8.37280   2
   4  -6   0 89.7968 7.72122   2
   4  -6   0 87.6502 8.20887   1
  -4   6  -1 94.7346 7.96816   1
  -4   6  -1 101.557 8.48579   2
   4  -6   1 96.5373 8.22313   2
   4  -6   1 92.0096 7.91457   1
  -4   6  -2 43.8523 5.78122   1
  -4   6  -2 32.0335 6.19031   2
   4  -6   2 40.1565 6.47721   2
   4  -6   2 42.3013 5.84818   1
  -4   6  -3-5.12857 5.11590   2
  -4   6  -3 3.07000 3.33452   1
  -4   6  -3-1.26316 3.34239   1
  -4   6  -4-3.59876 3.21409   1
  -4   6  -4-3.54102 5.63386   2
  -4   6  -4-3.78046 3.22099   1
  -4   6  -5 10.4525 2.77353   1
  -4   6  -5 8.33188 2.56363   1
  -4   6  -5 17.8211 6.43745   2
  -4   6  -6 2.41184 5.70786   2
  -4   6  -7-1.26987 7.35793   2
  -4   6  -8 4.71785 7.60923   2
  -4   6  -9-2.37689 9.02308   2
  -4   6 -10-15.4660 10.5031   2
  -4   6 -11 53.6149 13.2615   2
  -4   5  10 6.16312 11.0817   1
   4  -5 -10-4.88625 10.6701   1
   4  -5  -9 3.16697 2.64841   2
  -4   5   9-10.4883 8.90011   1
   4  -5  -9-11.5223 10.9846   1
   4  -5  -8 24.8320 3.70788   2
  -4   5   8 28.8108 9.92879   1
   4  -5  -8 34.6678 10.9242   1
  -4   5   7 3.80412 8.18192   1
   4  -5  -7-3.40842 3.24576   2
   4  -5  -7 9.54738 6.83633   1
  -4   5   6 7.79331 6.96464   1
   4  -5  -6 11.0456 3.41814   2
   4  -5  -6 14.7730 6.72875   1
  -4   5   5 33.3778 4.32514   2
   4  -5  -5 31.2833 4.33580   2
  -4   5   5 25.4918 6.89838   1
   4  -5  -5 28.3160 7.11235   1
  -4   5   4 25.9102 4.17853   2
   4  -5  -4 30.8421 4.26960   2
  -4   5   4 30.8253 6.51403   1
   4  -5  -4 34.0881 7.27403   1
  -4   5   3 12.4180 3.88366   2
  -4   5   3 6.56577 4.69050   1
   4  -5  -3 8.13556 3.36125   2
   4  -5  -3 6.65494 5.68370   1
  -4   5   2-0.38355 3.33496   2
  -4   5   2 7.17556 4.97323   1
   4  -5  -2 6.61898 3.45623   2
   4  -5  -2-1.52024 4.28043   1
  -4   5   1 43.3409 5.28378   2
   4  -5  -1 40.3855 5.15664   2
   4  -5  -1 29.5953 5.79291   1
  -4   5   1 36.9383 6.05776   1
  -4   5   0-5.21406 4.14056   2
  -4   5   0-1.99927 3.78275   1
   4  -5   0-2.77139 3.90532   2
   4  -5   0-2.06154 4.21027   1
  -4   5  -1 61.8466 6.41804   2
  -4   5  -1 57.7502 5.95897   1
  -4   5  -2 3.10275 3.10649   1
  -4   5  -2-0.76308 4.22712   2
  -4   5  -2-0.41948 3.52416   1
  -4   5  -3-2.90331 3.13395   1
  -4   5  -3 4.39448 4.51889   2
  -4   5  -3 1.91049 2.95283   1
  -4   5  -4 35.9351 4.02155   1
  -4   5  -4 41.3781 6.76220   2
  -4   5  -4 37.7060 4.05659   1
  -4   5  -5 176.264 5.83454   1
  -4   5  -5 172.660 5.89990   1
  -4   5  -5 190.258 11.8826   2
  -4   5  -6 32.3229 7.29110   2
  -4   5  -7 11.1575 6.75437   2
  -4   5  -8 43.9395 8.28069   2
  -4   5  -9 9.15746 6.84124   2
  -4   5 -10 7.90641 8.91687   2
  -4   5 -11 14.3032 10.0123   2
  -4   4  11 7.87644 10.7501   1
   4  -4 -11-8.29306 11.6089   1
  -4   4  10 7.40016 7.93647   1
   4  -4 -10-6.15177 11.2320   1
  -4   4   9 17.2189 8.16836   1
   4  -4  -9 15.4519 9.02216   1
  -4   4   8 22.8538 7.18400   1
   4  -4  -8 21.0571 8.36790   1
  -4   4   7 4.44427 5.62775   1
   4  -4  -7 2.76844 6.60382   1
  -4   4   6 7.65103 6.59679   1
   4  -4  -6 9.81606 2.13444   2
   4  -4  -6 15.9563 7.23612   1
  -4   4   5 17.8228 2.87759   2
   4  -4  -5 25.1223 2.99015   2
  -4   4   5 16.2302 6.29165   1
   4  -4  -5 20.5608 6.34156   1
  -4   4   4 178.987 6.84316   2
   4  -4  -4 178.423 6.75072   2
   4  -4  -4 176.162 11.7133   1
  -4   4   4 172.623 11.1388   1
  -4   4   3 8.11089 2.90280   2
  -4   4   3 12.8645 4.89490   1
   4  -4  -3 5.01574 2.64417   2
   4  -4  -3 8.47018 4.73299   1
  -4   4   2 56.0650 4.99451   2
   4  -4  -2 53.7743 6.59581   1
  -4   4   2 68.8390 7.26332   1
  -4   4   1 4.51549 3.96187   1
  -4   4   1 3.26010 3.15453   2
  -4   4   0-3.77632 3.31022   1
  -4   4   0 4.69986 3.73963   1
  -4   4   0-2.36482 3.21285   2
  -4   4  -1 29.2335 4.55903   1
  -4   4  -1 27.9180 4.63644   2
  -4   4  -1 34.1025 4.83803   1
  -4   4  -2 184.819 9.84725   2
  -4   4  -2 185.623 8.46571   1
  -4   4  -2 182.761 8.46091   1
  -4   4  -3 149.879 9.42460   2
  -4   4  -3 160.913 7.35117   1
  -4   4  -3 155.462 7.23795   1
  -4   4  -4-0.69685 2.54078   1
  -4   4  -4-5.58599 4.77632   2
  -4   4  -4 3.46279 2.48538   1
  -4   4  -5 92.6080 8.66976   2
  -4   4  -5 84.8003 4.14917   1
  -4   4  -5 86.7127 4.27528   1
  -4   4  -6 46.1253 7.55102   2
  -4   4  -7 57.1402 8.05956   2
  -4   4  -8 90.9372 10.0553   2
  -4   4  -9 13.8583 8.01268   2
  -4   4 -10 27.4130 9.29438   2
  -4   4 -11 32.0936 9.98913   2
  -4   4 -12 14.8736 12.6849   2
  -4   3  12-2.88624 9.64889   1
   4  -3 -12-6.88187 10.6711   1
  -4   3  11 1.67624 10.1323   1
   4  -3 -11-10.7291 10.8045   1
  -4   3  10 5.24031 7.75861   1
   4  -3 -10 10.1286 9.86134   1
  -4   3   9 0.36203 7.92707   1
   4  -3  -9 17.9000 7.35722   1
  -4   3   8 2.28414 7.13445   1
   4  -3  -8 12.5875 6.52233   1
   4  -3  -7 43.1938 7.43673   1
  -4   3   7 50.2655 8.19019   1
   4  -3  -6 54.4089 8.47544   1
  -4   3   6 61.6450 7.81544   1
  -4   3   5 5.58974 4.36090   1
   4  -3  -5-2.69012 5.54970   1
  -4   3   4 90.0294 3.92602   2
   4  -3  -4 84.9151 8.22610   1
  -4   3   4 87.9016 8.07158   1
  -4   3   3 58.8881 4.01351   2
  -4   3   3 66.4989 7.08176   1
  -4   3   2 4.11212 3.92801   1
  -4   3   2 3.52579 2.37242   2
  -4   3   2 5.11632 4.02972   1
  -4   3   1 4.15083 3.40428   1
  -4   3   1 13.8108 4.05448   1
  -4   3   1 13.6547 3.13087   2
  -4   3   0-3.85137 3.55048   1
  -4   3   0-0.28096 3.29422   1
  -4   3   0 3.41171 2.86013   2
  -4   3  -1 10.2916 3.53742   1
  -4   3  -1 15.7975 3.85898   2
  -4   3  -1 4.21208 3.11348   1
  -4   3  -2 44.1465 5.31072   2
  -4   3  -2 42.7281 4.69714   1
  -4   3  -2 31.9184 4.26457   1
  -4   3  -3 464.133 14.9736   2
  -4   3  -3 480.679 12.0296   1
  -4   3  -3 480.695 12.0726   1
  -4   3  -4 3.80457 2.53741   1
  -4   3  -4 4.42424 2.55739   1
  -4   3  -4-0.83327 4.27797   2
  -4   3  -5 27.5731 5.83955   2
  -4   3  -5 29.1510 3.08600   1
  -4   3  -5 32.7868 3.26011   1
  -4   3  -6 2.45467 1.51754   1
  -4   3  -6 3.54045 1.63457   1
  -4   3  -7 95.6023 9.57061   2
  -4   3  -8 42.8683 8.65077   2
  -4   3  -9 20.2582 7.25770   2
  -4   3 -10-11.4074 9.43039   2
  -4   3 -12 57.2044 13.9815   2
  -4   2  13 26.6276 7.97643   1
  -4   2  13 28.1938 8.02476   1
  -4   2  12-0.08461 10.9458   1
  -4   2  12-0.42199 11.3078   1
  -4   2  11 26.1821 9.72284   1
  -4   2  10 50.2823 8.70776   1
  -4   2   9 143.201 12.6451   1
  -4   2   8 130.081 11.2571   1
  -4   2   7 3.63864 5.00881   1
  -4   2   6 50.7837 7.25734   1
  -4   2   6 44.3644 7.38950   1
  -4   2   5 37.4558 6.10050   1
  -4   2   5 34.4264 6.09499   1
  -4   2   4 85.9100 2.21031   2
  -4   2   4 81.9115 7.38764   1
  -4   2   4 89.4402 7.99723   1
  -4   2   3 83.5639 3.80328   2
  -4   2   3 81.3740 7.33977   1
  -4   2   3 84.9407 7.30841   1
  -4   2   2 32.7595 3.27759   2
  -4   2   2 39.1151 5.53516   1
  -4   2   2 29.9545 4.92443   1
  -4   2   1 3.93578 3.37472   1
  -4   2   1 3.77565 3.48603   1
  -4   2   1 2.41072 2.48925   2
  -4   2   0 83.2221 5.55296   2
  -4   2   0 91.1049 6.79167   1
  -4   2   0 89.4793 6.68021   1
  -4   2  -1 32.8897 4.32387   2
  -4   2  -1 30.7002 4.22371   1
  -4   2  -1 39.7615 4.67405   1
  -4   2  -2-3.33469 3.11130   1
  -4   2  -2 0.24129 3.21965   2
  -4   2  -2-1.23327 2.71664   1
  -4   2  -3 19.3626 3.54862   1
  -4   2  -3 27.6385 5.03046   2
  -4   2  -3 24.5649 3.78666   1
  -4   2  -4 6.80510 2.97694   1
  -4   2  -4-0.65008 3.97948   2
  -4   2  -4 6.68232 2.76895   1
  -4   2  -5 29.2313 5.59444   2
  -4   2  -5 22.1767 3.24947   1
  -4   2  -5 25.3344 3.41695   1
  -4   2  -6 11.8758 2.77458   1
  -4   2  -6 5.50858 2.50800   1
  -4   2  -6 11.5710 5.18017   2
  -4   2  -7-0.29180 5.63049   2
  -4   2  -7 3.41566 2.08887   1
  -4   2  -8-0.07036 1.21285   1
  -4   2  -8-3.96695 6.41824   2
  -4   2  -9 4.05861 6.11477   2
  -4   2 -10 8.68815 9.28316   2
  -4   2 -11 26.6427 10.6042   2
  -4   2 -12-1.08376 11.9576   2
  -4   1  13 1.28550 8.91891   1
  -4   1  13 21.9231 9.85164   1
  -4   1  12 49.1215 11.4767   1
  -4   1  12 62.7678 10.7648   1
  -4   1  11-10.4577 7.97488   1
  -4   1  11 5.16756 6.52641   1
  -4   1  10 5.73814 6.98450   1
  -4   1  10 2.60800 6.57647   1
  -4   1   9 49.4030 8.23475   1
  -4   1   9 30.4269 6.64723   1
  -4   1   8 14.4012 6.16599   1
  -4   1   8 13.9323 6.60843   1
  -4   1   7 14.5604 5.64601   1
  -4   1   7 13.7939 5.89209   1
  -4   1   6 75.7180 8.05460   1
  -4   1   6 79.4503 8.44287   1
  -4   1   5 28.7011 5.96510   1
  -4   1   5 15.7208 5.10469   1
  -4   1   4 37.7791 6.09949   1
  -4   1   4 62.4482 6.61994   1
  -4   1   3 5.93189 4.23356   1
  -4   1   3 8.79368 1.63062   2
  -4   1   2 364.698 8.56531   2
  -4   1   2 370.243 13.2891   1
  -4   1   2 379.223 13.5531   1
  -4   1   1 28.0518 3.39847   2
  -4   1   1 35.3305 4.87762   1
  -4   1   1 34.0900 5.03620   1
  -4   1   0 49.9239 4.56095   2
  -4   1   0 47.3524 5.24406   1
  -4   1   0 51.9480 5.49140   1
  -4   1  -1 159.251 8.20732   1
  -4   1  -1 151.365 7.80600   2
  -4   1  -1 163.387 8.42804   1
  -4   1  -2-0.30280 2.83221   1
  -4   1  -2 4.78595 3.47112   2
  -4   1  -2 6.51890 3.35327   1
  -4   1  -3 128.264 8.39709   2
  -4   1  -3 113.321 6.85464   1
  -4   1  -3 128.318 7.01727   1
  -4   1  -4 117.091 8.73400   2
  -4   1  -4 110.291 6.39689   1
  -4   1  -4 123.625 6.92701   1
  -4   1  -5 195.191 11.3522   2
  -4   1  -5 199.056 8.22760   1
  -4   1  -6 9.80793 3.19428   1
  -4   1  -6 1.46358 5.22179   2
  -4   1  -7 56.7109 4.90492   1
  -4   1  -7 49.9650 7.63829   2
   4  -1   7 40.4460 4.23453   1
   4  -1   8-2.48065 2.78466   1
  -4   1  -8 0.65535 2.97658   1
   4  -1   9-3.22998 2.93651   1
  -4   1  -9 4.31064 2.70212   1
  -4   1  -9 11.3438 8.13089   2
  -4   1 -10 24.1737 10.6026   2
  -4   1 -10 28.7155 3.27759   1
  -4   1 -11 3.46051 1.38757   1
  -4   1 -11-15.9862 12.1148   2
  -4   0  14-8.65251 9.01014   1
  -4   0  14-4.13121 7.72354   1
  -4   0  13 14.2661 10.0042   1
  -4   0  13 21.2897 10.2332   1
  -4   0  12 54.1392 9.92003   1
  -4   0  12 38.0335 10.0990   1
  -4   0  11 16.1043 7.23161   1
  -4   0  11 13.3794 6.97772   1
  -4   0  10 19.2633 7.87417   1
  -4   0  10 22.8800 6.87365   1
  -4   0   9 1.11203 5.00110   1
  -4   0   9 9.52025 6.43295   1
  -4   0   8 9.52073 5.64917   1
  -4   0   8 1.96503 5.47243   1
  -4   0   7 7.26122 5.16775   1
  -4   0   7 13.6088 5.54395   1
  -4   0   6 20.5106 5.56370   1
  -4   0   6 3.38833 4.90689   1
  -4   0   5 35.0252 5.94793   1
  -4   0   5 39.1852 5.90912   1
  -4   0   4 19.5744 5.19980   1
  -4   0   4 21.1521 5.06374   1
  -4   0   3-0.41530 1.42137   2
  -4   0   3-4.21532 3.53960   1
  -4   0   3 0.29412 3.86455   1
  -4   0   3 1.19749 1.45992   2
  -4   0   2 13.2090 2.62306   2
  -4   0   2 16.0971 4.33439   1
  -4   0   2 6.71299 2.21359   2
  -4   0   2 4.57418 3.82788   1
  -4   0   1 125.234 6.14618   2
  -4   0   1 138.000 8.24201   1
  -4   0   1 136.439 8.33675   1
  -4   0   0 56.3613 5.58949   1
  -4   0   0 53.0673 4.82598   2
  -4   0   0 61.4662 6.12358   1
  -4   0  -1 198.810 9.33140   1
  -4   0  -2-1.08932 3.07836   1
   4   0   2 1.59169 3.07840   1
   4   0   3 50.0765 5.29183   1
  -4   0  -3 48.8883 5.24719   1
  -4   0  -4 12.5643 3.81748   1
   4   0   4 3.29615 3.29889   1
  -4   0  -5 246.396 9.97033   1
   4   0   5 225.974 9.50994   1
  -4   0  -6-1.77286 3.80344   1
   4   0   6 7.73817 3.43095   1
  -4   0  -7 11.9036 3.91691   1
   4   0   7 7.33808 3.86827   1
  -4   0  -8 10.1203 4.30820   1
   4   0   8 3.25995 3.87629   1
  -4   0  -9 36.7893 5.34641   1
   4   0   9 33.6562 5.25363   1
  -4   0  -9 20.7828 9.13013   2
  -4   0 -10 48.9436 11.9355   2
   4   0  10 37.7470 5.72027   1
  -4   0 -10 30.7254 5.39835   1
  -4   0 -11 55.3259 12.8295   2
   4   0  11 58.0674 6.25152   1
  -4   0 -11 50.7670 6.14907   1
  -4  -1  14 5.34277 10.0147   1
  -4  -1  14-17.4505 9.55878   1
  -4  -1  13-8.95283 9.84633   1
  -4  -1  13 0.71165 8.44431   1
  -4  -1  12 72.4386 11.5091   1
  -4  -1  12 76.3038 10.9002   1
  -4  -1  11 15.3766 7.72099   1
  -4  -1  11 15.8922 7.14980   1
  -4  -1  10 21.1543 6.73038   1
  -4  -1  10 18.3795 6.73375   1
  -4  -1   9 5.28304 6.17046   1
  -4  -1   9 3.46579 6.09946   1
  -4  -1   8 10.0974 5.90156   1
  -4  -1   8 4.09990 4.39144   1
  -4  -1   7 8.41041 4.40080   1
  -4  -1   7 7.37286 5.36232   1
  -4  -1   6 96.4379 8.56239   1
  -4  -1   6 96.6184 8.47277   1
  -4  -1   5 9.22448 4.42473   1
  -4  -1   5 14.7434 5.06722   1
  -4  -1   4 31.2400 2.30768   2
  -4  -1   4 30.0734 2.14356   2
  -4  -1   4 36.3342 5.62205   1
  -4  -1   4 38.2891 6.10445   1
  -4  -1   3 1.13571 1.96003   2
  -4  -1   3-3.30862 4.33607   1
  -4  -1   3 6.95456 4.10804   1
  -4  -1   2 77.2546 4.92175   2
  -4  -1   2 75.8106 6.97729   1
  -4  -1   2 78.3059 7.18312   1
  -4  -1   1 70.5502 5.29197   2
  -4  -1   1 82.4230 7.11234   1
   4   1  -1 71.9132 6.52969   1
  -4  -1   0 114.189 7.01742   2
  -4  -1   0 113.188 7.93071   1
   4   1   0 107.635 7.66419   1
   4   1   1 70.6140 6.49458   1
  -4  -1  -1 67.7705 6.26884   1
   4   1   2 0.11294 3.62292   1
  -4  -1  -2 1.63165 3.46118   1
  -4  -1  -3 116.493 7.81437   1
   4   1   3 138.638 8.50874   1
  -4  -1  -4 4.62144 3.78291   1
   4   1   4-2.29691 3.81429   1
  -4  -1  -5 25.9526 5.00037   1
   4   1   5 24.4066 4.95762   1
  -4  -1  -6 3.68918 4.14323   1
   4   1   6 4.75331 3.93175   1
  -4  -1  -7 45.7321 6.20311   1
   4   1   7 52.9691 6.61076   1
  -4  -1  -8 372.019 13.9955   1
   4   1   8 357.195 13.6258   1
   4   1   9 3.30889 5.53061   1
  -4  -1  -9 12.7972 5.60605   1
   4   1  10-14.4054 6.69730   1
  -4  -1 -10-1.51456 6.09856   1
  -4  -2  14 12.4272 11.0268   1
  -4  -2  14 8.78891 9.36870   1
  -4  -2  13-2.24704 8.36072   1
  -4  -2  13 14.5749 9.41286   1
  -4  -2  12 4.83281 6.82259   1
  -4  -2  12 3.83655 7.01025   1
  -4  -2  11 14.9853 6.68511   1
  -4  -2  11 15.2966 7.73435   1
  -4  -2  10 4.87355 5.21443   1
  -4  -2  10 11.3944 6.27305   1
  -4  -2   9 61.4704 8.67504   1
  -4  -2   9 64.5207 8.21761   1
  -4  -2   8 0.05745 4.22119   1
  -4  -2   8 1.59113 4.92100   1
  -4  -2   7 27.2042 5.70039   1
  -4  -2   7 29.1554 5.94787   1
  -4  -2   6 22.8856 5.98698   1
  -4  -2   6 23.3624 5.46603   1
  -4  -2   5 187.330 5.14438   2
  -4  -2   5 174.602 10.7649   1
  -4  -2   5 168.908 10.6828   1
  -4  -2   4 32.8750 3.25319   2
  -4  -2   4 23.9013 4.91215   1
  -4  -2   4 30.8811 5.69954   1
  -4  -2   3 1.63884 2.42512   2
  -4  -2   3 2.30290 3.46473   1
   4   2  -3 2.11479 3.77773   1
  -4  -2   2 106.597 6.26315   2
  -4  -2   2 104.452 8.30650   1
   4   2  -2 105.123 7.96893   1
  -4  -2   1 20.2411 4.02279   2
  -4  -2   1 19.2587 4.72581   1
   4   2  -1 16.7776 4.56172   1
  -4  -2   0 11.1046 4.51157   1
   4   2   0 15.6117 4.65397   1
  -4  -2   0 15.7740 3.99687   2
  -4  -2  -1 28.1477 5.25934   2
   4   2   1 37.9635 5.65342   1
  -4  -2  -1 36.1278 5.59858   1
  -4  -2  -2 20.2334 5.16209   2
  -4  -2  -2 16.8229 4.61257   1
   4   2   2 11.9955 4.68177   1
  -4  -2  -3-0.73118 4.36379   2
   4   2   3 11.2224 4.57847   1
  -4  -2  -3 4.99564 4.42046   1
  -4  -2  -4 2.31365 4.79144   2
  -4  -2  -4 3.01958 4.32407   1
   4   2   4 7.64277 4.65153   1
   4   2   5 12.7510 4.97938   1
  -4  -2  -5 13.6598 6.45159   2
  -4  -2  -5 22.5158 5.72941   1
   4   2   6 18.6797 5.75971   1
  -4  -2  -6 8.94395 7.51098   2
  -4  -2  -6 18.4149 5.87324   1
   4   2   7 10.1203 5.91341   1
  -4  -2  -7 13.3869 7.61658   2
  -4  -2  -7 14.0769 5.91738   1
  -4  -2  -8 13.5973 9.58627   2
  -4  -2  -8 14.2128 6.29357   1
   4   2   8 5.83216 5.81313   1
  -4  -2  -9 43.1141 10.0231   2
  -4  -2  -9 26.4314 7.60256   1
   4   2   9 18.1623 7.25226   1
  -4  -2 -10 2.55673 9.45133   2
  -4  -2 -10-3.17600 7.33705   1
   4   2  10-7.75767 7.02656   1
  -4  -3  14 8.90124 10.9343   1
  -4  -3  14-19.2251 11.8884   1
  -4  -3  13 12.8336 9.54474   1
  -4  -3  13-3.65938 8.98625   1
  -4  -3  12 30.9067 9.33569   1
  -4  -3  12-2.08594 7.14981   1
  -4  -3  11 13.1119 7.39663   1
  -4  -3  11 20.2706 7.56253   1
  -4  -3  10 10.9576 5.98999   1
  -4  -3  10 3.21138 6.45283   1
  -4  -3   9 2.65163 5.13664   1
  -4  -3   9 0.18241 5.62261   1
  -4  -3   8 426.782 17.4421   1
  -4  -3   8 377.764 16.8298   1
  -4  -3   7 45.2777 7.45032   1
  -4  -3   7 36.9875 6.72612   1
  -4  -3   6 75.3598 4.05665   2
  -4  -3   6 74.2455 7.66546   1
  -4  -3   6 76.3759 8.54709   1
  -4  -3   5-0.82967 2.32176   2
   4   3  -5-3.36492 4.45113   1
  -4  -3   5-1.27819 4.44685   1
  -4  -3   4 70.5362 5.09691   2
  -4  -3   4 55.6861 6.95688   1
   4   3  -4 59.2759 7.23460   1
  -4  -3   3 189.035 10.9391   1
   4   3  -3 178.458 10.8146   1
  -4  -3   3 186.937 8.33384   2
  -4  -3   2 258.097 10.3260   2
   4   3  -2 242.266 12.3136   1
  -4  -3   2 259.328 12.5604   1
  -4  -3   1 24.9684 4.70480   2
   4   3  -1 26.9103 5.14488   1
  -4  -3   1 17.0816 4.94795   1
  -4  -3   0 159.771 9.36802   2
   4   3   0 148.437 10.1261   1
  -4  -3   0 157.586 10.2277   1
  -4  -3  -1 15.8321 5.00593   2
   4   3   1 11.6871 5.13196   1
  -4  -3  -1 4.81999 4.35707   1
   4   3   2 13.7730 5.02452   1
  -4  -3  -2 11.4775 5.19613   2
  -4  -3  -2 8.44096 5.04151   1
   4   3   3 0.79478 5.13139   1
  -4  -3  -3 2.87415 4.81351   2
  -4  -3  -3-2.42156 5.24428   1
   4   3   4 25.6221 6.45327   1
  -4  -3  -4 39.4922 7.14307   2
  -4  -3  -4 36.9105 6.77788   1
  -4  -3  -5 9.15835 5.59828   1
  -4  -3  -5 9.05118 7.14129   2
   4   3   5 10.5862 5.79187   1
  -4  -3  -6 15.9973 6.91749   2
   4   3   6 22.1650 6.73941   1
  -4  -3  -6 28.4369 7.14521   1
  -4  -3  -7 31.7480 8.94105   2
  -4  -3  -7 24.6326 7.20006   1
   4   3   7 17.1740 7.21912   1
  -4  -3  -8 37.4056 11.4379   2
  -4  -3  -8 27.0030 8.31408   1
   4   3   8 22.2934 7.88838   1
  -4  -3  -9 38.7359 11.7791   2
  -4  -3  -9 22.5898 8.52444   1
   4   3   9 23.5093 9.11762   1
  -4  -4  14 14.9192 9.88420   1
  -4  -4  14 77.4796 13.3774   1
  -4  -4  13-1.76026 9.44942   1
  -4  -4  13 15.7494 8.51211   1
  -4  -4  12-7.44869 7.46369   1
  -4  -4  12 12.3501 8.88386   1
  -4  -4  11-0.13907 6.29736   1
  -4  -4  11 5.42018 7.32342   1
  -4  -4  10 7.97707 7.49269   1
  -4  -4  10 1.17720 6.60210   1
  -4  -4   9 11.0592 6.60373   1
  -4  -4   9 11.6572 6.63147   1
  -4  -4   8 9.97693 2.61150   2
  -4  -4   8 6.05748 6.22070   1
  -4  -4   8 8.01305 5.87152   1
  -4  -4   7 58.5849 8.02058   1
  -4  -4   7 60.0507 4.64714   2
  -4  -4   7 59.5522 7.94165   1
  -4  -4   6 2.85638 5.45367   1
  -4  -4   6 1.03279 2.91128   2
   4   4  -6-1.50953 4.80990   1
   4   4  -5 17.7482 5.93579   1
  -4  -4   5 14.8097 5.68310   1
  -4  -4   5 10.1518 3.42326   2
  -4  -4   4 29.4639 4.59774   2
  -4  -4   4 24.4761 5.86446   1
   4   4  -4 29.2304 6.08847   1
  -4  -4   3 35.7988 5.17950   2
  -4  -4   3 32.8355 6.41964   1
   4   4  -3 28.2596 5.64515   1
  -4  -4   2 64.5639 6.58614   2
   4   4  -2 67.5452 8.15894   1
  -4  -4   2 63.1056 7.86145   1
  -4  -4   1 104.160 8.25196   2
   4   4  -1 103.624 9.10656   1
  -4  -4   1 105.519 8.89498   1
   4   4   0-9.85170 5.51361   1
  -4  -4   0-3.79425 4.89065   2
  -4  -4   0-0.15985 4.63494   1
   4   4   1 11.6597 5.84034   1
  -4  -4  -1 8.99726 5.50938   2
  -4  -4  -1 11.2108 5.25143   1
   4   4   2 3.93404 5.13739   1
  -4  -4  -2-2.54246 4.70599   1
  -4  -4  -2 6.24367 6.04132   2
  -4  -4  -3 32.4886 7.90391   2
   4   4   3 46.7235 7.35480   1
  -4  -4  -3 41.0239 7.90698   1
  -4  -4  -4 19.0771 6.65215   1
  -4  -4  -4 25.6806 8.50799   2
   4   4   4 21.5078 7.18726   1
  -4  -4  -5 29.3510 9.37902   2
   4   4   5 35.4746 7.49993   1
  -4  -4  -5 35.9692 8.47636   1
  -4  -4  -6 6.36374 7.82006   2
   4   4   6 28.4371 8.24722   1
  -4  -4  -6 5.29962 7.01359   1
  -4  -4  -7 3.27742 8.45880   2
   4   4   7 18.9352 7.85817   1
  -4  -4  -7 22.4364 9.08387   1
  -4  -4  -8 4.72605 11.3315   2
  -4  -4  -8 27.1471 10.0460   1
   4   4   8 15.3985 9.38142   1
  -4  -5  14 9.60910 10.4933   1
  -4  -5  14 9.78033 9.99706   1
  -4  -5  13 1.40648 8.71471   1
  -4  -5  13 12.1139 9.15649   1
  -4  -5  12-1.27218 8.84480   1
  -4  -5  12 21.8333 8.52642   1
  -4  -5  11 43.6093 9.13507   1
  -4  -5  11 61.4422 9.43837   1
  -4  -5  10 48.6520 9.66144   1
  -4  -5  10 45.5992 4.40027   2
  -4  -5  10 34.7664 8.74891   1
  -4  -5   9 6.53551 7.09025   1
  -4  -5   9 9.11927 3.52462   2
  -4  -5   9-0.20166 7.55830   1
  -4  -5   8 12.1604 7.05478   1
  -4  -5   8 14.9937 3.80410   2
  -4  -5   8 18.2971 6.83109   1
  -4  -5   7 122.207 7.20962   2
   4   5  -7 118.740 10.2946   1
  -4  -5   7 125.993 10.3702   1
  -4  -5   6 19.9890 4.30538   2
   4   5  -6 26.4272 6.30048   1
  -4  -5   6 8.64858 5.79366   1
  -4  -5   5 7.22121 5.40802   1
   4   5  -5 2.32802 4.98051   1
  -4  -5   5 0.58132 3.72391   2
   4   5  -4 14.8756 6.62273   1
  -4  -5   4 6.94091 4.26317   2
  -4  -5   4 11.3279 5.98177   1
  -4  -5   3-2.20422 4.27844   2
   4   5  -3-5.65657 5.16734   1
  -4  -5   3-1.68290 4.51962   1
  -4  -5   2 42.6178 6.57650   2
   4   5  -2 56.3685 8.44271   1
  -4  -5   2 44.4266 6.93064   1
  -4  -5   1 64.3310 7.83540   2
   4   5  -1 75.6829 9.23440   1
  -4  -5   1 77.4991 9.18835   1
   4   5   0 0.78710 5.18462   1
  -4  -5   0 3.38292 5.38116   2
  -4  -5   0 3.06596 6.19005   1
   4   5   1 17.6511 7.07877   1
  -4  -5  -1 14.4213 6.78376   1
  -4  -5  -1 31.9445 7.33155   2
  -4  -5  -2 61.6169 9.22430   2
   4   5   2 78.9350 10.0041   1
  -4  -5  -2 70.6517 8.97005   1
  -4  -5  -3 80.0230 10.7426   2
   4   5   3 65.9925 9.92869   1
  -4  -5  -3 60.6017 9.46122   1
  -4  -5  -4 10.4886 8.07123   2
   4   5   4 15.7517 7.64979   1
  -4  -5  -4 3.26436 7.86444   1
  -4  -5  -5 16.3887 10.0607   2
   4   5   5 22.1442 8.33012   1
  -4  -5  -5 34.1677 9.82226   1
  -4  -5  -6 7.76791 9.39214   2
   4   5   6-9.30862 9.72282   1
  -4  -5  -6 8.48056 9.10602   1
   4   5   7-0.91017 8.37458   1
  -4  -5  -7 7.39350 9.29163   1
  -4  -6  13-11.2786 10.1652   1
   4   6 -13-6.87593 4.34173   2
  -4  -6  13-0.71133 9.45827   1
  -4  -6  12 10.3548 8.08930   1
   4   6 -12 2.65296 4.26699   2
  -4  -6  12-5.24139 9.26712   1
   4   6 -11 2.47701 4.47413   2
  -4  -6  11-4.17568 6.85532   1
  -4  -6  11-1.56841 4.25128   2
  -4  -6  11-15.1192 8.32597   1
   4   6 -10-1.59081 4.52289   2
  -4  -6  10 0.70836 7.80968   1
  -4  -6  10-6.27438 4.63341   2
  -4  -6  10-9.61420 8.83208   1
   4   6  -9 2.25294 4.33043   2
  -4  -6   9 5.29487 7.21561   1
  -4  -6   9-1.07979 4.17587   2
  -4  -6   8 28.7871 8.60852   1
  -4  -6   8 38.1307 5.96530   2
   4   6  -8 33.8586 7.59171   1
   4   6  -7 143.914 11.8743   1
  -4  -6   7 132.248 8.90154   2
  -4  -6   7 139.982 11.5711   1
   4   6  -6 6.33252 6.36399   1
  -4  -6   6-0.29130 4.59849   2
  -4  -6   6 9.65850 6.78768   1
  -4  -6   5 50.4874 6.80003   2
  -4  -6   5 36.2490 7.94689   1
   4   6  -5 53.2008 8.83937   1
  -4  -6   4 43.1727 6.78438   2
  -4  -6   4 42.5373 7.59763   1
   4   6  -4 36.3008 7.18363   1
  -4  -6   3 13.6636 5.48613   2
   4   6  -3 22.2040 6.83329   1
  -4  -6   3-0.06499 6.56811   1
   4   6  -2 2.44014 6.10033   1
  -4  -6   2-9.33848 6.27389   2
  -4  -6   2-3.74686 5.89387   1
  -4  -6   1 32.6073 7.94282   2
   4   6  -1 27.5668 7.33644   1
  -4  -6   1 23.3032 6.89650   1
  -4  -6   0 131.938 11.8090   2
   4   6   0 141.413 12.7173   1
  -4  -6   0 127.822 11.7009   1
  -4  -6  -1 4.03856 7.34805   1
  -4  -6  -1 14.0021 7.93701   2
   4   6   1 7.39407 7.54590   1
  -4  -6  -2 13.7635 8.47196   1
  -4  -6  -2 9.43029 8.20079   2
   4   6   2 1.79454 7.58194   1
  -4  -6  -3 2.23601 7.40099   1
  -4  -6  -3-7.40074 7.45929   2
  -4  -6  -4 12.7139 9.75774   2
   4   6   4-1.92424 8.44788   1
  -4  -6  -5 59.0832 12.6150   2
  -4  -6  -5 31.9666 10.1391   1
  -4  -7  12 7.23368 10.2020   1
   4   7 -12-4.61644 6.42285   2
  -4  -7  12-4.77773 5.47923   2
  -4  -7  12-16.1839 9.84951   1
  -4  -7  11 10.1298 9.55099   1
   4   7 -11 5.97678 5.67006   2
  -4  -7  11 13.1590 5.77232   2
  -4  -7  11-3.04320 8.20791   1
  -4  -7  10 20.3671 9.20358   1
   4   7 -10 7.39772 6.16348   2
  -4  -7  10 15.0825 6.03304   2
  -4  -7  10-7.74012 8.42743   1
   4   7  -9 62.1311 7.60240   2
  -4  -7   9 54.0933 7.54629   2
   4   7  -9 69.5222 11.4827   1
  -4  -7   9 75.5902 10.6526   1
   4   7  -8 36.4174 6.80689   2
   4   7  -8 49.8886 10.0037   1
  -4  -7   8 32.6729 6.58226   2
  -4  -7   8 36.6129 8.46926   1
  -4  -7   7-2.06049 5.43081   2
   4   7  -7 12.0027 7.35088   1
  -4  -7   7-1.86903 8.34443   1
   4   7  -6 1.59346 7.03012   1
  -4  -7   6 1.51789 5.62524   2
  -4  -7   6-0.71617 6.62889   1
  -4  -7   5 9.66816 6.52513   2
  -4  -7   5 0.43039 6.03018   1
   4   7  -5 8.39128 7.60467   1
  -4  -7   4-6.56829 5.85001   2
  -4  -7   4 7.65423 6.69850   1
   4   7  -4-1.59491 7.77398   1
   4   7  -3-10.7288 7.96180   1
  -4  -7   3 10.4535 6.88750   2
  -4  -7   3 9.95986 8.33731   1
   4   7  -2 9.47881 7.05018   1
  -4  -7   2 11.9918 8.47837   1
  -4  -7   2-0.63979 7.32309   2
  -4  -7   1 227.614 14.7679   2
   4   7  -1 223.977 16.0553   1
  -4  -7   1 218.229 15.8060   1
  -4  -7   0 23.9521 7.96434   1
  -4  -7   0 27.8513 8.45197   2
   4   7   0 5.69084 9.02107   1
  -4  -7  -1 33.4530 9.62119   1
  -4  -7  -1 27.7707 10.4046   2
   4   7   1 19.0399 10.2306   1
  -4  -7  -2-3.92725 8.50917   1
  -4  -7  -2 4.65798 9.98868   2
   4   7   2 2.77016 8.17545   1
  -4  -7  -3 106.121 13.6969   2
  -4  -7  -3 108.093 13.4502   1
  -4  -7  -4 22.5170 7.92707   2
   4   7   4 7.11160 6.27077   1
  -4  -7  -4 3.43855 4.96228   1
  -4  -8  11 30.6348 8.34276   2
   4   8 -11 32.0689 8.44016   2
  -4  -8  11 40.2962 11.2968   1
   4   8 -10 41.3212 8.15750   2
  -4  -8  10 20.2999 7.25620   2
  -4  -8  10 23.6308 10.3424   1
   4   8 -10 43.6335 10.5787   1
   4   8  -9 40.9126 8.70506   2
  -4  -8   9 55.8904 8.93552   2
   4   8  -9 48.3689 10.8767   1
  -4  -8   9 49.3618 11.4835   1
   4   8  -8 28.0057 8.30706   2
  -4  -8   8 36.3969 8.14095   2
  -4  -8   8 28.3685 10.4450   1
   4   8  -8 5.04251 8.45584   1
  -4  -8   7 54.7439 8.97885   2
  -4  -8   7 33.4705 10.6833   1
   4   8  -7 53.2805 11.8313   1
  -4  -8   6-6.74946 6.96481   2
  -4  -8   6 15.2814 9.53453   1
   4   8  -6 7.12393 7.67296   1
  -4  -8   5-3.26835 7.66125   1
  -4  -8   5 8.40417 7.43310   2
   4   8  -5 6.40487 8.93569   1
  -4  -8   4 12.0374 8.93257   1
   4   8  -4 14.6237 8.89450   1
  -4  -8   4-0.13218 8.10183   2
  -4  -8   3 73.2944 11.3975   2
   4   8  -3 82.4006 12.4179   1
  -4  -8   3 76.6122 11.6006   1
  -4  -8   2 119.888 12.9979   2
   4   8  -2 103.563 13.7725   1
  -4  -8   2 98.0508 12.3125   1
   4   8  -1 5.50088 10.5724   1
  -4  -8   1 5.07216 10.2921   1
  -4  -8   1-1.55329 8.86457   2
  -4  -8   0 24.8760 10.5619   1
  -4  -8   0 24.4712 10.7300   2
   4   8   0 24.3067 10.6271   1
  -4  -8  -1-14.8807 12.3098   1
  -4  -8  -1-7.81011 10.4297   2
   4   8   1-6.52196 9.00263   1
   4   9  -9 10.3314 6.96083   2
  -4  -9   9-1.34860 6.73158   2
   4   9  -8 14.2849 9.42831   2
   4   9  -8 12.9288 10.1028   1
  -4  -9   8 16.8553 12.0468   1
  -4  -9   8 28.6747 10.0799   2
   4   9  -7 5.10632 11.0216   1
  -4  -9   7 16.9929 11.0147   1
  -4  -9   7 29.9308 10.3239   2
  -4  -9   6 19.3302 9.69767   1
  -4  -9   6-3.45207 8.82343   2
   4   9  -6-3.00316 11.2621   1
  -4  -9   5-8.05708 12.3894   1
  -4  -9   5 1.45862 9.79738   2
   4   9  -5 2.13638 11.4693   1
  -4  -9   4 17.0905 11.5015   1
   4   9  -4-18.6118 11.7027   1
  -4  -9   4-3.28133 10.5527   2
  -4  -9   3 65.9543 12.8941   2
  -4  -9   3 61.3570 12.1654   1
   4   9  -3 75.6215 14.9254   1
  -4  -9   2 1.84509 10.4503   2
  -5   8   2 16.6336 5.31788   2
   5  -8  -2 7.84966 4.44010   2
  -5   8   2 6.40833 6.70068   1
   5  -8  -2 2.32589 6.04007   1
  -5   8   1-0.67975 7.92487   2
   5  -8  -1-8.76911 7.79679   2
  -5   8   1-3.10334 8.85592   1
   5  -8  -1 13.7298 9.77468   1
  -5   8   0 5.93570 8.38531   2
   5  -8   0 8.19803 7.87956   2
   5  -8   0 16.8915 8.77055   1
  -5   8   0 1.16461 9.09623   1
  -5   8  -1 38.8963 8.73473   1
  -5   8  -1 31.6913 9.71718   2
  -5   8  -1 31.2907 8.50714   1
  -5   8  -2 36.9598 9.25600   2
  -5   8  -2 23.8151 7.87528   1
  -5   8  -2 32.0845 7.95913   1
  -5   8  -3 3.54490 9.21999   2
  -5   8  -3-2.94153 6.06941   1
  -5   8  -3 20.3903 7.09273   1
  -5   8  -4 59.8725 7.04895   1
  -5   8  -4 43.7962 11.5415   2
  -5   8  -4 42.7325 6.60324   1
  -5   8  -5-0.58644 4.02094   1
  -5   8  -5 5.29398 9.33499   2
  -5   8  -6 8.73619 6.13739   2
  -5   7   4 18.9845 6.54887   2
  -5   7   4-5.61239 9.30515   1
   5  -7  -4 9.02434 6.23794   2
   5  -7  -4 23.3390 10.3067   1
  -5   7   3 29.3327 6.84728   2
   5  -7  -3 38.7921 10.2370   1
  -5   7   2 7.94635 6.22128   2
  -5   7   2-6.83534 8.88357   1
   5  -7  -2-10.7486 8.99969   1
  -5   7   1 5.44555 6.56580   2
  -5   7   1 14.5136 7.62944   1
   5  -7  -1 13.4206 8.09587   1
  -5   7   0 32.8925 7.95597   2
  -5   7   0 35.1612 8.18347   1
  -5   7   0 29.0506 8.16795   1
  -5   7  -1-4.93503 6.64431   2
  -5   7  -1-11.8024 6.09946   1
  -5   7  -1 4.39719 6.34457   1
  -5   7  -2 4.98870 7.45708   2
  -5   7  -2 3.18523 5.66251   1
  -5   7  -2 11.6540 6.60124   1
  -5   7  -3 14.8375 8.31333   2
  -5   7  -3 14.9259 5.98968   1
  -5   7  -3 22.0420 5.96089   1
  -5   7  -4 22.6518 9.02943   2
  -5   7  -4 39.0964 5.83208   1
  -5   7  -4 30.2316 5.81738   1
  -5   7  -5 22.3673 4.03493   1
  -5   7  -5 22.3390 4.05075   1
  -5   7  -5 18.9689 9.38298   2
  -5   7  -6 17.9167 9.48866   2
  -5   7  -7 57.4365 11.6477   2
  -5   6   6 32.4381 10.0021   1
   5  -6  -6 60.2432 13.4500   1
  -5   6   5 16.6294 8.48428   1
   5  -6  -5-1.13518 9.67929   1
  -5   6   4 4.37390 4.87449   2
   5  -6  -4-6.56644 8.94493   1
  -5   6   3 17.1366 5.47937   2
  -5   6   3 8.40117 8.55540   1
   5  -6  -3 10.7920 8.02574   1
  -5   6   2-8.65957 5.70848   2
  -5   6   2-4.07994 7.29539   1
  -5   6   1 0.97977 6.62424   1
  -5   6   1 5.54723 5.11828   2
  -5   6   1 3.29751 6.78180   1
  -5   6   0-8.68622 6.10230   2
  -5   6   0 5.93994 6.12176   1
  -5   6   0 9.36547 6.12676   1
  -5   6  -1 36.1495 6.89281   1
  -5   6  -1 22.9698 6.58730   2
  -5   6  -1 36.7417 6.81741   1
  -5   6  -2 5.34424 5.22157   1
  -5   6  -2 9.56609 6.09839   2
  -5   6  -2 13.4065 5.33701   1
  -5   6  -3 29.5441 5.58306   1
  -5   6  -3 19.4985 7.40941   2
  -5   6  -3 23.7027 5.41703   1
  -5   6  -4 28.1845 5.09210   1
  -5   6  -4 11.7561 8.03425   2
  -5   6  -4 24.6415 4.89171   1
  -5   6  -5 17.3173 3.56347   1
  -5   6  -5 20.7958 3.77599   1
  -5   6  -5 15.3813 8.23320   2
  -5   6  -6 18.2786 9.07733   2
  -5   6  -7 59.2281 11.3870   2
  -5   6  -8-1.07423 10.2943   2
  -5   5   8-11.8666 11.8569   1
   5  -5  -8-5.07600 11.7664   1
  -5   5   7 30.7068 9.46737   1
   5  -5  -7 30.6038 11.1949   1
   5  -5  -6 99.4325 12.4267   1
  -5   5   6 107.788 13.2394   1
  -5   5   5 18.8031 8.86078   1
   5  -5  -5 16.5724 9.31465   1
  -5   5   4 4.07154 3.24439   2
  -5   5   4-8.26545 7.13110   1
  -5   5   3 88.9441 6.57961   2
  -5   5   3 78.7453 10.1258   1
  -5   5   3 78.4129 9.77761   1
  -5   5   2 33.3106 5.28773   2
  -5   5   2 36.1128 7.79973   1
  -5   5   2 42.6454 7.79131   1
  -5   5   1 6.61620 5.61145   1
  -5   5   1 5.24859 4.84198   2
  -5   5   1 19.4986 6.41360   1
  -5   5   0 23.8330 5.83951   2
  -5   5   0 26.0095 6.26045   1
  -5   5   0 25.4006 6.42608   1
  -5   5  -1 21.8023 5.68885   1
  -5   5  -1 27.1876 6.21973   2
  -5   5  -1 24.9826 5.98118   1
  -5   5  -2-0.20037 4.24777   1
  -5   5  -2-0.68676 5.22230   2
  -5   5  -2 1.15893 4.67163   1
  -5   5  -3 47.3795 7.73893   2
  -5   5  -3 34.4433 5.38019   1
  -5   5  -3 41.5869 5.54416   1
  -5   5  -4-0.05847 6.40352   2
  -5   5  -4 10.2085 3.82797   1
  -5   5  -4 4.29473 3.80325   1
  -5   5  -5 6.23004 2.85830   1
  -5   5  -5 6.97906 6.74887   2
  -5   5  -5 3.81135 2.97523   1
  -5   5  -6 20.1435 9.11267   2
  -5   5  -7 11.6197 8.75495   2
  -5   5  -8 15.1829 10.1377   2
  -5   5  -9 45.9131 12.9662   2
  -5   4   9 113.201 15.7873   1
  -5   4   9 94.0537 14.6172   1
  -5   4   8 43.1730 11.8330   1
  -5   4   8 33.8194 10.6440   1
  -5   4   7 6.62667 9.05955   1
  -5   4   7 26.5354 9.97288   1
  -5   4   6-6.76919 8.10373   1
  -5   4   6 14.5222 8.42651   1
  -5   4   5 25.2350 8.45994   1
  -5   4   5 17.5287 8.02625   1
  -5   4   4 3.15975 2.30837   2
  -5   4   4 10.5455 6.58234   1
  -5   4   4 8.98602 6.20391   1
  -5   4   3 4.03887 5.77971   1
  -5   4   3-1.30010 3.08508   2
  -5   4   3 5.64332 6.43463   1
  -5   4   2 6.60630 5.84994   1
  -5   4   2 10.3798 3.77127   2
  -5   4   2 8.12712 5.97745   1
  -5   4   1 12.7333 5.72944   1
  -5   4   1 7.26200 4.04202   2
  -5   4   0 11.6857 5.01904   1
  -5   4   0 6.89435 4.31674   2
  -5   4   0 21.8043 5.83762   1
  -5   4  -1-4.25611 4.65290   1
  -5   4  -1 1.28072 4.46258   1
  -5   4  -1 4.99773 4.68416   2
  -5   4  -2 57.2999 7.49114   2
  -5   4  -2 64.0363 6.77974   1
  -5   4  -2 57.9306 6.59834   1
  -5   4  -3 2.14246 4.01805   1
  -5   4  -3-4.19433 5.18292   2
  -5   4  -3 1.41994 3.83227   1
  -5   4  -4 3.50554 3.51428   1
  -5   4  -4 4.24940 3.60617   1
  -5   4  -4-2.77412 5.48370   2
  -5   4  -5 1.43026 3.15538   1
  -5   4  -5-8.96266 6.90843   2
  -5   4  -5-2.27606 3.07353   1
  -5   4  -6 0.92419 1.90318   1
  -5   4  -6 0.09029 1.89294   1
  -5   4  -6-1.55190 7.93708   2
  -5   4  -7-7.36181 8.02824   2
  -5   4  -8 44.3282 10.4355   2
  -5   4  -9 33.4912 12.0743   2
  -5   3  10 7.15083 11.2110   1
  -5   3  10 1.16700 11.1499   1
  -5   3   9 9.02729 9.88818   1
  -5   3   9 8.31808 10.2519   1
  -5   3   8 67.3497 10.8524   1
  -5   3   8 82.8914 12.1183   1
  -5   3   7 37.7043 8.47705   1
  -5   3   7 40.6696 9.43978   1
  -5   3   6 11.4489 6.47068   1
  -5   3   6 22.1945 7.92283   1
  -5   3   5 20.5090 7.13645   1
  -5   3   5 25.2297 7.64974   1
  -5   3   4 62.3724 2.31634   2
  -5   3   4 75.3371 9.31317   1
  -5   3   4 66.4444 9.12427   1
  -5   3   3 41.0053 3.58724   2
  -5   3   3 31.5506 6.86357   1
  -5   3   3 47.1607 7.24712   1
  -5   3   2 47.1142 4.71265   2
  -5   3   2 48.0977 7.17299   1
  -5   3   2 45.1200 6.85800   1
  -5   3   1 26.2272 4.30973   2
  -5   3   1 15.6211 5.21383   1
  -5   3   1 21.7077 5.83266   1
  -5   3   0 36.9046 5.29802   2
  -5   3   0 28.0676 5.73428   1
  -5   3   0 35.0905 6.06557   1
  -5   3  -1 8.88050 4.50103   1
  -5   3  -1 7.82696 4.45709   1
  -5   3  -1 4.76653 4.26537   2
  -5   3  -2 52.3912 6.64205   2
  -5   3  -2 49.3070 6.11491   1
  -5   3  -2 49.0255 5.96357   1
  -5   3  -3 0.31239 3.82264   1
  -5   3  -3 5.58720 4.19043   1
  -5   3  -3 0.57863 5.28896   2
  -5   3  -4 4.73667 3.75914   1
  -5   3  -4-0.43137 3.57260   1
  -5   3  -4-4.08938 5.12517   2
  -5   3  -5 43.2639 7.56944   2
  -5   3  -5 46.1997 4.92299   1
  -5   3  -5 45.7618 4.92842   1
  -5   3  -6 7.98754 3.09353   1
  -5   3  -6 8.28965 2.94884   1
  -5   3  -6 9.11475 7.13210   2
  -5   3  -7-8.33404 7.77325   2
  -5   3  -7 0.93358 1.32869   1
  -5   3  -8 33.6050 9.38451   2
  -5   3  -9 80.0358 11.9102   2
  -5   2  11-3.72106 11.7095   1
  -5   2  11 19.0070 12.5980   1
  -5   2  10-17.9301 10.7337   1
  -5   2  10 10.1261 8.61157   1
  -5   2   9-8.68740 8.96253   1
  -5   2   9-12.9662 8.92751   1
  -5   2   8-7.34741 7.61876   1
  -5   2   8 1.86841 7.02386   1
  -5   2   7 9.12486 7.80305   1
  -5   2   7 14.3168 6.61849   1
  -5   2   6 4.92183 6.55029   1
  -5   2   6 0.06589 6.26853   1
  -5   2   5-1.17798 5.81310   1
  -5   2   5 11.5529 6.18710   1
  -5   2   4 1.91578 4.77904   1
  -5   2   4 2.77310 5.53977   1
  -5   2   3 3.69163 5.27218   1
  -5   2   3 2.16037 1.95991   2
  -5   2   2 5.59421 5.18810   1
  -5   2   2 4.59783 2.86156   2
  -5   2   2 1.52959 4.84073   1
  -5   2   1 86.4302 6.13560   2
  -5   2   1 88.3904 8.32646   1
  -5   2   1 96.5368 8.51535   1
  -5   2   0 155.533 8.52679   2
  -5   2   0 164.702 10.1632   1
  -5   2   0 164.264 10.2084   1
  -5   2  -1 23.3185 4.96312   2
  -5   2  -1 22.1874 5.32685   1
  -5   2  -1 28.0413 5.33826   1
  -5   2  -2 5.09991 3.99895   1
  -5   2  -2-0.11682 4.28031   1
  -5   2  -2-3.97919 4.57934   2
  -5   2  -3 120.170 9.28528   2
  -5   2  -3 117.805 7.95251   1
  -5   2  -3 112.318 7.65886   1
  -5   2  -4 12.3096 4.36752   1
  -5   2  -4 5.51158 5.30982   2
  -5   2  -4 10.5354 4.13237   1
  -5   2  -5 9.86208 3.97582   1
  -5   2  -5 6.04293 3.90154   1
  -5   2  -5 4.49428 6.24480   2
  -5   2  -6 27.8015 4.39561   1
  -5   2  -6 21.4808 4.55156   1
  -5   2  -6 17.0509 7.57624   2
  -5   2  -7 0.96071 3.16740   1
  -5   2  -7-0.76990 7.87126   2
  -5   2  -7 3.19709 3.09551   1
  -5   2  -8 0.42259 2.02880   1
  -5   2  -8-7.92968 8.95614   2
  -5   2  -9 45.5760 12.4338   2
  -5   1  11 36.0916 10.7265   1
  -5   1  11 36.1285 11.0382   1
  -5   1  10 11.5059 8.62879   1
  -5   1  10 26.8916 11.0133   1
  -5   1   9-14.1431 9.21260   1
  -5   1   9 12.4862 7.75954   1
  -5   1   8 14.9929 8.38902   1
  -5   1   8 15.3089 8.65597   1
  -5   1   7-2.45235 5.94947   1
  -5   1   7 3.99643 6.32045   1
  -5   1   6 47.7142 8.27288   1
  -5   1   6 58.3214 9.39868   1
  -5   1   5 11.9023 6.48893   1
  -5   1   5 18.2931 6.71059   1
  -5   1   4 5.87188 4.86688   1
  -5   1   4 11.7542 5.52900   1
  -5   1   3 35.9462 3.13252   2
  -5   1   3 34.9701 3.03541   2
  -5   1   3 46.2262 7.09390   1
  -5   1   3 51.1794 7.67229   1
  -5   1   2 190.926 7.47107   2
  -5   1   2 198.156 11.5820   1
  -5   1   2 193.987 11.6479   1
  -5   1   1 96.3021 6.37320   2
  -5   1   1 94.0432 8.43269   1
  -5   1   1 89.7398 8.32049   1
  -5   1   0 0.27763 4.37740   1
  -5   1   0 2.52467 3.74943   2
  -5   1   0 5.40673 4.81992   1
  -5   1  -1 19.4371 5.29338   1
  -5   1  -1 25.4362 5.41221   1
  -5   1  -1 19.8164 4.88334   2
  -5   1  -2 105.615 8.30081   2
  -5   1  -2 91.5545 7.88244   1
  -5   1  -2 100.407 7.80415   1
  -5   1  -3 18.1937 5.63619   2
  -5   1  -3 30.9633 5.41205   1
  -5   1  -3 25.8376 5.12498   1
  -5   1  -4 7.37411 4.31517   1
  -5   1  -4 11.1292 6.07503   2
  -5   1  -4 1.14598 4.21695   1
  -5   1  -5 16.7686 4.69453   1
  -5   1  -5 12.8101 6.94293   2
  -5   1  -5 6.46958 4.38230   1
  -5   1  -6 21.2596 5.21784   1
  -5   1  -6 23.4461 7.95777   2
  -5   1  -6 21.7297 4.85876   1
  -5   1  -7 13.7135 8.96353   2
  -5   1  -7-0.52139 4.59946   1
  -5   1  -7 6.93274 4.67169   1
  -5   1  -8 27.6161 9.86053   2
  -5   1  -8 18.9453 4.81708   1
  -5   1  -8 19.0066 4.69100   1
  -5   1  -9 13.5524 3.89012   1
  -5   1  -9 17.0980 12.1405   2
  -5   1  -9 15.1830 3.82233   1
  -5   0  12-12.7079 12.3653   1
  -5   0  12 0.90464 11.7832   1
  -5   0  11 25.2759 11.2816   1
  -5   0  11 34.6331 11.0666   1
  -5   0  10-13.6575 8.55202   1
  -5   0  10-8.96161 7.01274   1
  -5   0   9-8.44764 8.60163   1
  -5   0   9-4.28597 8.15150   1
  -5   0   8 50.0271 8.85794   1
  -5   0   8 68.1074 10.2338   1
  -5   0   7 19.1243 7.98305   1
  -5   0   7 17.1506 7.76539   1
  -5   0   6 135.104 11.3296   1
  -5   0   6 134.197 11.5455   1
  -5   0   5 4.89014 6.08293   1
  -5   0   5 27.7621 6.93497   1
  -5   0   4 6.47875 6.00352   1
  -5   0   4 9.25321 5.91194   1
  -5   0   3 46.1653 3.70170   2
  -5   0   3 42.4252 3.54311   2
  -5   0   3 43.6907 7.09488   1
  -5   0   3 43.0069 7.00611   1
  -5   0   2 51.1772 4.78353   2
  -5   0   2 53.7851 4.70661   2
  -5   0   2 60.4092 7.69132   1
  -5   0   2 53.7869 7.26024   1
  -5   0   1 26.8778 4.55760   2
  -5   0   1 26.3497 6.31583   1
  -5   0   1 29.3839 4.49437   2
  -5   0   1 25.0295 6.23149   1
  -5   0   0-8.37793 4.84105   1
  -5   0   0-4.86796 3.79832   2
  -5   0   0 2.44078 4.66510   1
  -5   0  -1 81.0299 7.29916   2
  -5   0  -1 86.6222 8.11639   1
  -5   0  -1 87.3625 7.99539   1
  -5   0  -2 38.3331 6.47197   2
  -5   0  -2 41.7080 6.29159   1
  -5   0  -2 43.9767 6.38570   1
  -5   0  -3 5.15028 4.57279   1
  -5   0  -3 15.2013 5.78701   2
  -5   0  -3 5.11167 4.71926   1
  -5   0  -4 22.3199 5.36768   1
  -5   0  -4 26.2284 6.59771   2
  -5   0  -5 24.4706 6.00779   1
  -5   0  -5 22.4288 7.27754   2
  -5   0  -6 30.9810 5.97248   1
   5   0   6 31.7997 5.85123   1
  -5   0  -6 47.4703 9.51088   2
   5   0   7 31.8240 6.26103   1
  -5   0  -7 52.0108 9.83153   2
  -5   0  -7 34.4215 6.27960   1
  -5   0  -8-9.80522 9.99168   2
  -5   0  -8 3.13499 5.40130   1
   5   0   8-8.62377 5.98620   1
  -5   0  -9 77.3090 7.25936   1
  -5   0  -9 80.4602 13.4493   2
  -5  -1  12 8.21980 10.8077   1
  -5  -1  12 11.2597 9.90252   1
  -5  -1  11-2.22980 7.96882   1
  -5  -1  11-0.99540 10.2659   1
  -5  -1  10 27.0795 10.3226   1
  -5  -1  10 4.62525 7.81223   1
  -5  -1   9 19.0606 8.49277   1
  -5  -1   9-10.4508 7.63108   1
  -5  -1   8 4.85345 6.86794   1
  -5  -1   8 17.2949 8.00279   1
  -5  -1   7-0.06715 5.56494   1
  -5  -1   7-0.66459 6.33409   1
  -5  -1   6 26.2533 6.78459   1
  -5  -1   6 26.7990 7.62971   1
  -5  -1   5 10.4063 5.36396   1
  -5  -1   5 10.0228 6.39271   1
  -5  -1   4 204.946 6.03256   2
  -5  -1   4 185.484 5.50586   2
  -5  -1   4 223.377 12.9219   1
  -5  -1   4 204.266 13.0646   1
  -5  -1   3 91.1178 5.55803   2
  -5  -1   3 99.0598 9.57293   1
  -5  -1   3 97.0566 5.53541   2
  -5  -1   3 101.350 9.77765   1
  -5  -1   2 2.90468 3.29712   2
  -5  -1   2 0.69445 5.31256   1
  -5  -1   2 6.71364 3.55964   2
  -5  -1   2 10.6572 5.62862   1
  -5  -1   1 20.9072 4.66220   2
  -5  -1   1 19.6643 5.77486   1
  -5  -1   1 19.4211 5.61223   1
  -5  -1   0 252.127 11.4272   2
  -5  -1   0 253.138 13.3759   1
  -5  -1   0 241.972 12.7740   1
  -5  -1  -1 67.1353 7.30084   2
   5   1   1 63.0151 7.41234   1
  -5  -1  -1 55.9439 7.23837   1
  -5  -1  -2 2.72822 5.25019   2
   5   1   2 4.25295 4.87094   1
  -5  -1  -2 0.04835 5.00317   1
   5   1   3 17.5605 5.77388   1
  -5  -1  -3 10.9692 5.32103   1
  -5  -1  -4 7.25662 5.33028   1
   5   1   4 10.2321 5.39691   1
   5   1   5 46.8320 7.26563   1
  -5  -1  -5 45.1927 7.50156   1
  -5  -1  -6 10.5152 6.01329   1
   5   1   6 17.1763 6.43863   1
   5   1   7 26.4837 6.94652   1
  -5  -1  -7 27.4847 7.33135   1
   5   1   8 19.3823 7.61990   1
  -5  -1  -8 19.8046 7.32381   1
  -5  -2  12 0.17314 9.02647   1
  -5  -2  12-13.7168 10.4432   1
  -5  -2  11-5.90345 9.40101   1
  -5  -2  11-0.32903 9.22683   1
  -5  -2  10 25.4127 9.71042   1
  -5  -2  10 32.5631 10.5214   1
  -5  -2   9 10.5255 7.60825   1
  -5  -2   9 10.6586 7.28031   1
  -5  -2   8-1.05496 7.47469   1
  -5  -2   8 5.98052 7.70701   1
  -5  -2   7 24.9455 7.22191   1
  -5  -2   7 26.3016 8.38218   1
  -5  -2   6 3.72216 6.55113   1
  -5  -2   6-5.89593 6.80247   1
  -5  -2   5 2.76415 1.71117   2
  -5  -2   5 1.49226 1.54325   2
  -5  -2   5 3.30091 6.36159   1
  -5  -2   4 16.3988 3.38751   2
  -5  -2   4 14.1431 6.29226   1
  -5  -2   4 19.8244 7.15642   1
  -5  -2   3 53.9292 5.21518   2
  -5  -2   3 45.6687 7.78340   1
  -5  -2   3 59.7263 8.53947   1
  -5  -2   2 49.5770 7.85560   1
  -5  -2   2 52.7982 5.87158   2
  -5  -2   1 26.4898 5.30020   2
   5   2  -1 26.3250 6.67644   1
  -5  -2   1 32.3613 6.46316   1
  -5  -2   0-0.78894 4.36635   2
   5   2   0-1.35648 4.96246   1
  -5  -2   0-1.24154 5.21824   1
  -5  -2  -1 2.83522 5.04499   2
  -5  -2  -1-2.58072 5.45538   1
   5   2   1 5.72680 5.65745   1
  -5  -2  -2 55.3638 7.89036   2
  -5  -2  -2 65.2249 8.27710   1
   5   2   2 59.2111 7.97487   1
  -5  -2  -3 17.4987 6.85962   2
   5   2   3 9.14329 6.12739   1
  -5  -2  -3 26.7683 6.77085   1
  -5  -2  -4 78.3706 9.94200   2
  -5  -2  -4 87.1524 9.35188   1
   5   2   4 84.2649 9.06290   1
  -5  -2  -5 71.5070 10.8354   2
  -5  -2  -5 86.8715 9.54225   1
   5   2   5 75.4632 9.22682   1
  -5  -2  -6-3.63393 8.03897   2
   5   2   6-2.37758 6.73280   1
  -5  -2  -6 1.89756 7.03027   1
  -5  -2  -7 80.6255 12.9606   2
  -5  -2  -7 81.1633 10.0442   1
   5   2   7 84.3601 10.0008   1
  -5  -3  12 12.1731 11.3484   1
  -5  -3  12 5.87994 11.5741   1
  -5  -3  11 41.7692 11.0284   1
  -5  -3  11 23.1967 10.0848   1
  -5  -3  10 9.37383 7.99373   1
  -5  -3  10 7.92036 9.27570   1
  -5  -3   9 16.8757 8.62734   1
  -5  -3   9 32.0844 8.96625   1
  -5  -3   8 12.1334 6.98569   1
  -5  -3   8 10.4762 7.92977   1
  -5  -3   7-4.54943 6.85752   1
  -5  -3   7 1.48303 7.42207   1
  -5  -3   6 1.08960 1.96553   2
  -5  -3   6 1.53162 6.06137   1
  -5  -3   6 12.7264 7.43130   1
  -5  -3   5-3.55028 3.23283   2
  -5  -3   5-0.32228 5.40474   1
  -5  -3   5 2.05933 5.35008   1
  -5  -3   4 36.8906 7.78706   1
  -5  -3   4 33.7786 4.61757   2
  -5  -3   3 10.0522 5.98960   1
  -5  -3   3 20.8575 4.65304   2
   5   3  -3 21.9077 6.79952   1
  -5  -3   2 1.50866 4.35470   2
   5   3  -2-3.37588 5.58668   1
  -5  -3   1 0.92818 4.87766   2
   5   3  -1 11.2726 5.77074   1
  -5  -3   1 4.80310 5.62448   1
  -5  -3   0 4.68431 5.21825   2
   5   3   0 12.3697 6.90755   1
  -5  -3   0-2.31682 5.63294   1
   5   3   1 20.6600 7.18089   1
  -5  -3  -1 23.4040 6.96489   2
  -5  -3  -1 24.8552 7.44277   1
  -5  -3  -2 42.5605 8.66411   2
  -5  -3  -2 45.6399 8.25440   1
   5   3   2 42.5921 8.12595   1
  -5  -3  -3 15.0093 6.98036   2
  -5  -3  -3 1.81972 6.89935   1
  -5  -3  -4 34.3426 8.39119   1
  -5  -3  -4 11.6485 7.87319   2
   5   3   4 13.0773 7.55630   1
  -5  -3  -5 44.3321 10.6903   2
  -5  -3  -5 57.8030 9.96320   1
   5   3   5 55.9573 9.73156   1
  -5  -3  -6-13.7091 10.5020   2
   5   3   6-5.85068 8.77220   1
  -5  -3  -6-4.20164 8.70140   1
  -5  -4  12 4.23695 10.5508   1
  -5  -4  12 31.4348 10.0787   1
  -5  -4  11 9.74513 8.50851   1
  -5  -4  11 24.4788 8.63596   1
  -5  -4  10 99.5684 13.1578   1
  -5  -4  10 52.8686 11.9090   1
  -5  -4   9-5.54952 8.18252   1
  -5  -4   9 15.0059 9.40478   1
  -5  -4   8 19.9170 8.20816   1
  -5  -4   8 8.62779 7.71192   1
  -5  -4   7 2.29566 6.05608   1
  -5  -4   7 2.09685 2.51303   2
  -5  -4   6 7.22934 7.50466   1
  -5  -4   6 2.88756 3.56577   2
  -5  -4   6-6.26795 7.50115   1
   5   4  -5 5.86694 6.83184   1
  -5  -4   5 6.77420 7.15702   1
  -5  -4   5 5.28641 4.06597   2
  -5  -4   4 4.18822 7.31712   1
  -5  -4   4 7.51172 4.66584   2
   5   4  -4 13.4861 6.62579   1
   5   4  -3 11.0328 6.40345   1
  -5  -4   3 8.14882 5.16130   2
  -5  -4   3 3.47837 6.19773   1
  -5  -4   2 25.6212 6.37785   2
   5   4  -2 32.3975 8.29451   1
  -5  -4   2 36.5466 7.52158   1
  -5  -4   1 35.8048 7.16438   2
   5   4  -1 27.7091 8.27622   1
  -5  -4   1 42.8741 7.92867   1
   5   4   0 11.8153 7.69710   1
  -5  -4   0 27.8883 7.09034   2
  -5  -4   0 8.03263 7.63338   1
  -5  -4  -1 39.8812 8.34407   2
  -5  -4  -1 27.6951 7.77519   1
   5   4   1 44.5645 8.69517   1
  -5  -4  -2 14.0350 6.94140   1
  -5  -4  -2 19.3327 8.29299   2
   5   4   2 5.80216 7.49984   1
  -5  -4  -3 16.4592 7.63061   1
  -5  -4  -3 17.1603 8.57989   2
   5   4   3 12.7386 8.34223   1
  -5  -4  -4 101.870 13.9212   2
  -5  -4  -4 119.686 12.4302   1
  -5  -4  -5-19.5052 10.6874   2
   5   4   5 7.69691 9.68352   1
  -5  -4  -5 0.28777 9.74518   1
  -5  -5  12 38.8954 9.69192   1
  -5  -5  12 45.9461 9.76852   1
  -5  -5  11 8.57121 10.5474   1
  -5  -5  11 2.06289 8.70027   1
  -5  -5  10 45.3471 10.8772   1
  -5  -5  10 53.8803 10.7939   1
  -5  -5   9-4.86728 7.59321   1
  -5  -5   9-1.40278 10.1540   1
  -5  -5   8-1.54706 6.72105   1
  -5  -5   8 1.77627 3.49832   2
  -5  -5   8-2.24670 7.34719   1
  -5  -5   7 11.9038 8.50116   1
  -5  -5   7 15.7839 4.46038   2
  -5  -5   7 25.6008 9.49352   1
  -5  -5   6 9.29759 7.84654   1
   5   5  -6 22.1451 8.56978   1
  -5  -5   6 12.8871 4.69725   2
  -5  -5   5 0.43577 8.17113   1
  -5  -5   5 2.11888 4.81150   2
   5   5  -5-3.57605 7.11958   1
  -5  -5   4-2.68771 5.44276   2
   5   5  -4 8.70475 7.28541   1
  -5  -5   4 5.02027 7.57388   1
  -5  -5   3 27.8556 6.58803   2
   5   5  -3 24.4526 8.50322   1
  -5  -5   3 21.5815 7.83613   1
   5   5  -2 28.4873 9.00711   1
  -5  -5   2 18.1893 6.57305   2
  -5  -5   2 19.5739 7.96844   1
  -5  -5   1 85.3645 9.90937   2
  -5  -5   1 96.7461 11.5197   1
   5   5  -1 90.0692 11.4818   1
  -5  -5   0 17.8786 8.36111   2
  -5  -5   0 16.0547 8.42453   1
   5   5   0 9.54204 7.76236   1
  -5  -5  -1 148.833 13.3723   2
  -5  -5  -1 164.674 13.8339   1
  -5  -5  -2 11.7232 9.92552   1
  -5  -5  -2 36.7269 9.66726   2
   5   5   2 30.5698 9.89948   1
  -5  -5  -3-6.52648 9.33423   1
  -5  -5  -3-14.3776 11.0510   2
   5   5   3-5.31642 9.61374   1
  -5  -5  -4 1.97681 8.82865   1
   5   5   4-4.41234 8.61773   1
  -5  -5  -4 19.4532 10.2782   2
  -5  -6  11 26.6281 9.20982   1
  -5  -6  11-14.0049 9.02664   1
  -5  -6  10-1.11986 10.7162   1
  -5  -6  10-1.96473 11.7246   1
  -5  -6   9 1.09062 8.76515   1
  -5  -6   9 6.33660 4.63475   2
  -5  -6   9 4.70274 9.56718   1
  -5  -6   8 0.49227 8.04964   1
  -5  -6   8 2.50525 5.05330   2
  -5  -6   8 2.72582 10.4394   1
  -5  -6   7-5.66018 5.49282   2
  -5  -6   7 5.71732 9.51064   1
   5   6  -6-7.97379 7.41599   1
  -5  -6   6-0.53049 5.85200   2
  -5  -6   6-7.84691 7.95105   1
  -5  -6   5-7.37276 5.94920   2
  -5  -6   5-14.2917 8.82622   1
   5   6  -5 3.33355 7.78535   1
   5   6  -4 9.53739 8.08219   1
  -5  -6   4 21.9714 7.57412   2
  -5  -6   4 20.9462 10.4563   1
   5   6  -3 6.84181 9.48925   1
  -5  -6   3-1.97497 6.72026   2
  -5  -6   3-11.4551 8.53980   1
  -5  -6   2 116.346 11.7551   2
  -5  -6   2 106.331 13.3939   1
   5   6  -2 130.659 13.4359   1
  -5  -6   1 7.15161 8.05725   2
  -5  -6   1-0.64032 8.18262   1
   5   6  -1-14.0946 9.52704   1
  -5  -6   0 89.4756 12.0511   2
  -5  -6   0 77.0846 12.4940   1
  -5  -6  -1 6.60085 9.55201   1
  -5  -6  -1-0.77736 9.23260   2
   5   6   1 7.97276 9.26887   1
  -5  -6  -2-3.95784 9.36542   1
   5   6   2-19.2770 11.4246   1
  -5  -6  -2 15.9572 10.3271   2
  -5  -7   9 4.16887 6.19215   2
  -5  -7   9-3.05908 11.3521   1
  -5  -7   9-5.80000 9.62519   1
   5   7  -8 64.8925 14.4351   1
  -5  -7   8 54.3217 8.30084   2
  -5  -7   8 70.2279 12.5439   1
  -5  -7   7-1.08903 6.80310   2
   5   7  -7-23.7832 11.7191   1
  -5  -7   7 1.83029 10.3018   1
  -5  -7   6 30.0815 7.89876   2
  -5  -7   6 42.2655 11.5505   1
   5   7  -6 49.4893 11.5857   1
  -5  -7   5 57.5758 9.44917   2
   5   7  -5 35.5878 11.3268   1
  -5  -7   5 52.8307 12.2418   1
   5   7  -4 25.3279 10.9830   1
  -5  -7   4 10.1246 8.00233   2
  -5  -7   4 31.5847 10.5067   1
  -5  -7   3 22.0010 9.33093   2
  -5  -7   3 18.2716 10.5671   1
   5   7  -3 38.7671 10.6795   1
  -5  -7   2 41.5460 12.4660   1
  -5  -7   2 16.6738 9.99998   2
  -5  -7   1 25.1727 10.8663   1
  -5  -7   1 15.1106 11.1378   2
   5   7  -1 0.08924 9.25413   1
  -5  -7   0 4.24799 6.12631   2
  -6   6   1-3.18541 7.34889   1
  -6   6   1 1.54849 7.47712   1
  -6   6   0 8.85873 7.36414   2
  -6   6   0-4.20365 7.92554   1
  -6   6   0 1.55529 8.19172   1
  -6   6  -1-12.0458 7.81867   1
  -6   6  -1-0.38307 7.53637   2
  -6   6  -1 5.77057 7.58798   1
  -6   6  -2 8.29066 6.69848   1
  -6   6  -2 10.3281 8.17938   2
  -6   6  -2 1.24857 6.80186   1
  -6   6  -3 4.67838 5.30526   2
  -6   6  -3 10.9948 4.24102   1
  -6   5   4 6.17766 10.0701   1
  -6   5   4-8.82936 10.2959   1
  -6   5   3 10.4858 9.81793   1
  -6   5   3 0.57249 3.72639   2
  -6   5   3 10.6643 10.2168   1
  -6   5   2-0.76461 5.29676   2
  -6   5   2-0.06900 8.17167   1
  -6   5   2 4.03351 8.03461   1
  -6   5   1 24.1335 6.26786   2
  -6   5   1 13.6456 7.61875   1
  -6   5   1 24.8523 8.65083   1
  -6   5   0-4.39229 7.51724   1
  -6   5   0 3.78724 6.36895   2
  -6   5   0 14.7746 7.42162   1
  -6   5  -1 1.51539 6.82174   1
  -6   5  -1 7.01973 7.04771   1
  -6   5  -1-3.83839 7.20376   2
  -6   5  -2 10.9216 6.79928   1
  -6   5  -2 6.17959 7.43207   2
  -6   5  -2 9.97724 6.64335   1
  -6   5  -3 0.80159 6.15158   1
  -6   5  -3 5.08252 8.24329   2
  -6   5  -3 2.22471 6.14770   1
  -6   5  -4 29.1494 6.56906   1
  -6   5  -4 23.3628 9.66098   2
  -6   5  -4 28.1589 6.31065   1
  -6   5  -5 6.93189 6.59474   2
  -6   5  -5 17.0561 3.23410   1
  -6   4   6-4.61341 9.25368   1
  -6   4   6 11.3565 9.00840   1
  -6   4   5 44.6461 12.0744   1
  -6   4   5 45.0144 10.4094   1
  -6   4   4 3.79671 8.89602   1
  -6   4   4 22.0516 10.1502   1
  -6   4   3 0.37236 2.64602   2
  -6   4   3 6.07178 8.50142   1
  -6   4   2 22.4520 5.26793   2
  -6   4   2 25.7739 8.31759   1
  -6   4   2 44.4649 9.73012   1
  -6   4   1-6.10546 7.28158   1
  -6   4   1-5.20086 7.27903   1
  -6   4   1-2.48590 5.05009   2
  -6   4   0 16.4004 7.36732   1
  -6   4   0 12.9969 7.30887   1
  -6   4   0 22.7058 6.30190   2
  -6   4  -1-4.16716 6.69088   1
  -6   4  -1-5.67027 6.11663   2
  -6   4  -1-2.52669 6.43201   1
  -6   4  -2-2.78339 6.57397   1
  -6   4  -2-8.52820 7.26543   2
  -6   4  -2-11.2717 6.57742   1
  -6   4  -3-6.45695 6.24024   1
  -6   4  -3 13.8122 5.68173   1
  -6   4  -3 7.31870 7.78249   2
  -6   4  -4 1.65008 5.66916   1
  -6   4  -4 0.59165 8.14326   2
  -6   4  -4 6.64572 5.31109   1
  -6   4  -5 59.1116 6.31377   1
  -6   4  -5 52.6516 6.37868   1
  -6   3   7-14.1714 11.2327   1
  -6   3   7-18.3911 10.6130   1
  -6   3   6 4.87377 9.79058   1
  -6   3   6 1.47114 8.88268   1
  -6   3   5 28.0042 9.85552   1
  -6   3   5 12.2210 9.55648   1
  -6   3   4 33.7572 9.60467   1
  -6   3   4 41.5169 10.1642   1
  -6   3   3-1.19876 2.10086   2
  -6   3   3-1.93024 2.06266   2
  -6   3   3-6.32766 7.01736   1
  -6   3   2-9.32659 7.08484   1
  -6   3   2 5.80833 7.22087   1
  -6   3   2 1.64896 3.82631   2
  -6   3   1 20.7183 7.88587   1
  -6   3   1 29.5764 5.70782   2
  -6   3   1 31.2390 8.39787   1
  -6   3   0 30.9948 7.84844   1
  -6   3   0 11.6734 5.40871   2
  -6   3   0 23.0892 7.41921   1
  -6   3  -1 16.9907 6.97228   1
  -6   3  -1 9.99495 5.90184   2
  -6   3  -1 11.6469 6.86377   1
  -6   3  -2 2.90290 5.92312   1
  -6   3  -2-9.69659 6.17647   1
  -6   3  -2 6.60963 6.67434   2
  -6   3  -3-0.17422 5.77865   1
  -6   3  -3 12.4959 5.89279   1
  -6   3  -3-6.65743 7.10429   2
  -6   3  -4 34.7253 6.58643   1
  -6   3  -4 36.0330 8.86645   2
  -6   3  -4 32.3447 6.29886   1
  -6   3  -5 0.47277 5.16470   1
  -6   3  -5 2.59143 5.21567   1
  -6   3  -5-2.35010 8.98333   2
  -6   3  -6 22.8909 4.49414   1
  -6   3  -6 24.7726 4.62725   1
  -6   3  -6 21.5301 10.1184   2
  -6   2   8 35.4676 11.6081   1
  -6   2   8 38.5913 12.4479   1
  -6   2   7 27.5875 10.7463   1
  -6   2   7 20.5627 11.4589   1
  -6   2   6 38.1748 10.5826   1
  -6   2   6 18.2688 8.70744   1
  -6   2   5-0.68219 8.78280   1
  -6   2   5 20.1445 9.10803   1
  -6   2   4 15.3255 8.02627   1
  -6   2   4 20.8727 8.27604   1
  -6   2   3 16.4160 8.29145   1
  -6   2   3 1.61868 7.02749   1
  -6   2   3 10.8006 2.13431   2
  -6   2   2 12.0252 7.78001   1
  -6   2   2 4.08577 3.67081   2
  -6   2   1 2.16657 6.71579   1
  -6   2   1 2.90800 4.63897   2
  -6   2   0 29.7630 6.25477   2
  -6   2   0 24.1429 7.08980   1
  -6   2   0 36.3598 8.09475   1
  -6   2  -1 11.8489 6.93267   1
  -6   2  -1-6.29428 6.04889   1
  -6   2  -1 9.14426 5.96990   2
  -6   2  -2 76.7567 9.26225   2
  -6   2  -2 63.8967 8.73865   1
  -6   2  -2 65.0273 8.39055   1
  -6   2  -3-6.13904 5.64570   1
  -6   2  -3-1.55090 6.78242   2
  -6   2  -3 6.50792 5.70196   1
  -6   2  -4 5.23507 5.91994   1
  -6   2  -4 0.25368 7.99948   2
  -6   2  -4 8.50224 5.68427   1
  -6   2  -5 48.6367 7.17812   1
  -6   2  -5 64.5889 7.49701   1
  -6   2  -6 21.2100 5.84568   1
  -6   2  -6 10.3935 5.62720   1
  -6   2  -6 17.2501 10.3905   2
  -6   1   8 2.88681 9.32821   1
  -6   1   8 13.8381 11.7802   1
  -6   1   7 13.1832 9.60566   1
  -6   1   7-18.6680 10.2288   1
  -6   1   6 6.86391 9.90246   1
  -6   1   6 19.1486 9.71147   1
  -6   1   5 4.14087 8.80458   1
  -6   1   5-3.11940 8.41109   1
  -6   1   4 23.2851 8.81669   1
  -6   1   4 30.9385 8.86593   1
  -6   1   3 76.8209 4.26960   2
  -6   1   3 74.7749 4.11744   2
  -6   1   3 67.9584 9.92778   1
  -6   1   3 90.2829 10.8788   1
  -6   1   2 162.437 7.87243   2
  -6   1   2 172.810 8.00402   2
  -6   1   2 145.614 12.1375   1
  -6   1   2 171.754 13.1392   1
  -6   1   1 138.895 8.57721   2
  -6   1   1 138.003 11.4123   1
  -6   1   1 152.908 8.76530   2
  -6   1   1 160.859 12.5743   1
  -6   1   0 9.74871 7.12596   1
  -6   1   0 0.23138 7.04311   1
  -6   1   0 6.59905 5.03999   2
  -6   1  -1-0.56410 6.31824   1
  -6   1  -1-4.42595 5.32066   2
  -6   1  -2 23.2599 7.25266   1
  -6   1  -2 21.5672 7.44701   1
  -6   1  -2 32.5620 7.87317   2
  -6   1  -3 19.3766 7.08326   1
  -6   1  -3 1.05790 7.19378   2
  -6   1  -3 4.84160 6.45808   1
  -6   1  -4 13.7110 6.70922   1
  -6   1  -4 26.6841 6.99614   1
  -6   1  -4 7.80428 7.89306   2
  -6   1  -5 5.31728 6.45750   1
  -6   1  -5-4.60560 5.90754   1
  -6   1  -5-0.85577 8.94430   2
  -6   1  -6 12.3087 5.13387   1
  -6   1  -6 21.4365 5.20402   1
  -6   0   9 9.07821 9.83998   1
  -6   0   9 10.1956 11.1784   1
  -6   0   8 10.0013 11.1088   1
  -6   0   8 10.8024 8.90876   1
  -6   0   7 10.0893 8.04021   1
  -6   0   7 24.2363 10.1810   1
  -6   0   6 1.63141 8.81826   1
  -6   0   6 5.45741 9.57473   1
  -6   0   5 35.8544 9.12737   1
  -6   0   5 29.0504 8.80721   1
  -6   0   4 97.7029 12.0546   1
  -6   0   4 79.8667 11.3883   1
  -6   0   3-5.50493 8.36400   1
  -6   0   3 0.39860 3.08779   2
  -6   0   3 3.39192 3.03521   2
  -6   0   3 10.2229 7.63163   1
  -6   0   2 51.0524 5.66152   2
  -6   0   2 53.3222 9.39053   1
  -6   0   2 53.6864 5.60581   2
  -6   0   2 66.9376 9.91255   1
  -6   0   1 96.5862 7.86055   2
  -6   0   1 87.3607 10.3103   1
  -6   0   1 97.1111 7.69135   2
  -6   0   1 98.4052 10.8425   1
  -6   0   0 18.0239 7.35056   1
  -6   0   0 22.5716 7.94595   1
  -6   0   0 7.52952 5.78091   2
  -6   0   0 20.7804 6.02166   2
  -6   0  -1 18.9122 7.53312   1
  -6   0  -1 13.5279 6.80773   2
  -6   0  -1 25.2918 7.07432   2
  -6   0  -1 22.7780 7.88575   1
  -6   0  -2 6.75914 7.20872   2
  -6   0  -2-12.0943 6.65844   2
  -6   0  -2 12.0396 6.92459   1
  -6   0  -2 4.05952 6.82387   1
  -6   0  -3 14.6545 7.29384   1
  -6   0  -3 19.2628 8.14387   2
  -6   0  -3 12.4101 7.34471   1
  -6   0  -4 41.8094 8.07606   1
  -6   0  -4 38.2459 9.40002   2
  -6   0  -4 36.2869 8.07264   1
  -6   0  -5 8.51268 7.54293   1
  -6   0  -5 14.9329 10.2493   2
  -6   0  -5 7.65060 7.88395   1
  -6  -1   9 14.3414 12.2014   1
  -6  -1   9-5.36583 9.97002   1
  -6  -1   8-0.08525 9.21411   1
  -6  -1   8-0.77201 8.18537   1
  -6  -1   7 5.09981 9.51059   1
  -6  -1   7 0.48872 9.68703   1
  -6  -1   6 11.1582 9.13848   1
  -6  -1   6 12.6964 8.76723   1
  -6  -1   5 30.7828 9.69704   1
  -6  -1   5 34.1221 9.96427   1
  -6  -1   4 9.16595 7.81042   1
  -6  -1   4 17.9620 2.45647   2
  -6  -1   4 11.1737 7.70453   1
  -6  -1   3 22.0386 8.42935   1
  -6  -1   3 22.3106 4.52418   2
  -6  -1   3 27.4287 8.72408   1
  -6  -1   3 21.7314 4.22167   2
  -6  -1   2 10.9190 4.84883   2
  -6  -1   2 8.50694 7.55363   1
  -6  -1   2 4.72390 4.75439   2
  -6  -1   2 8.84894 7.77870   1
  -6  -1   1-2.72524 7.08918   1
  -6  -1   1 0.12377 5.53737   2
  -6  -1   1 9.97109 5.35308   2
  -6  -1   1 2.56127 7.40381   1
  -6  -1   0 65.5873 8.24814   2
  -6  -1   0 55.1707 7.81687   2
  -6  -1   0 50.2807 9.79173   1
  -6  -1   0 62.1886 9.34772   1
  -6  -1  -1 15.7383 7.05695   2
  -6  -1  -1 19.0991 7.32953   2
  -6  -1  -1 25.1244 8.00412   1
  -6  -1  -1 18.7207 8.26571   1
  -6  -1  -2 1.85508 7.31955   2
  -6  -1  -2 2.80765 7.52352   1
  -6  -1  -2-10.9496 7.24459   2
  -6  -1  -2-15.5733 7.74322   1
  -6  -1  -3 29.7245 8.75229   2
  -6  -1  -3 35.8631 9.28391   1
  -6  -1  -3 34.1905 9.11182   2
  -6  -1  -3 51.8731 9.22083   1
  -6  -1  -4 24.9368 10.1881   2
  -6  -1  -4 24.7398 8.77506   1
  -6  -1  -4 11.7727 8.84222   2
  -6  -1  -4 37.2006 9.16980   1
  -6  -1  -5 6.17733 4.32099   1
  -6  -1  -5 16.9210 7.01537   2
  -6  -1  -5 3.89560 4.80130   2
  -6  -1  -5 3.85217 4.39906   1
  -6  -2   9 13.1214 10.8433   1
  -6  -2   9 49.3526 13.5305   1
  -6  -2   8 7.41779 8.67905   1
  -6  -2   8-12.1293 9.10050   1
  -6  -2   7 7.54644 8.89119   1
  -6  -2   7 12.1401 8.30990   1
  -6  -2   6 0.97203 9.76638   1
  -6  -2   6 1.91034 9.35046   1
  -6  -2   5-1.96247 8.52258   1
  -6  -2   5 25.2287 9.46404   1
  -6  -2   4 79.5377 11.5741   1
  -6  -2   4 82.3847 5.78231   2
  -6  -2   4 86.6280 5.69200   2
  -6  -2   4 68.1624 11.6799   1
  -6  -2   3 10.4340 7.86844   1
  -6  -2   3-4.04415 4.51036   2
  -6  -2   3-2.38341 4.28391   2
  -6  -2   3-1.86755 7.50315   1
  -6  -2   2-1.05251 7.47630   1
  -6  -2   2-4.90886 5.32620   2
  -6  -2   2-4.43969 5.11493   2
  -6  -2   2-2.40865 8.32124   1
  -6  -2   1 9.70307 6.04913   2
  -6  -2   1 10.8885 8.70561   1
  -6  -2   1-4.33534 7.02007   1
  -6  -2   0-3.46982 6.53589   2
  -6  -2   0 21.0649 8.80639   1
  -6  -2   0-1.55004 8.33970   1
  -6  -2  -1 34.5589 8.90931   2
  -6  -2  -1 24.4322 8.59220   1
  -6  -2  -2 48.1435 9.87937   2
   6   2   2 45.6657 9.49270   1
  -6  -2  -2 46.0376 10.1891   1
  -6  -2  -3 0.14247 9.17282   2
  -6  -2  -3 14.5805 8.44340   1
   6   2   3 3.75262 8.55544   1
  -6  -2  -4 8.61577 6.16717   1
   6   2   4 15.7712 6.14304   1
  -6  -2  -4 22.5120 8.19938   2
  -6  -3   9 2.59103 10.6989   1
  -6  -3   9 20.8871 12.3013   1
  -6  -3   8-12.3269 11.1239   1
  -6  -3   8-13.4537 12.2474   1
  -6  -3   7 21.7413 11.0464   1
  -6  -3   7 0.50951 11.1819   1
  -6  -3   6 6.71476 9.31990   1
  -6  -3   6-8.93151 10.3697   1
  -6  -3   5-3.57687 9.79367   1
  -6  -3   5 4.78631 3.59952   2
  -6  -3   5 1.86652 3.19109   2
  -6  -3   5-4.94150 7.96451   1
  -6  -3   4-15.9448 9.50730   1
  -6  -3   4-0.19032 4.74422   2
  -6  -3   4-5.79474 9.65462   1
  -6  -3   3 38.6966 6.98492   2
  -6  -3   3 57.4394 11.2981   1
  -6  -3   3 38.6825 9.71633   1
  -6  -3   2 46.9309 7.55844   2
  -6  -3   2 34.3376 10.2868   1
  -6  -3   2 39.1821 10.4384   1
  -6  -3   1 6.26193 6.67614   2
   6   3  -1-0.59396 8.75679   1
  -6  -3   1-0.36965 8.62492   1
  -6  -3   0 60.5785 9.78461   2
   6   3   0 65.2463 10.6527   1
  -6  -3   0 49.5636 10.6234   1
  -6  -3  -1 6.31520 8.19261   2
  -6  -3  -1 12.1625 8.60252   1
   6   3   1 10.2094 8.62215   1
  -6  -3  -2 116.394 12.9390   2
   6   3   2 87.1279 12.2891   1
  -6  -3  -2 90.3822 12.3082   1
  -6  -4   8-4.69347 10.1445   1
  -6  -4   8 14.0952 10.4779   1
  -6  -4   7 32.4848 10.9963   1
  -6  -4   7 23.7492 11.3918   1
  -6  -4   6-3.24084 10.2029   1
  -6  -4   6 5.18944 3.69429   2
  -6  -4   5 20.1180 8.83673   1
  -6  -4   5 8.08810 5.11443   2
  -6  -4   5-2.69054 10.4048   1
  -6  -4   4 8.14123 5.90589   2
  -6  -4   4 3.66886 10.0114   1
  -6  -4   4 4.43041 8.35542   1
  -6  -4   3-2.79758 6.83451   2
   6   4  -3-2.60795 9.21978   1
  -6  -4   3 2.42477 9.59401   1
  -6  -4   2 5.92375 7.55285   2
   6   4  -2 4.11431 9.73493   1
  -6  -4   2 2.57918 9.96391   1
  -6  -4   1 8.91982 7.86107   2
  -6  -4   1 8.44649 10.2725   1
   6   4  -1 4.95660 10.1652   1
  -6  -4   0 99.4173 12.3256   2
  -6  -4   0 128.683 15.0665   1
  -6  -4  -1 31.5395 8.43822   2
  -6  -4  -1 14.9672 7.93038   1
   6   4   1 30.0292 8.39909   1
  -6  -5   7 13.6671 2.88423   2
  -6  -5   6 32.3863 6.53433   2
  -6  -5   6 35.2325 12.3647   1
  -6  -5   6 24.5255 11.7289   1
  -6  -5   5 13.3977 6.87222   2
  -6  -5   5 25.6505 11.9408   1
  -6  -5   4 7.78559 7.58475   2
   6   5  -4-9.89248 10.4951   1
  -6  -5   4-20.4879 11.2913   1
   6   5  -3 3.23108 11.1399   1
  -6  -5   3 16.6606 7.97451   2
  -6  -5   3 9.28086 11.6001   1
  -6  -5   2 23.3373 8.30971   2
  -6  -5   2 4.81829 8.23927   1
   0   0   0    0.00    0.00   0
TITL 200 in P-1
REM P-1 (#2 in standard setting)
CELL 0.71073   4.910083   8.588259  11.997803 108.5345  96.9690  92.4267
ZERR    2.00   0.000536   0.000722   0.000939   0.0077   0.0081   0.0078
LATT  1
SFAC C H N O
UNIT 14.00 26.00 2.00 16.00
TREF
HKLF 4
END
;
_shelx_hkl_checksum              85139
_shelx_res_file
;
TITL 200_III in P-1
    200.res
    created by SHELXL-2018/3 at 12:23:20 on 16-Jan-2019
REM P-1 (#2 in standard setting)
CELL 0.71073 4.910083 8.588259 11.997803 108.5345 96.969 92.4267
ZERR 2 0.000536 0.000722 0.000939 0.0077 0.0081 0.0078
LATT 1
SFAC C H N O
UNIT 14 26 2 16
EQIV $1 -X,1-Y,-Z
EQIV $2 1+X,+Y,+Z
EQIV $3 2-X,2-Y,1-Z
EQIV $4 +X,-1+Y,+Z
EQIV $5 1-X,1-Y,-Z
EQIV $6 -1+X,-1+Y,+Z
EQIV $7 1-X,2-Y,-Z
EQIV $8 1-X,2-Y,1-Z
L.S. 20
PLAN  10
SIZE 0.034 0.071 0.4341
TEMP -73.15
HTAB O4 O3_$2
HTAB O1 O7_$3
HTAB N1 O5_$1
HTAB N1 O2_$4
HTAB N1 O4_$5
HTAB N1 O5_$5
HTAB N1 O2_$6
HTAB O3 O4_$7
HTAB O6 O6_$1
HTAB O8 O8_$8
BOND $H
BOND
CONF
fmap 2
acta
SHEL 40 0.8
REM <olex2.extras>
REM <HklSrc "%.\\200.hkl">
REM </olex2.extras>
WGHT    0.035700    0.124100
FVAR       0.80629
O3    4    0.259125    0.989033    0.133722    11.00000    0.01147    0.01796 =
         0.01830    0.00887    0.00041    0.00071
O6    4    0.189412    0.596275    0.066211    11.00000    0.01787    0.01883 =
         0.01752    0.00384   -0.00125   -0.00939
AFIX 147
H6    2    0.066948    0.530862    0.016336    10.50000   -1.20000
AFIX   0
O4    4    0.738893    0.846609    0.026421    11.00000    0.01097    0.02143 =
         0.01716    0.00759   -0.00013   -0.00438
AFIX 147
H4    2    0.899044    0.878192    0.062765    11.00000   -1.20000
AFIX   0
O1    4    0.879918    0.974678    0.319218    11.00000    0.01596    0.01702 =
         0.01964    0.00309   -0.00712   -0.00221
AFIX 147
H1    2    0.996370    1.048900    0.365045    11.00000   -1.20000
AFIX   0
O5    4    0.324940    0.631522   -0.096096    11.00000    0.01825    0.02749 =
         0.01475    0.00318   -0.00129   -0.00481
O8    4    0.432272    0.855058    0.441807    11.00000    0.02600    0.01493 =
         0.02124    0.00330   -0.00220    0.00151
AFIX 147
H8    2    0.502506    0.950679    0.480998    10.50000   -1.20000
AFIX   0
O2    4    0.694361    1.185736    0.275279    11.00000    0.02304    0.01419 =
         0.03945    0.00731   -0.00683   -0.00268
C3    1    0.584056    0.777803    0.094931    11.00000    0.01276    0.01361 =
         0.01371    0.00573    0.00004   -0.00114
AFIX  13
H3A   2    0.706054    0.715983    0.135635    11.00000   -1.20000
AFIX   0
C2    1    0.463706    0.913560    0.187967    11.00000    0.01190    0.01382 =
         0.01505    0.00621   -0.00050   -0.00019
AFIX  13
H2    2    0.374730    0.861715    0.239730    11.00000   -1.20000
AFIX   0
N1    3    0.204304    0.362552    0.232721    11.00000    0.01421    0.01618 =
         0.01955    0.00153   -0.00157   -0.00120
AFIX 137
H1A   2    0.320544    0.361078    0.178879    11.00000   -1.50000
H1B   2    0.027604    0.340330    0.195245    11.00000   -1.50000
H1C   2    0.246061    0.284958    0.267519    11.00000   -1.50000
AFIX   0
O7    4    0.769043    0.777525    0.550682    11.00000    0.03077    0.02075 =
         0.02959    0.00487   -0.01486   -0.00690
C5    1    0.585611    0.749772    0.464942    11.00000    0.01475    0.01770 =
         0.01620    0.00532    0.00157   -0.00258
C1    1    0.690644    1.041698    0.266161    11.00000    0.01252    0.01514 =
         0.01282    0.00238    0.00350    0.00111
C4    1    0.350137    0.659723    0.011827    11.00000    0.01108    0.01062 =
         0.01643    0.00371   -0.00015    0.00220
C7    1    0.234879    0.528137    0.325119    11.00000    0.01429    0.01404 =
         0.01619   -0.00100    0.00108    0.00126
AFIX  23
H7A   2    0.129912    0.525400    0.390000    11.00000   -1.20000
H7B   2    0.159146    0.609902    0.290071    11.00000   -1.20000
AFIX   0
C6    1    0.535533    0.578660    0.374592    11.00000    0.01461    0.01613 =
         0.01889    0.00264    0.00063    0.00052
AFIX  23
H6A   2    0.606973    0.498465    0.412166    11.00000   -1.20000
H6B   2    0.640209    0.574034    0.308254    11.00000   -1.20000
AFIX   0
H3    2    0.329595    1.034683    0.090367    11.00000    0.03489
HKLF 4
REM  200_III in P-1
REM wR2 = 0.0867, GooF = S = 1.019, Restrained GooF = 1.019 for all data
REM R1 = 0.0395 for 1422 Fo > 4sig(Fo) and 0.0665 for all 1936 data
REM 154 parameters refined using 0 restraints
END
WGHT      0.0357      0.1241
REM Highest difference peak  0.271,  deepest hole -0.221,  1-sigma level  0.050
Q1    1   0.5345  0.6563  0.4252  11.00000  0.05    0.27
Q2    1   0.4573  0.7462  0.0528  11.00000  0.05    0.25
Q3    1   0.5840  0.9759  0.2238  11.00000  0.05    0.25
Q4    1   0.5335  0.8466  0.1443  11.00000  0.05    0.24
Q5    1   0.8344  1.2789  0.3186  11.00000  0.05    0.19
Q6    1   0.3868  0.5490  0.3635  11.00000  0.05    0.19
Q7    1   0.9361  0.7112  0.5358  11.00000  0.05    0.17
Q8    1   0.8063  0.7226  0.2588  11.00000  0.05    0.17
Q9    1   0.4143  0.8938  0.2253  11.00000  0.05    0.17
Q10   1   0.2447  0.8185  0.5070  11.00000  0.05    0.16
;
_shelx_res_checksum              84075
loop_
_space_group_symop_operation_xyz
'x, y, z'
'-x, -y, -z'
loop_
_atom_site_type_symbol
_atom_site_label
_atom_site_fract_x
_atom_site_fract_y
_atom_site_fract_z
_atom_site_U_iso_or_equiv
_atom_site_adp_type
_atom_site_calc_flag
_atom_site_occupancy
O O3 0.2591(3) 0.98903(16) 0.13372(12) 0.0154(3) Uani d 1
O O6 0.1894(3) 0.59628(16) 0.06621(11) 0.0192(3) Uani d 1
H H6 0.066948 0.530862 0.016336 0.023 Uiso calc 0.5
O O4 0.7389(3) 0.84661(16) 0.02642(11) 0.0166(3) Uani d 1
H H4 0.899044 0.878192 0.062765 0.020 Uiso calc 1
O O1 0.8799(3) 0.97468(16) 0.31922(12) 0.0192(3) Uani d 1
H H1 0.996370 1.048900 0.365045 0.023 Uiso calc 1
O O5 0.3249(3) 0.63152(17) -0.09610(12) 0.0216(3) Uani d 1
O O8 0.4323(3) 0.85506(16) 0.44181(12) 0.0218(3) Uani d 1
H H8 0.502506 0.950679 0.480998 0.026 Uiso calc 0.5
O O2 0.6944(3) 1.18574(16) 0.27528(13) 0.0270(4) Uani d 1
C C3 0.5841(4) 0.7778(2) 0.09493(16) 0.0133(4) Uani d 1
H H3A 0.706054 0.715983 0.135635 0.016 Uiso calc 1
C C2 0.4637(4) 0.9136(2) 0.18797(16) 0.0135(4) Uani d 1
H H2 0.374730 0.861715 0.239730 0.016 Uiso calc 1
N N1 0.2043(3) 0.36255(18) 0.23272(14) 0.0181(4) Uani d 1
H H1A 0.320544 0.361078 0.178879 0.027 Uiso calc 1
H H1B 0.027604 0.340330 0.195245 0.027 Uiso calc 1
H H1C 0.246061 0.284958 0.267519 0.027 Uiso calc 1
O O7 0.7690(3) 0.77753(17) 0.55068(13) 0.0298(4) Uani d 1
C C5 0.5856(4) 0.7498(2) 0.46494(17) 0.0164(4) Uani d 1
C C1 0.6906(4) 1.0417(2) 0.26616(16) 0.0139(4) Uani d 1
C C4 0.3501(4) 0.6597(2) 0.01183(17) 0.0130(4) Uani d 1
C C7 0.2349(4) 0.5281(2) 0.32512(17) 0.0164(4) Uani d 1
H H7A 0.129912 0.525400 0.390000 0.020 Uiso calc 1
H H7B 0.159146 0.609902 0.290071 0.020 Uiso calc 1
C C6 0.5355(4) 0.5787(2) 0.37459(17) 0.0175(4) Uani d 1
H H6A 0.606973 0.498465 0.412166 0.021 Uiso calc 1
H H6B 0.640209 0.574034 0.308254 0.021 Uiso calc 1
H H3 0.330(5) 1.035(3) 0.090(2) 0.035(7) Uiso d 1
loop_
_atom_site_aniso_label
_atom_site_aniso_U_11
_atom_site_aniso_U_22
_atom_site_aniso_U_33
_atom_site_aniso_U_12
_atom_site_aniso_U_13
_atom_site_aniso_U_23
O3 0.0115(6) 0.0180(7) 0.0183(7) 0.0007(5) 0.0004(6) 0.0089(6)
O6 0.0179(7) 0.0188(7) 0.0175(7) -0.0094(6) -0.0013(6) 0.0038(6)
O4 0.0110(6) 0.0214(7) 0.0172(7) -0.0044(6) -0.0001(6) 0.0076(6)
O1 0.0160(7) 0.0170(7) 0.0196(7) -0.0022(5) -0.0071(6) 0.0031(6)
O5 0.0182(7) 0.0275(8) 0.0147(7) -0.0048(6) -0.0013(6) 0.0032(6)
O8 0.0260(8) 0.0149(7) 0.0212(8) 0.0015(6) -0.0022(6) 0.0033(6)
O2 0.0230(8) 0.0142(8) 0.0394(9) -0.0027(6) -0.0068(7) 0.0073(7)
C3 0.0128(9) 0.0136(9) 0.0137(9) -0.0011(7) 0.0000(8) 0.0057(8)
C2 0.0119(9) 0.0138(10) 0.0151(9) -0.0002(7) -0.0005(8) 0.0062(8)
N1 0.0142(8) 0.0162(9) 0.0195(9) -0.0012(6) -0.0016(7) 0.0015(7)
O7 0.0308(9) 0.0208(8) 0.0296(8) -0.0069(6) -0.0149(7) 0.0049(7)
C5 0.0147(9) 0.0177(10) 0.0162(10) -0.0026(8) 0.0016(8) 0.0053(8)
C1 0.0125(9) 0.0151(10) 0.0128(9) 0.0011(7) 0.0035(8) 0.0024(8)
C4 0.0111(9) 0.0106(9) 0.0164(10) 0.0022(7) -0.0002(8) 0.0037(8)
C7 0.0143(9) 0.0140(10) 0.0162(10) 0.0013(7) 0.0011(8) -0.0010(8)
C6 0.0146(10) 0.0161(10) 0.0189(10) 0.0005(8) 0.0006(8) 0.0026(8)
loop_
_atom_type_symbol
_atom_type_description
_atom_type_scat_dispersion_real
_atom_type_scat_dispersion_imag
_atom_type_scat_source
C C 0.0033 0.0016 'International Tables Vol C Tables 4.2.6.8 and 6.1.1.4'
H H 0.0000 0.0000 'International Tables Vol C Tables 4.2.6.8 and 6.1.1.4'
N N 0.0061 0.0033 'International Tables Vol C Tables 4.2.6.8 and 6.1.1.4'
O O 0.0106 0.0060 'International Tables Vol C Tables 4.2.6.8 and 6.1.1.4'
loop_
_exptl_crystal_face_index_h
_exptl_crystal_face_index_k
_exptl_crystal_face_index_l
_exptl_crystal_face_perp_dist
0 5 1 0.0120
0 -5 -1 0.0220
3 -1 1 0.2160
-7 3 -2 0.1830
0 1 -3 0.0290
0 -1 3 0.0420
loop_
_geom_angle_atom_site_label_1
_geom_angle_atom_site_label_2
_geom_angle_atom_site_label_3
_geom_angle
C2 O3 H3 109.8(16)
C4 O6 H6 109.5
C3 O4 H4 109.5
C1 O1 H1 109.5
C5 O8 H8 109.5
O4 C3 H3A 109.4
O4 C3 C2 110.62(14)
O4 C3 C4 108.60(14)
C2 C3 H3A 109.4
C4 C3 H3A 109.4
C4 C3 C2 109.31(15)
O3 C2 C3 111.27(15)
O3 C2 H2 108.0
O3 C2 C1 110.67(14)
C3 C2 H2 108.0
C1 C2 C3 110.65(14)
C1 C2 H2 108.0
H1A N1 H1B 109.5
H1A N1 H1C 109.5
H1B N1 H1C 109.5
C7 N1 H1A 109.5
C7 N1 H1B 109.5
C7 N1 H1C 109.5
O8 C5 C6 114.68(16)
O7 C5 O8 125.93(18)
O7 C5 C6 119.36(16)
O1 C1 C2 111.66(15)
O2 C1 O1 125.29(18)
O2 C1 C2 123.03(17)
O6 C4 C3 113.44(16)
O5 C4 O6 125.28(17)
O5 C4 C3 121.27(16)
N1 C7 H7A 109.6
N1 C7 H7B 109.6
N1 C7 C6 110.12(15)
H7A C7 H7B 108.1
C6 C7 H7A 109.6
C6 C7 H7B 109.6
C5 C6 C7 113.41(15)
C5 C6 H6A 108.9
C5 C6 H6B 108.9
C7 C6 H6A 108.9
C7 C6 H6B 108.9
H6A C6 H6B 107.7
loop_
_geom_bond_atom_site_label_1
_geom_bond_atom_site_label_2
_geom_bond_distance
O3 C2 1.420(2)
O3 H3 0.84(2)
O6 H6 0.8400
O6 C4 1.288(2)
O4 H4 0.8400
O4 C3 1.423(2)
O1 H1 0.8400
O1 C1 1.317(2)
O5 C4 1.229(2)
O8 H8 0.8400
O8 C5 1.276(2)
O2 C1 1.206(2)
C3 H3A 1.0000
C3 C2 1.532(2)
C3 C4 1.524(3)
C2 H2 1.0000
C2 C1 1.523(3)
N1 H1A 0.9100
N1 H1B 0.9100
N1 H1C 0.9100
N1 C7 1.488(2)
O7 C5 1.236(2)
C5 C6 1.512(3)
C7 H7A 0.9900
C7 H7B 0.9900
C7 C6 1.513(2)
C6 H6A 0.9900
C6 H6B 0.9900
loop_
_geom_hbond_atom_site_label_D
_geom_hbond_atom_site_label_H
_geom_hbond_atom_site_label_A
_geom_hbond_site_symmetry_A
_geom_hbond_distance_DH
_geom_hbond_distance_HA
_geom_hbond_distance_DA
_geom_hbond_angle_DHA
_geom_hbond_publ_flag
O6 H6 O6 2_565 0.84 1.63 2.464(3) 172.8 yes
O4 H4 O3 1_655 0.84 1.93 2.7595(18) 168.0 yes
O1 H1 O7 2_776 0.84 1.78 2.619(2) 172.2 yes
O8 H8 O8 2_676 0.84 1.63 2.452(3) 167.3 yes
N1 H1A O4 2_665 0.91 2.51 3.110(2) 123.5 yes
N1 H1A O5 2_665 0.91 2.11 2.999(2) 163.8 yes
N1 H1B O5 2_565 0.91 2.05 2.911(2) 158.1 yes
N1 H1B O2 1_445 0.91 2.52 3.052(2) 117.5 yes
N1 H1C O2 1_545 0.91 2.40 2.977(2) 121.7 yes
O3 H3 O4 2_675 0.84(2) 1.98(2) 2.7225(18) 146(2) yes
loop_
_geom_torsion_atom_site_label_1
_geom_torsion_atom_site_label_2
_geom_torsion_atom_site_label_3
_geom_torsion_atom_site_label_4
_geom_torsion
O3 C2 C1 O1 178.75(14)
O3 C2 C1 O2 -2.4(3)
O4 C3 C2 O3 67.72(18)
O4 C3 C2 C1 -55.76(19)
O4 C3 C4 O6 -177.01(14)
O4 C3 C4 O5 2.9(2)
O8 C5 C6 C7 -37.6(2)
C3 C2 C1 O1 -57.43(19)
C3 C2 C1 O2 121.38(19)
C2 C3 C4 O6 -56.24(19)
C2 C3 C4 O5 123.68(17)
N1 C7 C6 C5 177.10(15)
O7 C5 C6 C7 144.13(18)
C4 C3 C2 O3 -51.81(19)
C4 C3 C2 C1 -175.29(15)

_cod_database_fobs_code 2021491
