#------------------------------------------------------------------------------
#$Date: 2018-11-03 22:29:18 +0200 (Sat, 03 Nov 2018) $
#$Revision: 211785 $
#$URL: file:///home/coder/svn-repositories/cod/cif/2/02/12/2021220.cif $
#------------------------------------------------------------------------------
#
# This file is available in the Crystallography Open Database (COD),
# http://www.crystallography.net/. The original data for this entry
# were provided by IUCr Journals, http://journals.iucr.org/.
#
# The file may be used within the scientific community so long as
# proper attribution is given to the journal article from which the
# data were obtained.
#
data_2021220
loop_
_publ_author_name
'Girisha, Marisiddaiah'
'Sagar, Belakavadi K.'
'Yathirajan, Hemmige S.'
'Rathore, Ravindranath S.'
'Kaur, Manpreet'
'Jasinski, Jerry P.'
'Glidewell, Christopher'
_publ_section_title
;
 Eight Schiff bases derived from various salicylaldehydes: phenol--imine
 and keto--amine forms, conformational disorder, and supramolecular
 assembly in one and two dimensions
;
_journal_coeditor_code           FN3266
_journal_issue                   10
_journal_name_full               'Acta Crystallographica Section C'
_journal_page_first              1094
_journal_page_last               1104
_journal_paper_doi               10.1107/S2053229618012287
_journal_volume                  74
_journal_year                    2018
_chemical_formula_iupac          'C15 H14 Br N O3'
_chemical_formula_moiety         'C15 H14 Br N O3'
_chemical_formula_sum            'C15 H14 Br N O3'
_chemical_formula_weight         336.17
_chemical_name_systematic
;
(<i>E</i>)-4-Bromo-2-methoxy-6-[(2-methoxyphenylimino)methyl]phenol
;
_space_group_crystal_system      triclinic
_space_group_IT_number           2
_space_group_name_Hall           '-P 1'
_space_group_name_H-M_alt        'P -1'
_symmetry_space_group_name_Hall  '-P 1'
_symmetry_space_group_name_H-M   'P -1'
_atom_sites_solution_hydrogens   geom
_audit_creation_method           SHELXL-2014
_cell_angle_alpha                87.081(3)
_cell_angle_beta                 87.488(3)
_cell_angle_gamma                77.948(3)
_cell_formula_units_Z            2
_cell_length_a                   6.4158(3)
_cell_length_b                   7.3886(4)
_cell_length_c                   15.2636(7)
_cell_measurement_reflns_used    3426
_cell_measurement_temperature    296(2)
_cell_measurement_theta_max      28.056
_cell_measurement_theta_min      1.337
_cell_volume                     706.28(6)
_computing_cell_refinement
;
SAINT (Bruker, 2004)
;
_computing_data_collection
;
APEX2 (Bruker, 2004)
;
_computing_data_reduction
;
SAINT (Bruker, 2004)
;
_computing_molecular_graphics
;
PLATON (Spek, 2009)
;
_computing_publication_material
;
SHELXL2014 (Sheldrick, 2015) and PLATON (Spek, 2009)
;
_computing_structure_refinement
;
SHELXL2014 (Sheldrick, 2015)
;
_computing_structure_solution
;
SHELXS97 (Sheldrick, 2008)
;
_diffrn_ambient_temperature      296(2)
_diffrn_measured_fraction_theta_full 1.000
_diffrn_measured_fraction_theta_max 1.000
_diffrn_measurement_device_type  'Bruker APEXII CCD'
_diffrn_measurement_method       '\f and \w scans'
_diffrn_radiation_monochromator  graphite
_diffrn_radiation_type           MoK\a
_diffrn_radiation_wavelength     0.71073
_diffrn_reflns_av_R_equivalents  0.0455
_diffrn_reflns_limit_h_max       8
_diffrn_reflns_limit_h_min       -8
_diffrn_reflns_limit_k_max       9
_diffrn_reflns_limit_k_min       -9
_diffrn_reflns_limit_l_max       19
_diffrn_reflns_limit_l_min       -19
_diffrn_reflns_number            16535
_diffrn_reflns_theta_full        25.242
_diffrn_reflns_theta_max         27.531
_diffrn_reflns_theta_min         2.674
_diffrn_standards_decay_%        0
_diffrn_standards_interval_count 0
_diffrn_standards_interval_time  0
_diffrn_standards_number         0
_exptl_absorpt_coefficient_mu    2.916
_exptl_absorpt_correction_T_max  0.558
_exptl_absorpt_correction_T_min  0.322
_exptl_absorpt_correction_type   multi-scan
_exptl_absorpt_process_details
;
(SADABS; Bruker, 2012)
;
_exptl_crystal_colour            orange
_exptl_crystal_density_diffrn    1.581
_exptl_crystal_description       block
_exptl_crystal_F_000             340
_exptl_crystal_size_max          0.300
_exptl_crystal_size_mid          0.250
_exptl_crystal_size_min          0.200
_refine_diff_density_max         0.366
_refine_diff_density_min         -0.341
_refine_ls_extinction_method     none
_refine_ls_goodness_of_fit_ref   1.021
_refine_ls_hydrogen_treatment    constr
_refine_ls_matrix_type           full
_refine_ls_number_parameters     184
_refine_ls_number_reflns         3265
_refine_ls_number_restraints     0
_refine_ls_restrained_S_all      1.021
_refine_ls_R_factor_all          0.0663
_refine_ls_R_factor_gt           0.0325
_refine_ls_shift/su_max          0.000
_refine_ls_shift/su_mean         0.000
_refine_ls_structure_factor_coef Fsqd
_refine_ls_weighting_details
'w=1/[\s^2^(Fo^2^)+(0.0262P)^2^+0.2214P] where P=(Fo^2^+2Fc^2^)/3'
_refine_ls_weighting_scheme      calc
_refine_ls_wR_factor_gt          0.0622
_refine_ls_wR_factor_ref         0.0717
_reflns_number_gt                2240
_reflns_number_total             3265
_reflns_threshold_expression     'I > 2\s(I)'
_cod_data_source_file            fn3266sup1.cif
_cod_data_source_block           IV
_cod_depositor_comments
'Adding full bibliography for 2021217--2021224.cif.'
_cod_database_code               2021220
_cod_database_fobs_code          2021220
_shelx_space_group_comment
;
The symmetry employed for this shelxl refinement is uniquely defined
by the following loop, which should always be used as a source of
symmetry information in preference to the above space-group names.
They are only intended as comments.
;
_shelx_estimated_absorpt_t_min   0.475
_shelx_estimated_absorpt_t_max   0.593
_shelx_hkl_file
;
  -1   0   0   35.50    1.30
  -1   0   0   32.40    1.40
  -1   0   0   33.20    1.20
  -1   0   0   36.10    1.30
  -1   0   0   34.20    1.50
   1   0   0   33.80    1.20
   1   0   0   35.80    1.40
   1   0   0   33.10    1.50
  -2   0   0   63.79    2.80
  -2   0   0   64.59    2.20
  -2   0   0   64.89    2.40
  -2   0   0   66.29    2.50
  -2   0   0   54.29    2.70
   2   0   0   65.19    2.40
   2   0   0   67.59    2.80
   2   0   0   59.69    2.30
  -3   0   0    4.50    1.40
  -3   0   0    6.60    1.40
  -3   0   0    5.30    1.20
  -3   0   0    7.40    1.10
   3   0   0    5.20    1.20
   3   0   0    8.80    1.70
   3   0   0    7.80    1.00
  -4   0   0  194.18    7.60
  -4   0   0  194.68    7.40
  -4   0   0  186.78    6.30
  -4   0   0  199.28    6.10
   4   0   0  191.98    6.30
   4   0   0  189.28    7.10
   4   0   0  191.78    6.40
   4   0   0  199.48    5.70
  -5   0   0  144.99    6.80
  -5   0   0  138.69    6.00
  -5   0   0  121.69    5.10
   5   0   0  128.59    6.40
   5   0   0  143.29    5.20
   5   0   0  137.99    5.60
   5   0   0  139.59    4.60
  -6   0   0    3.90    2.70
  -6   0   0    4.70    2.40
   6   0   0    5.40    4.40
   6   0   0    7.80    2.70
  -7   0   0   -2.00    4.00
   7   0   0   -0.30    5.40
   7   0   0   -3.90    2.90
  -8   0   0   26.60    6.20
   8   0   0   32.50    8.00
   8  -1   0   -6.90    6.70
  -8   1   0    3.10    5.50
   7  -1   0   28.40    7.20
   7  -1   0   28.70    4.40
  -7   1   0   26.50    5.30
   6  -1   0   51.69    6.60
   6  -1   0   53.99    5.10
  -6   1   0   41.80    5.10
   5  -1   0    8.60    2.10
   5  -1   0    8.90    2.90
   5  -1   0   12.60    4.10
  -5   1   0    3.10    2.40
  -5   1   0    5.60    2.40
  -5   1   0   10.70    1.90
  -5   1   0    9.50    2.60
   4  -1   0  131.99    5.80
   4  -1   0  116.29    4.90
   4  -1   0  118.19    5.10
  -4   1   0  128.79    7.00
  -4   1   0  124.49    5.20
  -4   1   0  123.49    4.90
  -4   1   0  122.29    6.20
   3  -1   0 1260.47   34.40
   3  -1   0 1272.07   36.90
   3  -1   0 1241.08   34.40
  -3   1   0 1280.07   34.20
  -3   1   0 1257.27   37.10
  -3   1   0 1250.97   36.30
  -3   1   0 1274.37   37.80
  -3   1   0 1255.77   34.50
  -3   1   0 1260.17   49.30
   2  -1   0  346.37   10.30
   2  -1   0  344.77   11.00
   2  -1   0  358.36   10.30
  -2   1   0  357.36   10.20
  -2   1   0  356.36   11.10
  -2   1   0  351.46   10.90
  -2   1   0  351.96   14.60
  -2   1   0  346.17   10.70
  -2   1   0  354.36   10.30
   1  -1   0  235.78    7.50
   1  -1   0  240.68   10.10
   1  -1   0  243.68    7.10
   1  -1   0  232.48    7.10
  -1   1   0  262.27    7.60
  -1   1   0  230.78    7.00
  -1   1   0  235.88    7.10
  -1   1   0  240.18    7.50
  -1   1   0  237.18   10.00
   0  -1   0  223.48    6.40
   0  -1   0  217.98    6.40
   0  -1   0  229.78    6.60
   0  -1   0  201.08    9.30
   0  -1   0  221.08    7.00
   0  -1   0  213.58    6.80
   0   1   0  231.68    6.50
   0   1   0  208.38    7.40
   0   1   0  232.68    6.70
   0   1   0  224.28    6.60
   0   1   0  211.28    9.30
   0   1   0  224.78    6.40
  -1  -1   0  254.97    7.20
  -1  -1   0  250.57    7.10
  -1  -1   0  265.57   10.40
   1   1   0  256.07    7.20
   1   1   0  266.67   10.40
   1   1   0  252.57    7.10
  -2  -1   0 1339.17   35.60
  -2  -1   0 1309.07   40.70
  -2  -1   0 1389.76   51.59
  -2  -1   0 1347.27   35.70
   2   1   0 1353.36   34.00
   2   1   0 1331.47   33.40
   2   1   0 1331.27   35.60
  -3  -1   0  428.56   11.60
  -3  -1   0  423.56   11.70
  -3  -1   0  410.76   13.40
  -3  -1   0  422.26   14.10
   3   1   0  420.76   12.00
   3   1   0  436.16   11.10
   3   1   0  419.26   11.70
  -4  -1   0    3.30    1.10
  -4  -1   0    2.50    1.00
  -4  -1   0    0.00    1.70
  -4  -1   0    1.30    1.70
   4   1   0    3.10    1.30
   4   1   0    2.90    1.80
   4   1   0    1.50    1.10
  -5  -1   0   97.89    5.60
  -5  -1   0   99.59    3.90
  -5  -1   0  107.89    5.80
   5   1   0   99.19    3.80
   5   1   0   94.09    5.20
  -6  -1   0   93.19    6.30
  -6  -1   0   96.69    6.30
  -6  -1   0  102.19    6.10
   6   1   0   91.79    6.90
   6   1   0   92.29    4.00
   6   1   0   98.59    4.60
  -7  -1   0   50.29    5.40
  -7  -1   0   48.40    6.00
   7   1   0   51.29    5.90
   7   1   0   48.30    3.50
   7   1   0   45.60    3.90
  -8  -1   0   14.00    5.60
   8   1   0    8.80    6.50
   7  -2   0   16.00    5.50
   7  -2   0   14.60    4.90
  -7   2   0   11.20    5.10
   6  -2   0   20.20    6.00
   6  -2   0   23.30    4.60
  -6   2   0   20.80    4.60
   5  -2   0   52.49    6.00
   5  -2   0   52.09    5.00
  -5   2   0   50.99    4.80
  -5   2   0   58.79    4.40
   4  -2   0  162.28    6.50
   4  -2   0  161.78    6.80
  -4   2   0  165.78    6.70
  -4   2   0  159.68    7.60
  -4   2   0  153.68    7.00
   3  -2   0   25.40    2.80
   3  -2   0   29.60    2.90
  -3   2   0   28.50    3.60
  -3   2   0   22.60    2.40
  -3   2   0   34.50    3.10
  -3   2   0   26.00    3.00
   2  -2   0   23.80    2.40
   2  -2   0   17.40    2.40
   2  -2   0   25.40    2.50
   2  -2   0   18.90    2.80
  -2   2   0   25.30    2.40
  -2   2   0   21.40    2.50
  -2   2   0   23.20    2.50
  -2   2   0   21.60    2.20
  -2   2   0   21.90    3.10
   1  -2   0 1045.20   30.00
   1  -2   0 1086.39   40.90
   1  -2   0 1006.10   28.20
   1  -2   0 1029.10   30.60
   1  -2   0  992.10   28.20
  -1   2   0 1039.90   28.30
  -1   2   0 1049.00   28.20
  -1   2   0 1015.50   30.00
  -1   2   0 1037.70   29.90
  -1   2   0 1004.60   29.70
  -1   2   0  977.50   40.30
   0  -2   0 2468.55   64.99
   0  -2   0 2530.55   69.19
   0  -2   0 2229.28   93.79
   0  -2   0 2447.76   69.49
   0  -2   0 2446.56   72.59
   0  -2   0 2463.35   64.99
   0   2   0 2501.85   68.39
   0   2   0 2464.85   69.99
   0   2   0 2330.87   93.69
   0   2   0 2323.27   76.59
   0   2   0 2533.55   65.09
   0   2   0 2496.85   64.99
  -1  -2   0   29.60    2.20
  -1  -2   0   27.20    3.20
  -1  -2   0   34.10    1.70
  -1  -2   0   25.70    2.00
  -1  -2   0   28.80    2.00
  -1  -2   0   30.40    1.60
   1   2   0   28.50    1.80
   1   2   0   32.00    3.10
   1   2   0   26.40    2.00
   1   2   0   31.80    1.40
   1   2   0   27.80    1.80
  -2  -2   0  287.07   12.30
  -2  -2   0  294.17    8.30
  -2  -2   0  279.37   10.10
  -2  -2   0  287.77    8.30
   2   2   0  281.77    8.30
   2   2   0  289.27    8.10
   2   2   0  289.37    8.40
   2   2   0  279.97    8.30
   2   2   0  304.87   12.30
  -3  -2   0  137.29    4.30
  -3  -2   0  140.09    4.40
  -3  -2   0  127.99    5.90
  -3  -2   0  141.09    6.90
   3   2   0  133.29    5.10
   3   2   0  137.49    4.50
   3   2   0  140.29    4.40
  -4  -2   0  100.59    3.50
  -4  -2   0   95.49    3.50
  -4  -2   0  104.39    5.80
  -4  -2   0  104.99    5.90
   4   2   0   96.89    3.60
   4   2   0  105.59    5.00
   4   2   0   99.89    3.60
  -5  -2   0  110.09    6.30
  -5  -2   0   93.79    3.50
  -5  -2   0   94.39    6.20
  -5  -2   0  108.99    5.90
   5   2   0   87.49    5.00
   5   2   0   96.89    3.70
   5   2   0   93.19    3.90
   5   2   0   97.29    3.80
  -6  -2   0   -2.30    3.50
  -6  -2   0    1.00    2.30
  -6  -2   0   -1.60    2.80
   6   2   0    1.00    2.10
   6   2   0   -2.40    3.80
   6   2   0    0.40    1.40
  -7  -2   0    4.30    4.50
  -7  -2   0    5.90    3.60
   7   2   0    8.60    4.00
   7   2   0    6.20    2.70
   7   2   0    3.70    1.90
  -8  -2   0   17.50    5.90
   8   2   0   17.90    6.20
   7  -3   0   21.10    6.20
   7  -3   0   33.90    6.30
  -7   3   0   16.40    5.60
  -7   3   0   27.20    6.40
   6  -3   0    3.80    5.50
   6  -3   0    8.10    4.40
  -6   3   0   -0.60    4.30
  -6   3   0    1.50    4.60
   5  -3   0   52.89    5.30
   5  -3   0   48.30    5.30
  -5   3   0   45.90    5.20
  -5   3   0   54.19    5.10
  -5   3   0   52.49    5.40
   4  -3   0  145.19    7.50
   4  -3   0  161.78    7.20
  -4   3   0  161.38    7.60
  -4   3   0  152.48    7.30
  -4   3   0  151.08    7.10
  -4   3   0  167.28    8.20
   3  -3   0  298.57   10.60
   3  -3   0  302.47   10.40
  -3   3   0  287.67   10.60
  -3   3   0  300.57   10.40
  -3   3   0  278.87   10.70
  -3   3   0  298.27   11.00
   2  -3   0   21.10    3.70
   2  -3   0   27.30    2.60
   2  -3   0   24.40    2.80
   2  -3   0   26.80    2.80
  -2   3   0   31.80    3.20
  -2   3   0   23.90    2.90
  -2   3   0   24.50    3.20
  -2   3   0   28.20    2.80
  -2   3   0   35.60    3.50
   1  -3   0   -1.00    0.90
   1  -3   0    0.90    1.70
   1  -3   0   -0.70    2.70
   1  -3   0   -0.10    1.90
   1  -3   0   -1.10    1.50
  -1   3   0   -0.40    1.80
  -1   3   0   -0.70    1.30
  -1   3   0   -1.70    2.10
  -1   3   0    1.00    1.30
  -1   3   0   -0.30    1.90
  -1   3   0    1.90    1.70
  -1   3   0   -1.20    1.60
   0  -3   0  133.49    5.40
   0  -3   0  138.39    4.80
   0  -3   0  133.59    5.70
   0  -3   0  130.09    5.00
   0  -3   0  137.09    5.20
   0  -3   0  129.39    7.80
   0   3   0  138.19    5.10
   0   3   0  133.99    5.50
   0   3   0  128.19    5.20
   0   3   0  136.29    5.70
   0   3   0  135.49    4.90
   0   3   0  130.19    7.60
  -1  -3   0  515.15   15.50
  -1  -3   0  497.55   22.20
  -1  -3   0  521.25   17.00
  -1  -3   0  527.35   15.10
  -1  -3   0  505.95   15.10
   1   3   0  533.35   15.20
   1   3   0  510.65   15.10
   1   3   0  547.05   22.20
   1   3   0  519.25   15.70
   1   3   0  547.25   17.00
   1   3   0  513.45   15.70
  -2  -3   0   94.39    3.80
  -2  -3   0   89.89    6.00
  -2  -3   0   94.19    4.80
  -2  -3   0   85.89    3.80
  -2  -3   0   86.29    3.80
  -2  -3   0   93.79    3.40
   2   3   0  101.89    6.00
   2   3   0   88.89    3.80
   2   3   0   93.59    3.40
   2   3   0   89.49    3.60
   2   3   0   98.49    3.90
  -3  -3   0    3.20    1.40
  -3  -3   0   -0.90    1.60
  -3  -3   0    3.80    1.90
  -3  -3   0    3.00    0.90
  -3  -3   0    2.30    1.20
   3   3   0    1.60    1.60
   3   3   0    0.50    1.20
   3   3   0    2.90    1.50
   3   3   0    2.70    1.50
   3   3   0    5.20    0.90
   3   3   0    1.20    1.40
  -4  -3   0    6.60    2.10
  -4  -3   0    7.20    2.30
  -4  -3   0    7.00    1.40
   4   3   0    8.10    1.80
   4   3   0    7.20    2.40
   4   3   0    6.80    1.50
   4   3   0    6.90    1.50
  -5  -3   0  140.79    8.00
  -5  -3   0  143.29    8.40
  -5  -3   0  140.09    4.70
   5   3   0  143.19    6.70
   5   3   0  143.39    5.00
   5   3   0  138.29    5.30
   5   3   0  134.89    5.00
  -6  -3   0   33.00    4.60
  -6  -3   0   40.10    5.40
  -6  -3   0   27.40    4.80
   6   3   0   33.10    4.90
   6   3   0   33.30    3.10
   6   3   0   34.70    2.70
  -7  -3   0   12.50    4.00
  -7  -3   0   12.00    4.40
   7   3   0    8.00    2.60
   7   3   0   10.00    4.90
  -8  -3   0   -8.00    5.10
  -8  -3   0    1.70    4.50
   8   3   0    2.70    5.70
   8   3   0    2.00    3.10
   6  -4   0   33.70    6.80
   6  -4   0   34.90    6.10
  -6   4   0   33.30    6.00
  -6   4   0   31.60    6.10
   5  -4   0   28.40    5.40
   5  -4   0   31.40    5.40
  -5   4   0   23.50    4.80
  -5   4   0   17.40    4.70
  -5   4   0   33.30    4.90
   4  -4   0   66.59    6.50
  -4   4   0   58.29    4.90
  -4   4   0   58.59    5.90
  -4   4   0   57.59    5.10
  -4   4   0   64.29    6.60
   3  -4   0   62.49    5.90
  -3   4   0   65.99    5.30
  -3   4   0   60.59    5.50
  -3   4   0   56.59    5.40
  -3   4   0   72.89    5.90
   2  -4   0   86.09    3.20
   2  -4   0   88.19    5.10
   2  -4   0   88.59    8.00
  -2   4   0   90.69    5.10
  -2   4   0   85.79    5.60
  -2   4   0   91.99    5.90
  -2   4   0   93.19    5.80
   1  -4   0  140.89    6.60
   1  -4   0  137.69   10.50
   1  -4   0  140.49    5.50
  -1   4   0  137.59    6.80
  -1   4   0  124.29    6.30
  -1   4   0  145.59    6.10
  -1   4   0  129.99    6.60
  -1   4   0  136.89    6.60
   0  -4   0  198.58    8.20
   0  -4   0  208.98   12.30
   0  -4   0  210.48    7.10
   0  -4   0  196.28    7.80
   0  -4   0  208.88    8.00
   0   4   0  202.18    7.60
   0   4   0  200.58    8.40
   0   4   0  208.18    7.30
   0   4   0  209.78    7.70
   0   4   0  220.58    8.00
  -1  -4   0   36.40    2.40
  -1  -4   0   24.50    4.00
  -1  -4   0   33.60    3.00
  -1  -4   0   34.10    3.00
   1   4   0   38.00    3.30
   1   4   0   36.10    3.00
   1   4   0   34.00    2.60
   1   4   0   36.20    3.00
   1   4   0   31.60    2.70
  -2  -4   0 1753.82   74.99
  -2  -4   0 1893.21   54.89
  -2  -4   0 1925.91   51.89
  -2  -4   0 1975.60   58.89
   2   4   0 1884.81   51.79
   2   4   0 1941.21   47.90
   2   4   0 1935.11   51.89
   2   4   0 1963.30   54.29
  -3  -4   0   11.60    3.20
  -3  -4   0   16.80    1.40
  -3  -4   0   21.00    2.50
  -3  -4   0   14.50    2.00
  -3  -4   0   13.20    2.70
   3   4   0   17.40    1.90
   3   4   0   16.60    2.30
   3   4   0   18.60    2.20
   3   4   0   18.10    2.40
  -4  -4   0   41.50    4.60
  -4  -4   0   46.20    3.20
  -4  -4   0   50.89    5.70
  -4  -4   0   50.09    2.80
   4   4   0   55.29    3.40
   4   4   0   56.49    3.50
   4   4   0   47.70    3.70
   4   4   0   50.49    3.60
  -5  -4   0   10.80    1.80
  -5  -4   0    9.90    3.10
  -5  -4   0   12.90    2.00
  -5  -4   0    8.20    3.00
   5   4   0   17.30    2.80
   5   4   0   11.90    2.20
   5   4   0   10.80    3.20
   5   4   0   12.60    2.10
  -6  -4   0    2.80    4.00
  -6  -4   0    1.50    2.80
   6   4   0   -2.90    2.40
   6   4   0    1.80    2.60
   6   4   0    3.10    1.90
  -7  -4   0    3.00    3.60
  -7  -4   0    6.10    4.60
   7   4   0    2.60    2.90
   7   4   0    7.00    4.70
  -8  -4   0    0.50    5.60
  -8  -4   0    0.10    5.00
   8   4   0    4.80    3.30
   8   4   0   -0.70    3.90
   6  -5   0    2.80    5.90
   6  -5   0   -0.90    5.60
  -6   5   0   -3.70    5.20
  -6   5   0   -2.50    3.60
   5  -5   0   10.10    4.90
   5  -5   0   23.10    5.90
  -5   5   0    8.10    4.70
  -5   5   0   11.80    3.80
   4  -5   0   38.10    5.90
  -4   5   0   33.40    5.40
  -4   5   0   29.60    4.80
  -4   5   0   22.90    4.90
  -4   5   0   28.50    4.60
   3  -5   0   36.50    6.20
   3  -5   0   49.00    5.00
  -3   5   0   49.20    5.90
  -3   5   0   60.19    6.00
  -3   5   0   52.19    5.30
  -3   5   0   43.10    4.50
   2  -5   0   -1.20    1.20
   2  -5   0    0.20    3.80
   2  -5   0   -2.10    3.80
  -2   5   0    1.70    3.10
  -2   5   0    1.30    2.80
  -2   5   0   -1.10    3.60
  -2   5   0    1.20    2.50
   1  -5   0  103.79    5.20
   1  -5   0  105.49    9.60
   1  -5   0  111.19    6.80
  -1   5   0   94.19    5.80
  -1   5   0   97.89    5.60
  -1   5   0  111.19    5.50
   0  -5   0   67.39    4.80
   0  -5   0   72.89    9.10
   0  -5   0   61.59    3.50
   0  -5   0   65.79    4.70
   0   5   0   71.29    4.60
   0   5   0   66.39    4.30
   0   5   0   69.99    5.60
   0   5   0   68.99    4.40
  -1  -5   0  176.28   11.10
  -1  -5   0  184.98    8.10
  -1  -5   0  180.58    6.50
  -1  -5   0  169.38    7.70
   1   5   0  179.58    7.10
   1   5   0  179.98    7.40
   1   5   0  178.78    7.30
   1   5   0  161.78    6.90
  -2  -5   0  134.49   10.00
  -2  -5   0  128.39    5.40
  -2  -5   0  135.29    6.90
  -2  -5   0  141.59    6.50
   2   5   0  135.79    5.00
   2   5   0  136.79    6.50
   2   5   0  135.69    5.90
   2   5   0  141.59    6.20
  -3  -5   0    2.20    3.20
  -3  -5   0    4.60    2.70
  -3  -5   0    0.50    1.50
  -3  -5   0    0.40    3.10
   3   5   0    6.10    2.10
   3   5   0    1.00    2.50
   3   5   0    4.00    1.80
   3   5   0    3.90    2.40
  -4  -5   0   32.70    4.80
  -4  -5   0   28.20    4.60
  -4  -5   0   35.00    3.30
  -4  -5   0   31.80    1.70
   4   5   0   30.90    3.50
   4   5   0   43.50    3.90
   4   5   0   40.00    3.80
   4   5   0   31.80    3.90
  -5  -5   0   37.30    4.80
  -5  -5   0   27.80    4.70
   5   5   0   40.30    3.90
   5   5   0   50.99    4.50
   5   5   0   39.90    4.20
  -6  -5   0    6.40    3.70
  -6  -5   0    6.70    3.70
   6   5   0    4.10    3.70
   6   5   0    7.30    3.20
   6   5   0    4.90    2.40
  -7  -5   0   -2.30    5.00
  -7  -5   0   -2.30    5.00
   7   5   0    0.30    4.40
   7   5   0    0.20    3.50
  -8  -5   0    8.40    4.80
  -8  -5   0    0.80    5.60
   8   5   0    5.90    5.40
   5  -6   0    6.70    6.40
   5  -6   0   -7.40    4.80
  -5   6   0   -4.00    5.10
  -5   6   0   -4.30    4.50
   4  -6   0   -2.60    3.60
   4  -6   0   -0.90    5.70
  -4   6   0    9.90    5.80
  -4   6   0    5.90    5.30
  -4   6   0    2.90    4.00
  -4   6   0   -0.50    4.40
   3  -6   0    6.00    6.90
   3  -6   0   18.70    5.70
  -3   6   0   12.00    5.30
  -3   6   0   21.50    4.90
  -3   6   0    9.50    3.60
  -3   6   0   15.60    4.20
   2  -6   0   38.20    8.30
   2  -6   0   44.30    3.60
   2  -6   0   58.69    6.60
  -2   6   0   61.49    5.80
  -2   6   0   62.19    5.50
  -2   6   0   57.59    5.30
   1  -6   0   13.20    4.70
   1  -6   0    7.50    4.60
   1  -6   0    8.70    2.50
  -1   6   0    6.80    4.00
  -1   6   0    8.90    3.60
  -1   6   0    5.90    2.60
   0  -6   0   80.29    5.50
   0  -6   0   92.99    7.20
   0  -6   0   76.39    9.40
   0   6   0   72.29    5.20
   0   6   0   92.69    5.30
   0   6   0   83.89    7.10
  -1  -6   0   37.70    6.60
  -1  -6   0   44.60    3.20
  -1  -6   0   51.39    5.30
  -1  -6   0   43.70    5.10
   1   6   0   54.89    4.00
   1   6   0   38.00    3.60
   1   6   0   43.10    4.60
   1   6   0   47.60    4.70
  -2  -6   0  100.59   10.60
  -2  -6   0  100.99    4.80
  -2  -6   0  105.19    6.70
  -2  -6   0  103.29    7.30
   2   6   0  111.59    7.10
   2   6   0   99.99    5.70
  -3  -6   0    2.70    2.80
  -3  -6   0    1.90    3.20
  -3  -6   0    3.20    3.30
   3   6   0    2.30    3.40
   3   6   0   -5.90    2.70
   3   6   0    6.90    3.00
  -4  -6   0    1.30    4.00
  -4  -6   0    3.70    4.10
  -4  -6   0    1.70    2.70
   4   6   0    2.80    3.10
   4   6   0    6.30    2.80
  -5  -6   0   -2.10    3.10
  -5  -6   0   -1.40    3.80
   5   6   0    1.10    2.80
   5   6   0   -1.40    3.10
   5   6   0    0.30    3.70
  -6  -6   0    2.80    5.20
  -6  -6   0   -2.50    4.30
   6   6   0    8.40    4.20
   6   6   0    2.70    4.00
   6   6   0    1.40    2.90
  -7  -6   0   -2.50    5.80
   7   6   0    7.10    4.00
   7   6   0    6.60    4.60
   4  -7   0    5.40    6.70
  -4   7   0    5.40    4.50
  -4   7   0   15.00    6.30
   3  -7   0   -0.70    5.90
   3  -7   0   -6.90    5.50
  -3   7   0   -2.20    4.00
  -3   7   0    0.60    4.20
  -3   7   0   -0.10    4.00
   2  -7   0    0.10    5.50
   2  -7   0    4.00    5.70
  -2   7   0    6.90    4.30
  -2   7   0    3.60    5.20
  -2   7   0    3.40    3.20
   1  -7   0   17.30    6.30
   1  -7   0   26.30    6.10
   1  -7   0   17.40    3.30
  -1   7   0   16.90    3.20
  -1   7   0   23.90    5.60
  -1   7   0   18.30    5.80
   0  -7   0   -4.90    6.10
   0  -7   0   -2.60    3.40
   0  -7   0    4.20    3.30
   0   7   0    7.10    4.30
   0   7   0    6.20    3.90
   0   7   0    1.70    2.70
  -1  -7   0   23.20    4.20
  -1  -7   0   25.00    5.20
  -1  -7   0   21.20    6.80
   1   7   0   19.40    4.50
   1   7   0   22.40    4.40
   1   7   0   15.80    3.10
  -2  -7   0    4.80    3.20
  -2  -7   0    1.30    4.00
  -2  -7   0    3.10    3.90
   2   7   0   -3.40    3.20
   2   7   0   -0.30    3.40
  -3  -7   0   17.20    4.40
  -3  -7   0    8.20    5.60
  -3  -7   0   12.50    4.80
   3   7   0   13.90    3.70
   3   7   0   10.00    3.30
  -4  -7   0    6.70    3.80
  -4  -7   0   -0.40    4.80
   4   7   0   10.30    4.10
  -5  -7   0    4.80    4.20
  -5  -7   0    2.50    5.00
   5   7   0    1.20    3.60
   5   7   0    2.90    3.30
   5   7   0    4.80    4.70
  -6  -7   0   -1.40    4.80
  -6  -7   0   -2.30    5.60
   6   7   0   -1.40    3.50
   6   7   0   -0.20    5.00
   6   7   0   -3.70    3.30
  -7  -7   0    0.40    4.80
   7   7   0    4.00    5.10
   7   7   0    2.70    4.20
   3  -8   0    6.00    7.40
  -3   8   0    9.90    5.30
   2  -8   0   18.60    7.70
   2  -8   0   32.40    7.40
  -2   8   0   21.20    5.30
  -2   8   0   11.40    5.20
   1  -8   0   -2.40    8.10
   1  -8   0   -9.50    5.90
  -1   8   0   -4.00    3.20
  -1   8   0    2.40    4.10
  -1   8   0   -2.90    6.10
   0  -8   0   -0.90    3.60
   0  -8   0   -3.00    4.00
   0  -8   0  -13.70    7.00
   0   8   0   -2.00    3.00
   0   8   0    0.70    4.90
   0   8   0   -3.00    5.90
  -1  -8   0    7.00    4.20
  -1  -8   0   13.60    4.10
  -1  -8   0    0.00    7.00
   1   8   0   10.00    6.30
   1   8   0    8.90    4.80
  -2  -8   0    0.70    4.40
  -2  -8   0    4.90    5.00
  -2  -8   0    4.40    5.20
   2   8   0   10.20    4.60
   2   8   0    5.60    4.10
  -3  -8   0   15.20    5.40
  -3  -8   0    7.30    6.60
  -3  -8   0   13.10    5.10
   3   8   0    1.70    5.60
  -4  -8   0   19.70    7.20
  -4  -8   0   23.20    6.50
   4   8   0   16.30    5.50
  -5  -8   0   -5.90    4.00
  -5  -8   0    1.60    6.00
   5   8   0   -4.20    5.30
   5   8   0    3.70    5.10
  -6  -8   0   -4.90    6.10
  -6  -8   0   -1.40    6.10
   6   8   0   -4.20    5.60
   6   8   0    0.70    4.40
   1  -9   0    7.20    7.40
   1  -9   0    1.20    7.00
  -1   9   0   10.80    6.60
  -1   9   0    3.00    7.40
   0  -9   0   -7.60    6.30
   0  -9   0   -3.50    6.30
   0   9   0    3.40    7.30
   0   9   0  -11.10    5.50
  -1  -9   0  -12.40    7.80
  -1  -9   0    0.50    4.30
  -1  -9   0    7.70    6.40
   1   9   0   -2.00    5.10
   1   9   0    3.60    5.20
  -2  -9   0    1.80    4.60
  -2  -9   0   -1.10    7.80
  -2  -9   0    0.40    4.40
   2   9   0    2.10    6.60
  -3  -9   0  -11.20    7.30
  -3  -9   0   12.00    5.90
   3   9   0    3.20    6.30
  -4  -9   0   12.80    6.40
  -4  -9   0    2.00    7.70
   4   9   0   12.50    6.30
   4   9  -1    0.20    6.30
  -4  -9   1    4.20    4.80
  -4  -9   1   -0.90    5.70
   3   9  -1    2.00    4.30
   3   9  -1    0.40    6.60
  -3  -9   1    4.60    5.80
  -3  -9   1   -0.20    7.50
   2   9  -1   -5.20    4.20
   2   9  -1   -8.90    4.70
  -2  -9   1   -7.80    5.90
  -2  -9   1   -3.90    6.00
  -2  -9   1   -5.40    4.70
   1   9  -1    2.30    5.30
   1   9  -1    2.20    7.00
  -1  -9   1    1.70    4.90
  -1  -9   1   -5.30    6.10
  -1  -9   1   -4.30    4.40
   0   9  -1    6.10    5.30
   0   9  -1   -2.40    5.80
   0  -9   1   -1.80    9.00
   0  -9   1   -0.70    6.50
  -1   9  -1    3.90    5.40
  -1   9  -1   -2.00    4.40
   1  -9   1   -1.10    5.20
   1  -9   1  -15.10    8.60
   6   8  -1  -11.10    5.50
   6   8  -1   -2.10    4.70
  -6  -8   1    3.90    5.20
  -6  -8   1   -2.00    6.10
   5   8  -1    0.00    4.60
   5   8  -1   -3.30    3.90
  -5  -8   1   -3.10    6.10
  -5  -8   1   -0.90    4.50
   4   8  -1    9.40    5.40
  -4  -8   1    0.40    6.70
  -4  -8   1    8.90    5.90
   3   8  -1   20.90    4.30
   3   8  -1   25.00    6.20
  -3  -8   1   13.40    5.80
  -3  -8   1   22.40    5.80
  -3  -8   1   31.70    5.80
   2   8  -1    6.30    4.40
   2   8  -1    9.60    4.20
  -2  -8   1    9.80    5.80
  -2  -8   1   11.00    5.60
  -2  -8   1   16.20    4.80
   1   8  -1    0.00    3.10
   1   8  -1    6.00    4.60
   1   8  -1    8.00    6.10
  -1  -8   1    9.00    5.80
  -1  -8   1    0.30    5.40
  -1  -8   1    5.80    4.20
   0   8  -1   -2.40    3.20
   0   8  -1   -1.40    6.10
   0   8  -1    1.10    4.90
   0  -8   1   -3.40    5.60
   0  -8   1    2.50    5.80
   0  -8   1   -1.00    3.70
  -1   8  -1    8.20    6.40
  -1   8  -1   11.30    4.40
  -1   8  -1    1.00    3.20
   1  -8   1   -3.70    5.80
   1  -8   1    3.90    6.30
  -2   8  -1    7.60    5.90
  -2   8  -1    9.10    6.60
  -2   8  -1    8.10    3.90
   2  -8   1    3.40    9.20
   2  -8   1    7.00    6.90
  -3   8  -1    1.60    4.60
  -3   8  -1   -1.50    6.40
  -3   8  -1    2.20    6.50
   3  -8   1    8.90    7.10
   6   7  -1    4.50    4.90
   6   7  -1   -2.20    3.70
  -6  -7   1    2.00    4.40
  -6  -7   1   -1.00    4.90
   5   7  -1    3.10    4.70
   5   7  -1   10.80    4.60
  -5  -7   1    8.50    4.50
  -5  -7   1    3.60    5.30
   4   7  -1   -5.70    2.90
   4   7  -1   -1.30    4.40
  -4  -7   1    0.90    3.60
  -4  -7   1   -3.90    5.00
   3   7  -1   10.00    4.60
   3   7  -1    5.10    3.50
  -3  -7   1    6.90    4.50
  -3  -7   1    5.20    4.20
  -3  -7   1    6.20    5.60
   2   7  -1    6.30    3.50
   2   7  -1   18.70    5.10
  -2  -7   1   13.70    4.30
  -2  -7   1   10.30    3.70
  -2  -7   1    7.30    4.70
   1   7  -1   21.00    5.40
   1   7  -1    7.50    3.10
   1   7  -1    4.90    3.00
  -1  -7   1   11.20    6.60
  -1  -7   1   16.30    4.00
  -1  -7   1   19.10    5.20
   0   7  -1   52.09    5.70
   0   7  -1   45.10    5.60
   0   7  -1   46.20    4.60
   0  -7   1   40.80    4.50
   0  -7   1   39.20    6.20
   0  -7   1   37.70    8.40
  -1   7  -1    5.00    3.50
  -1   7  -1    3.80    4.70
  -1   7  -1    5.70    5.30
   1  -7   1    5.10    5.50
   1  -7   1   -1.70    6.90
   1  -7   1    3.50    3.10
  -2   7  -1    2.70    3.30
  -2   7  -1    2.80    4.10
  -2   7  -1    0.20    4.90
   2  -7   1   -7.10    5.60
   2  -7   1    1.10    8.00
  -3   7  -1    4.40    4.20
  -3   7  -1   -0.30    4.00
  -3   7  -1    7.40    4.00
   3  -7   1   14.50    6.50
  -4   7  -1    9.00    4.60
  -4   7  -1   13.00    5.20
   4  -7   1   12.10    7.00
   7   6  -1    7.70    4.10
   7   6  -1   -4.40    2.90
   7   6  -1    6.10    4.30
  -7  -6   1    1.40    5.80
   6   6  -1    1.60    3.40
   6   6  -1   -0.70    3.10
   6   6  -1    1.50    3.90
  -6  -6   1   -1.10    5.20
  -6  -6   1   -1.70    4.00
   5   6  -1   -3.30    2.60
   5   6  -1    1.80    3.00
   5   6  -1    1.50    2.90
  -5  -6   1   -1.70    3.30
  -5  -6   1   -3.60    3.80
   4   6  -1    1.20    2.30
   4   6  -1   -4.30    3.10
   4   6  -1    4.40    2.40
  -4  -6   1   -1.40    2.80
  -4  -6   1    0.20    4.10
  -4  -6   1    3.80    3.20
   3   6  -1  439.26   14.40
   3   6  -1  457.65   14.80
  -3  -6   1  403.46   14.10
  -3  -6   1  428.66   22.10
  -3  -6   1  435.66   17.20
   2   6  -1    2.70    1.00
   2   6  -1    3.90    2.80
   2   6  -1    6.30    3.00
  -2  -6   1   -0.60    3.50
  -2  -6   1    2.80    4.70
  -2  -6   1    4.30    3.50
   1   6  -1   -0.20    1.80
   1   6  -1   -2.30    2.50
   1   6  -1   -2.90    3.90
   1   6  -1   -3.30    2.80
  -1  -6   1    0.60    2.80
  -1  -6   1    0.70    5.00
  -1  -6   1   -2.00    2.80
   0   6  -1   19.10    3.00
   0   6  -1   20.90    4.20
   0   6  -1   28.20    4.10
   0  -6   1   16.80    5.20
   0  -6   1   17.30    3.20
   0  -6   1   23.00    3.90
  -1   6  -1   20.50    3.40
  -1   6  -1   24.70    4.60
  -1   6  -1   22.20    4.10
   1  -6   1   18.00    5.70
   1  -6   1   19.70    3.10
   1  -6   1   28.70    4.50
  -2   6  -1   47.30    5.10
  -2   6  -1   42.20    4.70
  -2   6  -1   52.49    6.20
   2  -6   1   30.80    2.80
   2  -6   1   39.10    7.30
   2  -6   1   48.10    5.40
  -3   6  -1    0.10    3.50
  -3   6  -1    4.50    4.00
  -3   6  -1   -4.30    4.60
  -3   6  -1    1.00    3.50
   3  -6   1   -3.60    2.50
   3  -6   1   -3.00    5.10
  -4   6  -1    3.40    4.00
  -4   6  -1    1.60    5.00
  -4   6  -1   -3.70    3.90
  -4   6  -1    1.10    4.70
   4  -6   1    0.90    5.90
   4  -6   1    4.80    4.10
  -5   6  -1   15.60    5.50
  -5   6  -1   15.20    4.30
   5  -6   1   19.40    6.90
   5  -6   1   14.80    5.00
   7   5  -1    3.20    2.60
   7   5  -1    7.50    3.50
   7   5  -1    3.80    4.30
  -7  -5   1    4.10    5.20
  -7  -5   1   -2.80    5.00
   6   5  -1   41.40    4.00
   6   5  -1   34.20    4.60
   6   5  -1   40.60    4.40
  -6  -5   1   26.10    4.60
  -6  -5   1   36.00    6.00
   5   5  -1   11.90    2.70
   5   5  -1   13.30    3.10
   5   5  -1   12.70    3.40
  -5  -5   1   10.00    3.80
  -5  -5   1   20.10    4.90
   4   5  -1   19.40    2.20
   4   5  -1   16.70    2.90
   4   5  -1   20.70    2.90
   4   5  -1   15.80    3.00
  -4  -5   1   11.00    3.70
  -4  -5   1   13.80    3.40
  -4  -5   1   20.20    2.80
   3   5  -1   -0.10    1.90
   3   5  -1    2.70    1.70
   3   5  -1    2.40    1.90
   3   5  -1    2.80    2.30
  -3  -5   1   -0.80    2.40
  -3  -5   1   -1.30    3.20
  -3  -5   1   -0.20    3.20
   2   5  -1  102.39    5.30
   2   5  -1   95.69    3.40
   2   5  -1   99.49    5.60
   2   5  -1  101.19    4.90
  -2  -5   1   87.39    5.70
  -2  -5   1   96.89    4.50
  -2  -5   1   95.59    5.60
  -2  -5   1   93.89    8.90
   1   5  -1   92.29    5.10
   1   5  -1   95.19    4.50
   1   5  -1   75.59    4.90
   1   5  -1   86.99    4.80
  -1  -5   1   85.79    8.00
  -1  -5   1   77.89    5.00
  -1  -5   1   93.19    5.80
  -1  -5   1   86.99    4.20
   0   5  -1   66.09    4.40
   0   5  -1   75.79    4.70
   0   5  -1   67.59    5.60
   0   5  -1   75.69    4.80
   0  -5   1   74.69    3.90
   0  -5   1   58.09    5.50
   0  -5   1   64.39    7.80
   0  -5   1   70.99    4.80
  -1   5  -1   11.00    2.80
  -1   5  -1   16.30    3.80
  -1   5  -1   13.60    3.90
   1  -5   1   12.40    4.40
   1  -5   1   12.30    3.90
   1  -5   1   11.90    2.30
  -2   5  -1   55.39    4.80
  -2   5  -1   58.49    5.90
  -2   5  -1   67.09    5.90
  -2   5  -1   63.29    5.10
   2  -5   1   61.19    5.20
   2  -5   1   52.49    3.10
   2  -5   1   55.79    7.80
  -3   5  -1   72.99    6.60
  -3   5  -1   70.59    6.80
  -3   5  -1   75.99    6.40
  -3   5  -1   86.09    6.80
   3  -5   1   81.29    7.40
  -4   5  -1   77.49    7.10
  -4   5  -1   84.29    7.20
  -4   5  -1   54.59    5.80
  -4   5  -1   60.79    6.00
   4  -5   1   66.69    5.80
   4  -5   1   66.59    7.00
  -5   5  -1    4.60    4.60
  -5   5  -1    1.70    5.10
  -5   5  -1    8.10    4.80
   5  -5   1    9.30    4.40
   5  -5   1    6.00    5.50
  -6   5  -1    5.10    5.30
  -6   5  -1    2.10    5.30
   6  -5   1   12.10    6.10
   6  -5   1    5.10    5.70
   8   4  -1   -0.20    5.30
   8   4  -1    3.30    3.50
  -8  -4   1    6.50    5.40
  -8  -4   1    1.40    5.80
   7   4  -1    4.50    2.20
   7   4  -1    1.30    2.80
   7   4  -1    0.40    4.40
  -7  -4   1    7.00    3.90
  -7  -4   1    5.70    4.70
   6   4  -1    5.50    2.30
   6   4  -1    1.40    2.50
   6   4  -1    5.70    3.70
  -6  -4   1    1.60    3.00
  -6  -4   1    3.30    4.10
  -6  -4   1    6.60    4.30
   5   4  -1    2.70    1.70
   5   4  -1    4.50    2.30
   5   4  -1   -1.90    2.70
   5   4  -1    6.00    2.10
  -5  -4   1    0.80    2.90
  -5  -4   1    0.90    3.70
  -5  -4   1    5.90    2.00
   4   4  -1   61.49    2.60
   4   4  -1   68.79    4.10
   4   4  -1   58.69    3.80
   4   4  -1   67.69    3.70
   4   4  -1   72.29    4.10
  -4  -4   1   54.99    5.10
  -4  -4   1   61.59    2.90
  -4  -4   1   54.69    5.90
  -4  -4   1   67.09    3.60
   3   4  -1  177.38    5.90
   3   4  -1  174.78    6.10
   3   4  -1  175.78    6.60
   3   4  -1  179.18    6.50
  -3  -4   1  167.58    6.50
  -3  -4   1  178.98    8.50
  -3  -4   1  150.28    9.70
  -3  -4   1  173.28    6.70
   2   4  -1  313.87    9.90
   2   4  -1  284.57    9.80
   2   4  -1  296.57    9.90
  -2  -4   1  304.67   11.40
  -2  -4   1  304.47   10.00
  -2  -4   1  311.17   10.00
  -2  -4   1  276.17   14.70
   1   4  -1  356.96   11.90
   1   4  -1  355.56   12.40
   1   4  -1  355.06   11.50
   1   4  -1  369.86   11.50
   1   4  -1  358.76   11.80
  -1  -4   1  341.37   17.10
  -1  -4   1  364.96   11.80
  -1  -4   1  367.46   12.90
  -1  -4   1  381.46   11.60
   0   4  -1  188.88    6.90
   0   4  -1  170.58    7.30
   0   4  -1  187.88    6.90
   0   4  -1  178.18    7.30
   0   4  -1  183.38    7.30
   0  -4   1  179.98    7.30
   0  -4   1  186.48    6.60
   0  -4   1  164.68    6.90
   0  -4   1  173.08    7.10
   0  -4   1  183.08   10.80
  -1   4  -1   11.70    2.30
  -1   4  -1   15.10    2.50
  -1   4  -1   12.80    3.00
  -1   4  -1   13.00    2.60
   1  -4   1    9.50    1.90
   1  -4   1   15.40    3.70
   1  -4   1   12.80    2.70
   1  -4   1   11.10    2.50
  -2   4  -1  128.69    5.80
  -2   4  -1  128.29    6.60
  -2   4  -1  121.79    6.50
  -2   4  -1  122.49    6.60
   2  -4   1  121.79    4.20
   2  -4   1  118.69    6.00
   2  -4   1  130.19   10.50
  -3   4  -1    0.10    3.20
  -3   4  -1    4.10    2.90
  -3   4  -1   -3.80    2.30
  -3   4  -1    4.40    2.90
   3  -4   1    1.30    3.50
  -4   4  -1   14.60    4.00
  -4   4  -1   12.70    3.80
  -4   4  -1   24.00    3.90
  -4   4  -1   13.20    3.80
   4  -4   1   19.50    4.60
   4  -4   1   15.50    3.70
  -5   4  -1   23.60    4.80
  -5   4  -1   19.00    3.90
  -5   4  -1   24.10    5.10
   5  -4   1   29.50    5.40
   5  -4   1   31.00    5.50
  -6   4  -1   37.60    5.40
  -6   4  -1   33.40    6.10
   6  -4   1   42.20    7.00
   6  -4   1   39.00    6.70
   8   3  -1    3.40    4.20
  -8  -3   1   11.10    5.00
  -8  -3   1   17.00    4.80
   7   3  -1   25.80    3.10
   7   3  -1   23.60    2.60
   7   3  -1   21.70    5.30
  -7  -3   1   23.40    5.00
  -7  -3   1   30.80    4.90
   6   3  -1   44.80    3.40
   6   3  -1   55.79    5.50
   6   3  -1   57.69    3.70
  -6  -3   1   67.39    6.80
  -6  -3   1   54.69    5.90
  -6  -3   1   51.09    5.70
   5   3  -1   23.40    2.60
   5   3  -1   19.80    3.50
   5   3  -1   22.70    2.30
   5   3  -1   26.20    2.40
  -5  -3   1   23.30    2.10
  -5  -3   1   17.20    3.00
  -5  -3   1   20.00    3.30
   4   3  -1    2.00    1.70
   4   3  -1    4.60    2.30
   4   3  -1    3.00    1.80
   4   3  -1    4.00    1.60
  -4  -3   1    2.70    1.90
  -4  -3   1    6.20    1.70
  -4  -3   1    5.50    2.20
   3   3  -1  182.98    8.70
   3   3  -1  175.18    6.00
   3   3  -1  179.28    5.90
   3   3  -1  177.38    6.00
  -3  -3   1  169.28    6.70
  -3  -3   1  177.88    5.90
  -3  -3   1  170.58    7.90
  -3  -3   1  176.68    6.00
  -3  -3   1  170.38    9.00
   2   3  -1  108.09    3.70
   2   3  -1  104.09    4.00
   2   3  -1  106.09    4.30
   2   3  -1  121.69    6.70
  -2  -3   1  108.59    4.20
  -2  -3   1  103.29    4.30
  -2  -3   1   99.49    5.50
  -2  -3   1  110.09    4.30
  -2  -3   1   95.09    6.50
   1   3  -1    3.10    1.60
   1   3  -1    3.40    1.40
   1   3  -1    3.70    1.40
   1   3  -1    2.60    0.90
   1   3  -1    6.90    1.80
  -1  -3   1    3.40    1.40
  -1  -3   1    4.10    1.80
  -1  -3   1    3.20    1.10
  -1  -3   1    3.60    1.80
  -1  -3   1    3.80    1.60
   0   3  -1   29.50    2.30
   0   3  -1   20.80    2.90
   0   3  -1   30.00    2.90
   0   3  -1   27.30    2.40
   0  -3   1   31.80    2.10
   0  -3   1   30.00    2.80
   0  -3   1   33.70    2.80
   0  -3   1   32.80    4.20
   0  -3   1   23.00    2.30
   0  -3   1   31.60    2.90
  -1   3  -1    6.10    2.10
  -1   3  -1    7.70    1.70
  -1   3  -1    7.60    1.80
  -1   3  -1    5.80    1.70
  -1   3  -1    3.60    1.80
  -1   3  -1    6.70    2.30
   1  -3   1   10.50    2.20
   1  -3   1    6.70    1.80
   1  -3   1    6.50    1.20
   1  -3   1    9.70    3.10
   1  -3   1    5.20    2.30
  -2   3  -1  666.73   20.80
  -2   3  -1  655.73   20.70
  -2   3  -1  666.83   19.70
  -2   3  -1  674.43   20.70
   2  -3   1  687.93   20.70
   2  -3   1  671.73   19.70
   2  -3   1  631.74   19.60
   2  -3   1  697.43   28.60
  -3   3  -1  197.28    8.10
  -3   3  -1  184.78    7.80
  -3   3  -1  201.78    7.80
  -3   3  -1  200.58    8.30
   3  -3   1  181.48    7.80
   3  -3   1  195.38    7.80
  -4   3  -1   36.80    4.10
  -4   3  -1   42.50    4.40
  -4   3  -1   39.40    4.20
  -4   3  -1   38.90    4.50
   4  -3   1   44.80    4.40
   4  -3   1   44.60    4.00
   4  -3   1   40.80    4.60
  -5   3  -1    0.40    3.60
  -5   3  -1   -4.80    2.70
  -5   3  -1    2.20    3.20
  -5   3  -1   -0.40    3.80
   5  -3   1   -1.20    3.60
   5  -3   1    3.10    4.10
  -6   3  -1    6.90    3.70
  -6   3  -1    8.60    4.40
   6  -3   1    3.80    5.50
   6  -3   1   12.50    4.40
  -7   3  -1    3.70    5.50
  -7   3  -1   -9.10    4.60
   7  -3   1   -2.70    6.50
   7  -3   1   -2.80    4.90
   8   2  -1   -1.00    4.20
  -8  -2   1    7.50    5.60
  -8  -2   1   -0.70    4.50
   7   2  -1    8.00    2.40
   7   2  -1    7.50    2.40
   7   2  -1   -3.50    4.60
  -7  -2   1    6.10    3.70
  -7  -2   1    7.80    4.80
   6   2  -1   22.90    2.50
   6   2  -1   30.20    4.30
   6   2  -1   23.80    2.50
  -6  -2   1   20.60    4.40
  -6  -2   1   19.20    2.90
  -6  -2   1   23.10    3.90
   5   2  -1   95.79    4.00
   5   2  -1   89.39    5.50
   5   2  -1   92.99    4.10
  -5  -2   1   97.79    6.30
  -5  -2   1   88.09    3.70
  -5  -2   1  101.19    6.00
  -5  -2   1   94.59    5.80
   4   2  -1   11.70    1.70
   4   2  -1   14.30    1.60
   4   2  -1   12.90    1.80
   4   2  -1    8.90    2.50
  -4  -2   1   15.40    1.60
  -4  -2   1   10.90    1.90
  -4  -2   1   11.50    2.70
  -4  -2   1   10.90    2.10
  -4  -2   1   10.80    1.60
   3   2  -1  350.96   10.40
   3   2  -1  358.66    9.90
   3   2  -1  359.66   10.50
   3   2  -1  353.66   10.40
  -3  -2   1  376.86   15.20
  -3  -2   1  366.06   10.40
  -3  -2   1  365.76   10.50
  -3  -2   1  362.86   12.80
   2   2  -1  130.29    5.90
   2   2  -1  118.29    5.20
   2   2  -1  121.09    4.00
   2   2  -1  116.79    4.10
   2   2  -1  120.19    4.10
  -2  -2   1  112.29    4.00
  -2  -2   1  115.39    6.10
  -2  -2   1  121.39    5.10
  -2  -2   1  112.69    4.10
   1   2  -1 9826.02  254.17
   1   2  -1 9430.56  272.17
   1   2  -1 9999.00  253.47
   1   2  -1 8382.76  365.76
   1   2  -1 9852.81  285.77
  -1  -2   1 9491.05  253.57
  -1  -2   1 9800.02  253.27
  -1  -2   1 9436.56  285.97
  -1  -2   1 9186.28  271.37
   0   2  -1    6.60    1.40
   0   2  -1    6.80    1.20
   0   2  -1    9.70    1.50
   0   2  -1    6.60    1.00
   0   2  -1    7.70    1.20
   0  -2   1    8.20    1.10
   0  -2   1    8.10    1.20
   0  -2   1    9.80    2.10
   0  -2   1    7.50    1.40
   0  -2   1    8.80    1.40
  -1   2  -1   72.69    3.50
  -1   2  -1   74.99    3.50
  -1   2  -1   78.39    4.80
  -1   2  -1   73.79    3.50
  -1   2  -1   76.29    3.40
   1  -2   1   79.59    3.40
   1  -2   1   73.79    3.20
   1  -2   1   75.59    2.80
   1  -2   1   76.39    5.30
   1  -2   1   72.89    3.30
  -2   2  -1   55.89    3.10
  -2   2  -1   65.59    3.80
  -2   2  -1   54.99    3.50
  -2   2  -1   62.59    3.20
  -2   2  -1   55.99    4.50
  -2   2  -1   60.49    3.40
   2  -2   1   51.69    3.00
   2  -2   1   63.29    3.20
   2  -2   1   52.09    3.40
  -3   2  -1    9.60    2.40
  -3   2  -1   12.60    2.20
  -3   2  -1   10.70    2.30
  -3   2  -1   12.10    2.50
   3  -2   1   13.80    2.00
   3  -2   1   15.80    2.40
   3  -2   1   10.80    2.40
  -4   2  -1   86.79    5.50
  -4   2  -1   88.59    5.20
  -4   2  -1   92.79    5.10
   4  -2   1   94.09    4.80
   4  -2   1   90.99    5.60
   4  -2   1   89.49    5.10
  -5   2  -1   64.69    4.90
  -5   2  -1   76.79    4.60
  -5   2  -1   61.79    5.00
   5  -2   1   73.49    6.40
   5  -2   1   76.29    5.80
  -6   2  -1   25.90    4.70
   6  -2   1   12.20    5.60
   6  -2   1   26.60    4.10
  -7   2  -1   21.10    4.90
  -7   2  -1   20.20    5.30
   7  -2   1   30.10    4.90
   7  -2   1   17.00    6.70
   8   1  -1    5.50    6.20
  -8  -1   1    8.20    4.30
   7   1  -1   30.80    6.20
   7   1  -1   45.30    4.30
  -7  -1   1   38.30    5.90
  -7  -1   1   37.20    4.70
   6   1  -1   36.90    5.20
   6   1  -1   45.70    2.90
  -6  -1   1   38.30    4.40
  -6  -1   1   50.69    5.00
  -6  -1   1   50.69    4.40
   5   1  -1   -1.00    1.60
   5   1  -1    1.50    3.00
   5   1  -1   -0.60    1.20
   5   1  -1    1.90    1.80
  -5  -1   1   -0.60    2.30
  -5  -1   1    1.10    2.20
  -5  -1   1    2.00    1.50
  -5  -1   1   -0.30    1.50
   4   1  -1  373.66   11.10
   4   1  -1  384.46   10.20
   4   1  -1  387.56   11.60
   4   1  -1  368.26   11.00
  -4  -1   1  391.26   15.60
  -4  -1   1  381.66   11.00
  -4  -1   1  377.96   13.10
  -4  -1   1  372.26   13.20
   3   1  -1  173.78    6.90
   3   1  -1  172.98    5.50
   3   1  -1  178.88    5.00
   3   1  -1  174.28    5.90
   3   1  -1  173.18    5.50
  -3  -1   1  168.08    6.60
  -3  -1   1  184.48    7.70
  -3  -1   1  170.98    6.90
  -3  -1   1  175.58    5.50
  -3  -1   1  181.78    5.40
   2   1  -1  521.05   14.40
   2   1  -1  512.25   13.40
   2   1  -1  513.75   14.50
   2   1  -1  531.45   16.80
  -2  -1   1  531.75   16.80
  -2  -1   1  543.15   20.60
  -2  -1   1  530.55   14.40
  -2  -1   1  530.75   14.50
   1   1  -1  755.12   20.10
   1   1  -1  745.53   22.80
   1   1  -1  751.82   20.10
   1   1  -1  771.22   29.00
  -1  -1   1  721.23   29.00
  -1  -1   1  700.73   23.50
  -1  -1   1  768.62   22.90
  -1  -1   1  748.63   20.10
  -1  -1   1  763.22   20.20
   0   1  -1    3.40    0.70
   0   1  -1    3.50    0.80
   0   1  -1    3.80    0.70
   0   1  -1    2.60    0.70
   0   1  -1    2.80    0.50
   0  -1   1    2.80    0.60
   0  -1   1    3.40    1.00
   0  -1   1    4.40    0.70
   0  -1   1    2.30    0.80
  -1   1  -1 1074.89   31.00
  -1   1  -1 1091.39   28.90
  -1   1  -1 1069.09   28.90
  -1   1  -1 1068.09   41.50
  -1   1  -1 1084.49   30.60
  -1   1  -1 1034.20   31.80
   1  -1   1 1055.39   28.90
   1  -1   1 1086.89   30.60
   1  -1   1 1078.99   28.90
  -2   1  -1  946.51   27.70
  -2   1  -1  946.01   27.10
  -2   1  -1  949.31   25.30
  -2   1  -1  915.51   25.30
  -2   1  -1  925.91   26.80
  -2   1  -1  936.51   36.50
   2  -1   1  911.41   27.00
   2  -1   1  924.71   25.30
   2  -1   1  885.51   25.30
  -3   1  -1  159.18    8.00
  -3   1  -1  159.88    6.20
  -3   1  -1  162.38    5.30
  -3   1  -1  149.69    5.40
  -3   1  -1  154.78    5.30
  -3   1  -1  150.08    5.80
   3  -1   1  155.38    5.40
   3  -1   1  155.48    5.80
   3  -1   1  163.98    5.80
   3  -1   1  150.28    5.70
  -4   1  -1    3.60    1.80
  -4   1  -1    2.70    1.20
  -4   1  -1    2.60    2.00
  -4   1  -1    3.60    2.10
  -4   1  -1    4.30    2.20
   4  -1   1    4.00    2.30
   4  -1   1    9.70    2.40
   4  -1   1    3.20    1.80
  -5   1  -1   51.39    5.20
  -5   1  -1   47.60    3.10
  -5   1  -1   45.00    3.50
   5  -1   1   50.49    3.60
   5  -1   1   45.80    5.10
   5  -1   1   44.10    4.10
  -6   1  -1   65.59    5.50
   6  -1   1   84.19    7.60
   6  -1   1   73.99    5.60
  -7   1  -1   37.40    5.50
   7  -1   1   33.90    4.40
   7  -1   1   37.70    7.00
  -8   1  -1   -6.10    4.90
   8  -1   1    9.80    7.60
   8   0  -1    3.70    4.80
  -8   0   1   -0.40    5.20
   7   0  -1   -1.70    3.70
   7   0  -1    4.50    3.30
  -7   0   1   -2.60    4.40
   6   0  -1   13.40    3.00
   6   0  -1   16.40    3.90
  -6   0   1   10.50    4.00
  -6   0   1   13.80    2.70
   5   0  -1  212.28    6.10
   5   0  -1  209.58    7.20
   5   0  -1  205.78    8.80
   5   0  -1  205.48    7.40
  -5   0   1  205.88    7.20
  -5   0   1  204.08   10.00
  -5   0   1  210.78    9.30
  -5   0   1  211.78    8.20
   4   0  -1   15.10    2.10
   4   0  -1   17.00    1.40
   4   0  -1   14.40    1.80
  -4   0   1   17.60    2.00
  -4   0   1   16.80    2.40
  -4   0   1   12.10    1.90
   3   0  -1  366.96    9.40
   3   0  -1  367.16   12.00
   3   0  -1  356.66   11.70
   3   0  -1  352.46   10.50
   3   0  -1  358.76   10.50
  -3   0   1  371.16   10.60
  -3   0   1  357.56   11.90
  -3   0   1  362.26   10.30
  -3   0   1  357.96   11.80
   2   0  -1  683.43   20.00
   2   0  -1  672.63   18.40
   2   0  -1  694.23   20.80
   2   0  -1  663.03   18.40
  -2   0   1  665.23   18.40
  -2   0   1  676.23   20.70
  -2   0   1  665.13   18.30
  -2   0   1  674.63   20.00
   1   0  -1 2168.48   55.79
   1   0  -1 2125.79   63.89
   1   0  -1 2047.60   55.69
   1   0  -1 2158.68   59.69
  -1   0   1 2097.59   55.69
  -1   0   1 2214.48   59.69
  -1   0   1 1853.11   66.19
  -1   0   1 2192.98   55.79
  -1   0   1 2115.49   63.79
   0   0  -1   -0.70    0.10
   0   0  -1   -0.70    0.10
   0   0  -1   -0.80    0.10
   0   0  -1   -0.70    0.10
   0   0  -1   -0.60    0.10
   0   0  -1   -0.70    0.10
   0   0   1   -0.70    0.10
   0   0   1   -0.70    0.10
   0   0   1   -0.70    0.10
   0   0   1   -0.60    0.10
   0   0   1   -0.60    0.10
  -1   0  -1   14.90    1.00
  -1   0  -1   14.70    0.70
  -1   0  -1   13.90    0.70
   1   0   1   20.10    0.80
  -2   0  -1    6.90    1.00
  -2   0  -1    6.50    0.70
  -2   0  -1    5.40    1.10
  -2   0  -1    6.70    0.80
   2   0   1    7.10    0.90
   2   0   1    6.40    0.80
   2   0   1    9.40    1.40
  -3   0  -1  147.69    5.70
  -3   0  -1  140.79    4.70
  -3   0  -1  146.79    5.00
  -3   0  -1  144.89    4.40
  -3   0  -1  146.89    5.50
   3   0   1  144.09    4.70
   3   0   1  146.09    4.30
   3   0   1  142.09    5.30
  -4   0  -1  272.57    9.80
  -4   0  -1  283.77    9.80
  -4   0  -1  288.67    8.90
  -4   0  -1  283.47    8.10
  -4   0  -1  263.97    8.30
   4   0   1  269.37    8.50
   4   0   1  279.77    9.30
   4   0   1  283.47    7.90
  -5   0  -1  122.69    5.80
  -5   0  -1  122.69    4.70
  -5   0  -1  125.69    6.80
   5   0   1  122.79    4.50
   5   0   1  127.79    5.20
   5   0   1  117.69    6.10
  -6   0  -1    2.70    2.20
  -6   0  -1   -1.60    3.30
   6   0   1    1.80    2.40
   6   0   1    2.00    4.20
  -7   0  -1    3.00    4.20
   7   0   1    8.20    5.40
   7   0   1    2.00    2.70
  -8   0  -1    1.90    4.60
   8   0   1    2.60    4.80
   8  -1  -1   16.60    8.10
   8  -1  -1   26.00    4.80
  -8   1   1   13.40    5.90
   7  -1  -1   22.10    5.40
   7  -1  -1   20.20    4.40
  -7   1   1   17.30    4.20
   6  -1  -1    3.40    4.70
   6  -1  -1    4.70    3.00
  -6   1   1    6.20    4.00
   5  -1  -1   40.90    4.60
   5  -1  -1   44.20    4.00
   5  -1  -1   36.90    3.30
  -5   1   1   33.30    4.20
  -5   1   1   33.20    4.40
  -5   1   1   35.60    3.20
  -5   1   1   37.30    3.40
   4  -1  -1  181.18    6.60
   4  -1  -1  177.58    6.70
  -4   1   1  186.08    8.90
  -4   1   1  181.38    6.70
  -4   1   1  170.98    7.50
  -4   1   1  187.58    6.60
   3  -1  -1  107.29    4.40
   3  -1  -1  104.99    4.40
   3  -1  -1  102.39    4.60
  -3   1   1  112.39    4.10
  -3   1   1  107.59    4.90
  -3   1   1  107.79    4.40
  -3   1   1  111.29    4.20
  -3   1   1  109.09    5.70
   2  -1  -1  341.97   10.30
   2  -1  -1  330.37   10.40
   2  -1  -1  324.57    9.80
   2  -1  -1  340.37    9.80
  -2   1   1  325.87   13.60
  -2   1   1  335.07    9.60
  -2   1   1  347.37   10.30
  -2   1   1  340.27   10.60
  -2   1   1  338.17   10.30
  -2   1   1  276.27    9.70
   1  -1  -1   28.70    2.60
   1  -1  -1   22.40    1.80
   1  -1  -1   23.80    1.30
   1  -1  -1   19.00    1.70
   1  -1  -1   22.50    1.80
  -1   1   1   21.50    1.70
  -1   1   1   18.50    1.60
  -1   1   1   26.00    2.40
  -1   1   1   18.10    1.40
  -1   1   1   23.50    2.10
  -1   1   1   18.60    1.80
   0  -1  -1  245.18    8.10
   0  -1  -1  269.27    7.50
   0  -1  -1  256.77    7.50
   0  -1  -1  265.77    8.90
   0  -1  -1  271.07   10.80
   0   1   1  281.07    8.90
   0   1   1  265.77    7.50
   0   1   1  257.47    8.10
   0   1   1  271.87   10.80
   0   1   1  259.57    7.50
  -1  -1  -1  182.58    7.50
  -1  -1  -1  177.78    6.00
  -1  -1  -1  172.48    5.00
  -1  -1  -1  174.28    5.00
   1   1   1  177.78    5.00
  -2  -1  -1  141.89    4.00
  -2  -1  -1  145.09    4.00
   2   1   1  142.99    4.70
   2   1   1  144.09    4.00
   2   1   1  142.39    4.00
   2   1   1  147.19    4.20
  -3  -1  -1  130.99    3.70
  -3  -1  -1  127.99    3.80
  -3  -1  -1  126.79    5.50
   3   1   1  132.89    4.10
   3   1   1  129.39    3.90
   3   1   1  128.89    4.80
   3   1   1  127.09    3.80
  -4  -1  -1   81.59    4.80
  -4  -1  -1   97.69    5.20
  -4  -1  -1   94.19    3.10
  -4  -1  -1   94.99    2.90
   4   1   1   90.29    4.40
   4   1   1   90.89    3.20
   4   1   1   87.49    3.40
  -5  -1  -1   55.99    2.20
  -5  -1  -1   56.29    4.40
  -5  -1  -1   57.29    2.40
  -5  -1  -1   56.09    4.40
   5   1   1   56.49    5.00
   5   1   1   59.39    3.00
   5   1   1   56.69    2.70
   5   1   1   55.99    2.90
  -6  -1  -1   90.19    5.90
  -6  -1  -1   92.59    7.10
   6   1   1   96.39    4.30
   6   1   1  102.79    7.20
   6   1   1   94.29    4.10
   6   1   1   91.69    3.70
  -7  -1  -1   20.50    3.60
  -7  -1  -1   14.00    4.60
   7   1   1   19.90    2.10
   7   1   1   21.80    3.00
   7   1   1   19.80    5.50
  -8  -1  -1    0.70    3.60
   8   1   1    1.60    5.80
   7  -2  -1   21.10    5.20
   7  -2  -1   15.60    7.40
  -7   2   1   12.80    5.30
   6  -2  -1   50.69    5.50
   6  -2  -1   33.60    5.70
  -6   2   1   35.10    5.30
   5  -2  -1  165.18    7.60
  -5   2   1  169.18    9.00
  -5   2   1  172.38    7.30
   4  -2  -1    2.30    2.50
   4  -2  -1    1.80    2.10
  -4   2   1   -1.00    2.70
  -4   2   1    2.00    1.90
  -4   2   1    1.70    2.60
   3  -2  -1   18.70    2.40
   3  -2  -1   28.20    2.90
  -3   2   1   20.50    2.70
  -3   2   1   18.40    2.60
  -3   2   1   20.20    2.50
  -3   2   1   26.20    3.10
   2  -2  -1   30.60    3.80
   2  -2  -1   30.60    2.80
   2  -2  -1   32.10    1.30
   2  -2  -1   33.00    2.40
   2  -2  -1   33.10    2.90
  -2   2   1   33.40    2.50
  -2   2   1   30.60    3.20
  -2   2   1   29.70    2.90
  -2   2   1   32.20    3.00
  -2   2   1   32.90    3.20
  -2   2   1   26.90    2.50
   1  -2  -1  961.60   28.00
   1  -2  -1  986.50   26.40
   1  -2  -1  914.11   37.90
   1  -2  -1  945.81   26.20
  -1   2   1  925.71   31.10
  -1   2   1  908.81   37.60
  -1   2   1  996.30   26.30
  -1   2   1  968.90   28.10
  -1   2   1  951.50   26.40
  -1   2   1  955.60   27.70
   0  -2  -1  429.76   14.90
   0  -2  -1  427.96   13.70
   0  -2  -1  449.46   12.90
   0  -2  -1  395.56   18.30
   0  -2  -1  438.56   12.70
   0  -2  -1  455.15   12.80
   0   2   1  445.36   13.00
   0   2   1  454.35   13.30
   0   2   1  459.25   12.70
   0   2   1  445.36   14.90
   0   2   1  458.35   18.40
   0   2   1  449.06   12.70
  -1  -2  -1 3535.05   93.49
  -1  -2  -1 3386.26  101.39
  -1  -2  -1 3534.15   93.49
  -1  -2  -1 3396.66  111.99
  -1  -2  -1 3522.95  134.79
   1   2   1 3595.94   93.49
   1   2   1 3802.12  134.89
   1   2   1 3551.74   98.79
   1   2   1 3562.34   93.49
   1   2   1 3415.96  111.59
  -2  -2  -1    3.90    0.80
  -2  -2  -1    2.80    1.30
  -2  -2  -1    5.00    0.90
  -2  -2  -1    6.20    1.00
   2   2   1    5.30    1.00
   2   2   1    5.40    1.30
   2   2   1    5.50    1.00
   2   2   1    5.50    1.10
  -3  -2  -1  298.07    8.30
  -3  -2  -1  305.37   12.80
  -3  -2  -1  294.87    8.20
  -3  -2  -1  283.27   10.70
   3   2   1  283.37    8.80
   3   2   1  295.67    8.30
   3   2   1  294.77    8.20
   3   2   1  290.87    8.20
  -4  -2  -1  135.59    4.00
  -4  -2  -1  144.09    7.30
  -4  -2  -1  136.39    4.00
  -4  -2  -1  135.59    6.70
   4   2   1  130.29    4.20
   4   2   1  138.79    5.90
   4   2   1  137.09    4.30
   4   2   1  134.59    4.70
  -5  -2  -1   34.40    1.20
  -5  -2  -1   35.70    3.80
  -5  -2  -1   38.70    1.30
  -5  -2  -1   36.60    4.00
  -5  -2  -1   38.80    4.60
   5   2   1   35.40    1.90
   5   2   1   39.90    4.00
   5   2   1   39.60    2.10
   5   2   1   36.20    2.70
  -6  -2  -1    4.90    2.60
  -6  -2  -1   -1.90    2.90
  -6  -2  -1    7.60    3.70
   6   2   1    2.70    1.00
   6   2   1    6.10    2.30
   6   2   1    5.10    1.20
   6   2   1    2.20    4.10
  -7  -2  -1   23.10    4.30
  -7  -2  -1   16.30    4.30
   7   2   1   22.10    3.00
   7   2   1   30.00    6.00
  -8  -2  -1    7.50    5.10
  -8  -2  -1   13.20    4.40
   8   2   1   12.40    4.90
   7  -3  -1   12.50    7.40
   7  -3  -1    6.30    4.60
  -7   3   1    1.40    4.00
  -7   3   1   -2.90    4.90
   6  -3  -1    3.60    4.40
   6  -3  -1    4.60    5.70
  -6   3   1   -5.00    4.40
   5  -3  -1   33.90    4.80
  -5   3   1   32.60    4.30
  -5   3   1   24.80    4.70
   4  -3  -1  109.59    6.60
   4  -3  -1  117.29    5.70
  -4   3   1  122.89    7.40
  -4   3   1  114.19    6.40
   3  -3  -1   73.59    4.80
   3  -3  -1   72.89    5.10
  -3   3   1   72.39    5.00
  -3   3   1   70.59    4.90
  -3   3   1   68.89    4.70
   2  -3  -1   22.60    1.10
   2  -3  -1   21.20    3.00
   2  -3  -1   17.10    3.50
   2  -3  -1   23.40    1.20
   2  -3  -1   24.00    3.00
  -2   3   1   25.60    3.30
  -2   3   1   19.80    2.50
  -2   3   1   26.10    2.80
  -2   3   1   19.30    2.40
  -2   3   1   18.50    2.80
   1  -3  -1   22.00    2.40
   1  -3  -1   13.50    3.20
   1  -3  -1   20.60    2.60
   1  -3  -1   18.10    2.20
  -1   3   1   14.30    1.80
  -1   3   1   13.50    2.10
  -1   3   1   18.00    2.20
  -1   3   1   18.80    2.30
  -1   3   1   13.30    2.50
  -1   3   1   20.30    2.30
  -1   3   1   19.60    2.40
   0  -3  -1  553.44   16.10
   0  -3  -1  496.65   23.00
   0  -3  -1  535.65   15.90
   0  -3  -1  550.64   15.90
   0  -3  -1  536.05   17.10
   0   3   1  548.85   16.60
   0   3   1  562.74   16.20
   0   3   1  558.34   23.20
   0   3   1  541.15   18.60
   0   3   1  564.14   16.00
   0   3   1  540.15   16.00
  -1  -3  -1  729.53   24.80
  -1  -3  -1  737.13   31.20
  -1  -3  -1  753.22   22.20
  -1  -3  -1  736.33   21.50
  -1  -3  -1  762.22   21.50
   1   3   1  780.92   22.50
   1   3   1  765.92   21.50
   1   3   1  767.12   21.60
   1   3   1  797.02   24.80
   1   3   1  838.52   31.60
   1   3   1  780.22   22.40
  -2  -3  -1  252.67    9.50
  -2  -3  -1  258.57    8.00
  -2  -3  -1  258.27   12.00
  -2  -3  -1  261.47    8.00
  -2  -3  -1  232.38    8.60
  -2  -3  -1  251.47    8.20
   2   3   1  278.67   11.90
   2   3   1  263.07    8.10
   2   3   1  256.97    8.10
   2   3   1  259.27    8.00
   2   3   1  266.77    7.60
  -3  -3  -1    0.60    1.30
  -3  -3  -1    2.90    1.20
  -3  -3  -1    1.20    1.00
  -3  -3  -1    2.20    1.30
  -3  -3  -1    2.80    1.70
   3   3   1   -1.10    1.30
   3   3   1    2.20    1.70
   3   3   1    2.20    1.30
   3   3   1    1.30    1.30
  -4  -3  -1  104.69    6.80
  -4  -3  -1  101.89    6.50
  -4  -3  -1  110.69    3.90
  -4  -3  -1  110.79    3.80
   4   3   1  107.29    4.40
   4   3   1  103.19    4.80
   4   3   1  107.59    3.90
  -5  -3  -1   43.20    5.50
  -5  -3  -1   44.10    1.90
  -5  -3  -1   40.10    1.90
  -5  -3  -1   33.40    4.50
   5   3   1   47.00    4.50
   5   3   1   42.20    2.40
   5   3   1   42.30    2.30
   5   3   1   48.70    3.30
  -6  -3  -1   20.80    4.30
  -6  -3  -1   17.30    4.40
  -6  -3  -1   21.70    3.50
   6   3   1   26.00    1.80
   6   3   1   26.30    1.80
   6   3   1   28.30    3.10
   6   3   1   22.60    4.60
  -7  -3  -1    0.50    3.00
  -7  -3  -1    3.80    4.40
  -7  -3  -1   -1.50    3.80
   7   3   1   -1.70    2.50
   7   3   1    0.10    3.40
  -8  -3  -1    2.90    4.50
  -8  -3  -1   -0.90    5.00
   8   3   1   -0.70    5.30
   8   3   1    7.70    3.50
   6  -4  -1   17.50    5.60
   6  -4  -1    5.70    4.60
  -6   4   1   15.00    5.70
  -6   4   1    5.80    5.00
   5  -4  -1   11.00    4.90
  -5   4   1   14.00    4.20
  -5   4   1   12.30    3.50
  -5   4   1   14.20    4.80
   4  -4  -1    2.00    4.10
  -4   4   1    3.80    3.60
  -4   4   1    1.70    2.40
  -4   4   1    8.20    3.80
   3  -4  -1   75.09    6.20
   3  -4  -1   90.59    9.10
  -3   4   1   75.39    6.10
  -3   4   1   95.89    6.30
  -3   4   1   91.89    5.70
  -3   4   1   89.39    6.70
   2  -4  -1   79.39    3.10
   2  -4  -1   77.49    4.90
   2  -4  -1   70.39    8.50
  -2   4   1   82.99    5.90
  -2   4   1   83.19    5.70
  -2   4   1   74.19    5.40
  -2   4   1   79.09    4.60
   1  -4  -1  644.74   20.10
   1  -4  -1  612.64   28.50
   1  -4  -1  635.04   19.40
  -1   4   1  656.33   20.20
  -1   4   1  656.23   19.60
  -1   4   1  646.64   19.50
  -1   4   1  628.74   20.70
   0  -4  -1   22.40    4.20
   0  -4  -1   27.00    2.80
   0  -4  -1   37.30    3.20
   0   4   1   29.20    3.20
   0   4   1   33.10    3.40
   0   4   1   31.60    2.60
   0   4   1   35.00    2.90
   0   4   1   26.00    3.40
  -1  -4  -1   58.99    4.20
  -1  -4  -1   57.59    6.20
  -1  -4  -1   52.39    3.50
  -1  -4  -1   60.09    2.70
  -1  -4  -1   59.79    3.70
   1   4   1   61.59    3.90
   1   4   1   64.89    3.50
   1   4   1   64.09    4.30
   1   4   1   59.59    3.70
   1   4   1   56.29    3.20
  -2  -4  -1   70.09    3.30
  -2  -4  -1   61.69    5.40
  -2  -4  -1   64.99    3.10
  -2  -4  -1   72.69    4.00
  -2  -4  -1   59.79    5.00
   2   4   1   71.79    4.10
   2   4   1   70.89    3.20
   2   4   1   50.69    3.70
   2   4   1   68.39    3.00
   2   4   1   73.59    4.00
  -3  -4  -1  125.49    6.60
  -3  -4  -1  134.29    5.20
  -3  -4  -1  114.89    8.10
  -3  -4  -1  132.09    5.00
  -3  -4  -1  132.09    5.20
   3   4   1  134.79    5.20
   3   4   1  125.79    5.30
   3   4   1  139.79    5.20
   3   4   1  130.79    5.20
  -4  -4  -1   47.50    5.60
  -4  -4  -1   31.60    3.90
  -4  -4  -1   41.10    2.80
  -4  -4  -1   39.20    2.60
   4   4   1   36.80    2.90
   4   4   1   37.60    2.90
   4   4   1   37.80    3.60
   4   4   1   34.40    2.90
  -5  -4  -1    3.00    2.90
  -5  -4  -1    1.00    3.60
  -5  -4  -1    1.00    1.70
  -5  -4  -1    2.80    1.40
   5   4   1    1.80    1.70
   5   4   1    2.60    1.80
   5   4   1    2.90    3.00
   5   4   1    4.40    2.50
  -6  -4  -1    7.30    2.50
  -6  -4  -1    6.30    3.30
  -6  -4  -1    7.50    3.30
   6   4   1    5.40    3.70
   6   4   1    8.40    1.60
   6   4   1   13.30    3.00
  -7  -4  -1   48.30    5.60
  -7  -4  -1   50.39    6.40
  -7  -4  -1   59.59    7.10
   7   4   1   50.19    4.50
   7   4   1   42.20    6.00
  -8  -4  -1    0.50    5.10
  -8  -4  -1    4.80    5.10
   8   4   1    1.60    3.40
   8   4   1    0.20    5.40
   6  -5  -1   13.30    6.20
   6  -5  -1   11.30    6.30
  -6   5   1    7.90    5.90
  -6   5   1   10.00    5.30
   5  -5  -1   31.40    6.20
  -5   5   1   28.20    6.00
  -5   5   1   29.10    5.40
   4  -5  -1   -4.30    3.20
  -4   5   1    2.70    3.30
  -4   5   1    6.10    3.70
  -4   5   1   -3.50    3.00
   3  -5  -1   -3.30    5.10
   3  -5  -1   -0.90    4.20
  -3   5   1    9.80    4.40
  -3   5   1    3.20    2.30
  -3   5   1    0.20    3.20
  -3   5   1    3.00    3.90
   2  -5  -1   -3.50    2.60
   2  -5  -1   -2.80    3.50
   2  -5  -1    1.90    1.30
  -2   5   1    3.90    2.90
  -2   5   1    0.80    2.60
  -2   5   1    1.80    3.80
  -2   5   1    1.40    2.30
   1  -5  -1    3.20    2.70
   1  -5  -1    3.10    1.80
   1  -5  -1    0.10    4.30
  -1   5   1    4.50    2.50
  -1   5   1    1.20    2.60
  -1   5   1    4.70    1.90
   0  -5  -1  240.18   13.90
   0  -5  -1  241.68    9.40
   0  -5  -1  240.08    9.20
   0   5   1  247.38    9.70
   0   5   1  246.98    8.60
   0   5   1  233.28    9.30
   0   5   1  270.67   10.40
  -1  -5  -1  105.99    9.30
  -1  -5  -1  119.39    6.20
  -1  -5  -1  117.49    4.50
  -1  -5  -1  109.99    6.10
   1   5   1   96.99    4.80
   1   5   1  111.89    5.70
   1   5   1  110.39    5.60
   1   5   1  112.69    5.60
   1   5   1  117.99    5.40
  -2  -5  -1    0.00    1.20
  -2  -5  -1    3.00    1.60
  -2  -5  -1    1.30    2.70
  -2  -5  -1    0.60    2.40
  -2  -5  -1    1.50    2.70
   2   5   1    1.00    1.10
   2   5   1   -1.90    2.30
   2   5   1   -2.50    2.10
   2   5   1   -1.50    2.70
  -3  -5  -1   -0.50    3.00
  -3  -5  -1    0.10    3.00
  -3  -5  -1   -0.30    1.60
  -3  -5  -1    0.80    1.20
  -3  -5  -1    2.10    2.30
   3   5   1    0.70    2.00
   3   5   1    3.30    2.20
   3   5   1   -2.10    2.40
  -4  -5  -1   28.30    2.30
  -4  -5  -1   21.60    3.80
  -4  -5  -1   18.90    4.10
  -4  -5  -1   27.30    2.90
   4   5   1   28.70    3.50
   4   5   1   26.70    3.70
   4   5   1   20.60    2.80
   4   5   1   26.50    3.10
  -5  -5  -1   27.80    4.30
  -5  -5  -1   26.20    2.90
  -5  -5  -1   20.10    4.40
   5   5   1   28.70    3.40
   5   5   1   26.50    3.00
   5   5   1   17.90    3.70
  -6  -5  -1    5.70    3.60
  -6  -5  -1    2.70    3.90
   6   5   1    3.70    2.10
   6   5   1    2.70    3.30
   6   5   1    4.60    3.90
  -7  -5  -1    2.60    3.70
  -7  -5  -1   -6.40    4.80
   7   5   1    3.30    4.50
   7   5   1    3.00    3.60
  -8  -5  -1    8.70    6.00
  -8  -5  -1    6.70    4.60
   8   5   1   -1.20    5.20
   8   5   1    8.80    4.30
   5  -6  -1   12.80    6.50
   5  -6  -1   -7.50    4.50
  -5   6   1    6.30    4.80
  -5   6   1    2.10    5.30
   4  -6  -1    8.20    5.70
  -4   6   1    6.10    5.30
  -4   6   1    4.40    4.90
  -4   6   1    3.20    3.90
   3  -6  -1   46.30    9.10
   3  -6  -1   78.29    7.60
  -3   6   1   64.39    6.60
  -3   6   1   82.89    6.50
  -3   6   1   83.79    6.70
  -3   6   1   62.49    7.10
   2  -6  -1   12.60    2.00
   2  -6  -1    7.70    6.40
   2  -6  -1   20.40    5.30
  -2   6   1   12.80    3.80
  -2   6   1   24.20    3.40
  -2   6   1   22.50    4.30
   1  -6  -1    4.40    4.40
   1  -6  -1    3.80    2.20
   1  -6  -1    0.90    4.10
  -1   6   1    1.80    4.50
  -1   6   1    6.60    3.20
  -1   6   1    2.50    2.40
   0  -6  -1   -2.70    3.80
   0  -6  -1   -0.70    2.30
   0  -6  -1   -5.40    3.30
   0   6   1   -4.40    2.70
   0   6   1    0.40    2.10
   0   6   1   -2.90    3.50
  -1  -6  -1   17.60    3.40
  -1  -6  -1   14.10    5.20
  -1  -6  -1   17.00    1.90
  -1  -6  -1   18.40    3.30
   1   6   1   18.00    4.50
   1   6   1   15.60    2.50
   1   6   1   21.90    2.90
   1   6   1   22.80    3.90
  -2  -6  -1   65.49    7.70
  -2  -6  -1   68.19    3.70
  -2  -6  -1   76.49    5.60
  -2  -6  -1   66.19    4.90
   2   6   1   70.69    5.40
   2   6   1   71.69    3.80
   2   6   1   66.99    5.20
  -3  -6  -1    9.20    2.00
  -3  -6  -1    4.10    3.80
  -3  -6  -1    9.60    3.40
  -3  -6  -1    7.30    4.30
   3   6   1    9.50    3.10
   3   6   1   14.70    3.80
  -4  -6  -1    0.80    2.50
  -4  -6  -1    4.40    4.20
  -4  -6  -1   -1.20    2.90
   4   6   1    4.60    3.50
   4   6   1    0.10    2.40
   4   6   1   -5.60    3.20
  -5  -6  -1    3.00    3.40
  -5  -6  -1   -0.60    3.90
   5   6   1    7.10    3.40
   5   6   1    3.00    2.80
   5   6   1    1.70    3.00
  -6  -6  -1   15.70    5.60
  -6  -6  -1    6.30    4.50
   6   6   1    6.70    4.00
   6   6   1    8.10    4.00
   6   6   1    6.50    2.80
  -7  -6  -1    0.70    4.90
  -7  -6  -1    5.80    5.80
   7   6   1    8.10    4.40
   7   6   1    6.30    5.00
   4  -7  -1   -5.10    4.50
  -4   7   1   -1.80    4.10
  -4   7   1   -3.70    5.20
  -4   7   1    6.30    6.00
   3  -7  -1    8.90    6.30
   3  -7  -1  -13.80    7.20
  -3   7   1    5.10    4.00
  -3   7   1    0.10    4.30
   2  -7  -1    4.60    4.20
   2  -7  -1   -3.30    7.10
  -2   7   1    2.30    3.20
  -2   7   1    1.70    5.30
  -2   7   1    1.60    4.10
   1  -7  -1   13.90    3.00
   1  -7  -1   22.90    5.80
   1  -7  -1    3.20    7.00
  -1   7   1   11.20    5.70
  -1   7   1   10.60    5.10
  -1   7   1   10.80    3.10
   0  -7  -1    8.20    5.10
   0  -7  -1   13.90    3.20
   0  -7  -1   11.30    5.10
   0   7   1   12.50    4.20
   0   7   1   11.30    2.80
   0   7   1   16.20    3.80
  -1  -7  -1   -1.10    4.30
  -1  -7  -1    1.10    3.10
  -1  -7  -1   -1.40    5.40
   1   7   1   -1.40    2.70
   1   7   1   -3.70    2.30
   1   7   1    3.30    3.50
  -2  -7  -1   10.70    3.10
  -2  -7  -1    4.60    4.20
  -2  -7  -1    6.90    3.30
   2   7   1    5.90    3.50
   2   7   1    6.00    3.70
  -3  -7  -1   17.80    4.40
  -3  -7  -1   23.80    4.90
  -3  -7  -1   19.40    6.00
   3   7   1   21.70    4.00
  -4  -7  -1   10.40    5.30
  -4  -7  -1   13.80    4.00
   4   7   1   13.50    4.70
   4   7   1   14.50    4.30
  -5  -7  -1    2.10    4.90
  -5  -7  -1   -1.30    3.80
   5   7   1    3.50    3.40
   5   7   1    0.40    3.50
   5   7   1    2.40    4.00
  -6  -7  -1   -3.80    5.40
  -6  -7  -1   -0.10    4.90
   6   7   1    1.10    3.30
   6   7   1   -4.30    4.70
   6   7   1   -1.20    3.70
  -7  -7  -1    2.80    6.50
   7   7   1   -4.40    5.20
   7   7   1    1.60    4.40
   3  -8  -1  -14.80    8.40
   3  -8  -1    6.20    5.40
  -3   8   1    8.50    6.90
   2  -8  -1   -3.40    8.40
   2  -8  -1    8.00    5.10
  -2   8   1   16.30    6.90
   1  -8  -1    2.00    4.60
   1  -8  -1    0.10    5.80
  -1   8   1   -1.30    4.10
  -1   8   1   -1.60    4.50
   0  -8  -1   -9.60    6.50
   0  -8  -1    2.30    3.60
   0  -8  -1    3.80    4.30
   0   8   1    6.60    4.60
   0   8   1    5.60    5.20
  -1  -8  -1   28.20    6.80
  -1  -8  -1   36.70    5.10
  -1  -8  -1   53.89    6.80
   1   8   1   48.70    6.20
   1   8   1   51.09    7.20
  -2  -8  -1    7.30    4.00
  -2  -8  -1    5.90    4.60
  -2  -8  -1   -1.90    6.60
   2   8   1    7.90    5.70
  -3  -8  -1    5.90    4.80
  -3  -8  -1    7.00    4.90
  -3  -8  -1    2.70    6.40
   3   8   1    1.60    5.40
  -4  -8  -1   10.00    5.70
  -4  -8  -1   -2.10    4.40
   4   8   1   -5.70    4.80
   4   8   1   -6.40    5.30
  -5  -8  -1   -4.70    5.50
  -5  -8  -1   -5.50    5.60
   5   8   1    3.70    5.60
   5   8   1   -6.70    4.00
  -6  -8  -1    1.60    6.00
  -6  -8  -1   -4.80    5.90
   6   8   1   -3.70    4.00
   6   8   1   -2.90    4.20
   1  -9  -1   -1.70    8.90
   1  -9  -1    5.60    5.30
  -1   9   1    7.10    5.60
   0  -9  -1   -0.30    4.70
   0  -9  -1  -14.70    7.90
   0   9   1   -3.00    5.00
  -1  -9  -1    6.00    4.50
  -1  -9  -1    0.90    5.90
  -1  -9  -1    1.00    4.50
   1   9   1    9.60    7.30
  -2  -9  -1   -6.60    7.30
  -2  -9  -1    0.90    5.80
  -2  -9  -1    4.40    4.70
   2   9   1   -6.40    6.60
  -3  -9  -1   -0.60    5.60
  -3  -9  -1    3.50    5.40
   3   9   1   12.20    6.90
  -4  -9  -1   -6.20    7.30
  -4  -9  -1    8.50    6.30
   4   9   1    7.60    4.30
   4   9   1    1.90    6.00
   4   9  -2    4.20    6.30
  -4  -9   2   -9.00    7.60
  -4  -9   2    2.40    4.80
   3   9  -2   -0.10    6.70
   3   9  -2   -2.50    4.10
  -3  -9   2    3.20    5.80
  -3  -9   2   -6.90    7.30
   2   9  -2    1.60    4.20
   2   9  -2   -5.30    6.70
  -2  -9   2    0.40    5.20
  -2  -9   2    0.80    6.00
  -2  -9   2   -7.10    8.10
   1   9  -2   -3.60    6.80
   1   9  -2    3.90    5.30
  -1  -9   2   -2.60    6.50
  -1  -9   2   -0.60    9.00
  -1  -9   2    4.80    4.90
   0   9  -2   -4.20    6.90
   0   9  -2    3.30    4.40
   0  -9   2   -1.70    8.80
   0  -9   2    5.50    6.90
  -1   9  -2    2.80    6.20
  -1   9  -2    9.40    7.60
   1  -9   2    5.40    7.40
   1  -9   2   -5.50    9.80
   6   8  -2   -0.90    5.00
  -6  -8   2   -4.90    6.80
   5   8  -2   -1.80    3.80
   5   8  -2   -6.00    5.30
  -5  -8   2    2.30    4.70
  -5  -8   2   -9.30    5.90
   4   8  -2   53.99    6.70
  -4  -8   2   52.49    7.60
  -4  -8   2   31.20    8.10
   3   8  -2   -0.20    3.50
   3   8  -2    2.50    4.20
  -3  -8   2    2.50    5.40
  -3  -8   2   -1.30    4.90
  -3  -8   2    0.10    4.80
   2   8  -2   -2.40    5.70
   2   8  -2   -3.20    3.90
  -2  -8   2    4.50    5.60
  -2  -8   2  -14.20    6.70
  -2  -8   2    2.70    4.80
   1   8  -2   -6.60    5.70
   1   8  -2   -4.70    3.40
   1   8  -2   -2.70    4.30
  -1  -8   2   -3.50    5.20
  -1  -8   2   -1.80    4.10
  -1  -8   2    3.80    5.80
   0   8  -2   -3.30    3.50
   0   8  -2   -3.90    5.90
   0   8  -2   -4.50    4.70
   0  -8   2   -3.60    3.50
   0  -8   2   -5.80    7.70
   0  -8   2    6.90    6.20
  -1   8  -2    9.60    5.60
  -1   8  -2   12.10    5.00
  -1   8  -2    3.20    4.10
   1  -8   2   -2.30    8.30
   1  -8   2    7.10    5.00
  -2   8  -2    1.40    3.90
  -2   8  -2    6.30    6.60
  -2   8  -2    4.90    5.70
   2  -8   2    0.80    5.00
   2  -8   2  -12.80    8.80
  -3   8  -2   -0.20    6.50
  -3   8  -2    1.90    4.80
  -3   8  -2    8.80    6.70
   3  -8   2    2.80    5.50
   6   7  -2    1.60    4.10
   6   7  -2   -2.00    3.50
  -6  -7   2    0.50    4.40
  -6  -7   2   -5.20    5.10
   5   7  -2   10.00    4.30
   5   7  -2    4.50    3.70
  -5  -7   2   11.00    4.70
  -5  -7   2    7.50    5.60
   4   7  -2    4.00    3.00
   4   7  -2    8.30    4.50
  -4  -7   2    0.90    5.50
  -4  -7   2    7.60    4.10
   3   7  -2    3.70    3.50
   3   7  -2    6.80    3.30
  -3  -7   2    4.70    3.60
  -3  -7   2   -3.00    4.00
  -3  -7   2    3.60    4.40
   2   7  -2   -3.30    3.40
   2   7  -2    4.70    4.80
   2   7  -2    6.00    3.30
  -2  -7   2    0.90    3.40
  -2  -7   2    8.70    5.00
  -2  -7   2    9.60    4.40
   1   7  -2   26.70    4.10
   1   7  -2   43.60    6.30
   1   7  -2   21.60    4.40
  -1  -7   2   26.30    5.60
  -1  -7   2   22.70    4.50
  -1  -7   2   19.10    7.30
   0   7  -2   23.30    3.80
   0   7  -2   29.10    5.00
   0   7  -2   22.30    4.60
   0  -7   2   22.80    5.90
   0  -7   2   15.70    6.10
   0  -7   2   28.70    4.20
  -1   7  -2   -4.10    5.10
  -1   7  -2   -7.40    2.80
  -1   7  -2   -0.60    4.50
   1  -7   2   -4.10    7.40
   1  -7   2   -6.20    5.20
   1  -7   2   -1.50    2.90
  -2   7  -2    7.20    5.10
  -2   7  -2   12.90    4.10
  -2   7  -2    8.50    4.30
   2  -7   2    4.50    6.40
   2  -7   2    6.70    6.20
  -3   7  -2   24.00    4.90
  -3   7  -2   17.90    6.10
  -3   7  -2   21.00    6.40
   3  -7   2   16.70    5.30
  -4   7  -2    2.50    6.20
  -4   7  -2    5.40    3.70
   4  -7   2    7.10    6.80
   7   6  -2   -0.70    4.40
   7   6  -2   -4.60    3.10
   7   6  -2   -0.80    3.90
  -7  -6   2   -2.30    4.30
  -7  -6   2   11.10    5.90
   6   6  -2   -1.30    3.80
   6   6  -2    4.70    3.20
   6   6  -2    1.60    3.70
  -6  -6   2   -2.70    4.00
  -6  -6   2    4.90    5.70
   5   6  -2    2.10    2.90
   5   6  -2    6.80    4.00
   5   6  -2    3.30    3.80
  -5  -6   2    2.80    3.70
  -5  -6   2   -5.00    4.00
   4   6  -2   27.00    3.00
   4   6  -2   26.20    3.00
   4   6  -2   22.60    4.10
  -4  -6   2   24.60    5.50
  -4  -6   2   23.40    3.80
  -4  -6   2   18.60    5.10
   3   6  -2  176.48    7.70
   3   6  -2  195.98    8.80
  -3  -6   2  180.18    9.60
  -3  -6   2  181.68   12.40
  -3  -6   2  192.58    8.50
   2   6  -2    9.80    2.90
   2   6  -2   12.60    4.20
   2   6  -2    9.00    3.10
  -2  -6   2    9.80    4.30
  -2  -6   2   14.20    3.30
  -2  -6   2   13.00    4.00
   1   6  -2   -0.80    2.60
   1   6  -2   -1.60    2.90
   1   6  -2   -0.20    1.80
   1   6  -2    1.50    2.30
  -1  -6   2   -0.60    2.90
  -1  -6   2    0.90    3.80
  -1  -6   2   -2.60    2.70
   0   6  -2    0.80    2.60
   0   6  -2    2.60    2.60
   0   6  -2    2.60    3.10
   0  -6   2    6.70    4.30
   0  -6   2    1.00    3.00
   0  -6   2    6.70    4.40
  -1   6  -2   70.09    6.50
  -1   6  -2   66.29    5.20
  -1   6  -2   74.39    5.70
   1  -6   2   61.49    5.70
   1  -6   2   56.69    5.20
   1  -6   2   61.39    9.10
  -2   6  -2   30.50    4.30
  -2   6  -2   30.20    4.50
  -2   6  -2   35.10    5.70
   2  -6   2   18.40    2.50
   2  -6   2   21.00    7.80
   2  -6   2   44.00    5.30
  -3   6  -2    1.40    3.50
  -3   6  -2    0.90    3.80
  -3   6  -2    2.60    4.80
   3  -6   2    3.90    5.40
   3  -6   2    1.90    2.80
  -4   6  -2    9.30    4.30
  -4   6  -2    1.20    4.30
  -4   6  -2    9.40    5.20
  -4   6  -2    4.90    4.20
   4  -6   2    4.40    3.90
   4  -6   2   -1.60    5.80
  -5   6  -2   37.20    7.10
  -5   6  -2   25.20    5.70
  -5   6  -2   25.30    5.50
   5  -6   2   15.50    4.90
   5  -6   2   28.10    7.30
   7   5  -2    5.20    2.90
   7   5  -2    5.80    3.30
   7   5  -2    5.80    4.20
  -7  -5   2   12.60    5.80
  -7  -5   2   15.00    4.70
   6   5  -2   16.60    3.40
   6   5  -2   14.70    3.10
   6   5  -2   10.70    3.70
  -6  -5   2    2.80    3.80
  -6  -5   2   11.60    5.20
   5   5  -2   15.30    3.30
   5   5  -2   12.50    2.70
   5   5  -2    9.70    3.20
  -5  -5   2   15.10    3.90
  -5  -5   2    7.50    4.10
   4   5  -2    0.90    1.60
   4   5  -2    1.40    2.10
   4   5  -2    1.90    2.70
   4   5  -2    3.70    2.40
  -4  -5   2   -2.50    3.10
  -4  -5   2   -2.70    3.50
  -4  -5   2    4.30    2.50
   3   5  -2    1.90    2.00
   3   5  -2    0.80    2.30
   3   5  -2    1.80    2.80
   3   5  -2    4.30    1.70
  -3  -5   2   -1.70    2.30
  -3  -5   2    3.10    3.60
  -3  -5   2    3.30    2.00
   2   5  -2   13.10    2.90
   2   5  -2    7.60    2.90
   2   5  -2   12.20    2.70
  -2  -5   2    6.20    3.90
  -2  -5   2    9.80    2.60
  -2  -5   2   11.80    3.40
   1   5  -2  103.09    5.20
   1   5  -2  107.59    6.20
   1   5  -2   97.39    5.70
   1   5  -2  116.19    5.00
  -1  -5   2  107.09    4.90
  -1  -5   2  117.49   10.50
  -1  -5   2  104.89    5.60
  -1  -5   2  108.69    6.50
   0   5  -2   43.90    3.70
   0   5  -2   50.29    3.90
   0   5  -2   50.89    4.80
   0   5  -2   48.30    4.20
   0  -5   2   33.90    6.10
   0  -5   2   38.20    4.60
   0  -5   2   49.00    4.40
  -1   5  -2   50.89    4.60
  -1   5  -2   51.89    5.20
  -1   5  -2   50.69    4.20
   1  -5   2   47.40    4.10
   1  -5   2   52.89    4.70
   1  -5   2   35.90    6.80
  -2   5  -2   51.49    4.70
  -2   5  -2   48.50    4.70
  -2   5  -2   48.40    5.10
   2  -5   2   48.90    5.60
   2  -5   2   51.79    3.50
   2  -5   2   34.50    7.10
   2  -5   2   41.10    3.00
  -3   5  -2  118.29    7.50
  -3   5  -2  123.39    7.00
  -3   5  -2  116.39    7.70
  -3   5  -2  120.49    7.50
   3  -5   2  123.89    6.10
   3  -5   2  118.59    7.30
  -4   5  -2   23.70    4.80
  -4   5  -2   20.80    3.80
  -4   5  -2   16.50    4.30
  -4   5  -2   19.80    5.10
   4  -5   2   23.00    4.30
   4  -5   2   23.90    4.60
  -5   5  -2   -1.50    4.10
  -5   5  -2   -3.00    3.20
  -5   5  -2    8.90    5.20
   5  -5   2    3.50    4.40
   5  -5   2   -2.50    5.40
  -6   5  -2    0.90    5.40
  -6   5  -2   -7.20    4.70
   6  -5   2   -8.80    5.00
   6  -5   2   -1.60    6.50
   8   4  -2    1.60    5.20
  -8  -4   2    5.90    5.50
  -8  -4   2    1.90    4.40
   7   4  -2   -1.40    2.60
   7   4  -2   -3.60    2.40
   7   4  -2    5.30    4.40
  -7  -4   2   -2.50    4.60
  -7  -4   2   -0.50    3.70
   6   4  -2    5.30    2.70
   6   4  -2    8.60    2.60
   6   4  -2    4.20    3.60
  -6  -4   2    2.10    4.20
  -6  -4   2    3.10    2.90
  -6  -4   2    1.90    4.20
   5   4  -2    1.50    2.70
   5   4  -2   -1.50    2.10
   5   4  -2    4.20    2.30
   5   4  -2    0.80    2.40
  -5  -4   2    1.20    2.80
  -5  -4   2    2.30    2.00
  -5  -4   2    1.80    2.80
   4   4  -2  186.38    6.80
   4   4  -2  182.48    6.70
   4   4  -2  177.38    6.50
  -4  -4   2  169.18    6.00
  -4  -4   2  174.08    5.90
  -4  -4   2  175.18    9.30
  -4  -4   2  167.48   10.30
  -4  -4   2  176.08    6.80
   3   4  -2  127.49    5.50
   3   4  -2  126.69    4.70
   3   4  -2  124.09    5.10
  -3  -4   2  116.59    8.30
  -3  -4   2  127.89    5.50
  -3  -4   2  128.99    6.80
   2   4  -2  820.72   23.40
   2   4  -2  823.62   23.40
  -2  -4   2  831.82   24.70
  -2  -4   2  830.32   23.50
  -2  -4   2  803.22   26.80
  -2  -4   2  809.12   34.50
   1   4  -2    2.50    1.90
   1   4  -2    3.10    2.20
   1   4  -2    0.80    1.20
   1   4  -2   -0.10    1.10
   1   4  -2    1.90    2.40
  -1  -4   2    1.60    1.30
  -1  -4   2    0.40    1.60
  -1  -4   2   -0.90    1.70
  -1  -4   2    2.20    3.20
   0   4  -2  110.99    5.30
   0   4  -2  110.79    5.30
   0  -4   2  115.59    5.80
   0  -4   2  114.49    5.40
   0  -4   2  116.29    5.00
   0  -4   2  114.09    5.50
   0  -4   2  111.79    8.40
  -1   4  -2  195.78    7.90
  -1   4  -2  191.78    7.80
  -1   4  -2  182.68    7.50
   1  -4   2  187.18    7.30
   1  -4   2  185.68    7.70
   1  -4   2  192.38   12.40
   1  -4   2  186.48    7.50
  -2   4  -2   65.09    4.40
  -2   4  -2   56.89    4.80
  -2   4  -2   66.89    4.90
  -2   4  -2   70.29    4.90
   2  -4   2   52.29    6.60
   2  -4   2   62.69    2.80
   2  -4   2   62.59    4.50
   2  -4   2   64.79    3.50
  -3   4  -2   -2.70    3.50
  -3   4  -2    2.70    3.00
  -3   4  -2    2.50    3.20
  -3   4  -2    2.30    2.70
   3  -4   2    3.90    3.70
   3  -4   2    3.20    2.40
  -4   4  -2   79.79    6.40
  -4   4  -2   68.09    5.90
  -4   4  -2   69.29    6.70
  -4   4  -2   81.99    6.90
   4  -4   2   74.39    6.80
   4  -4   2   82.69    5.70
  -5   4  -2   37.10    5.70
  -5   4  -2   45.10    5.30
  -5   4  -2   41.20    5.70
   5  -4   2   49.30    5.90
   5  -4   2   37.80    5.60
  -6   4  -2   -3.30    4.80
  -6   4  -2   -9.10    4.10
   6  -4   2   -0.30    5.20
   6  -4   2   -0.10    5.00
   8   3  -2    5.40    5.70
  -8  -3   2    3.20    4.80
  -8  -3   2   12.70    4.80
   7   3  -2   20.40    3.00
   7   3  -2   14.40    2.70
   7   3  -2   12.20    5.00
  -7  -3   2   14.90    3.90
  -7  -3   2    9.80    4.00
   6   3  -2   18.60    3.40
   6   3  -2   13.20    2.40
   6   3  -2   14.80    2.50
  -6  -3   2    6.40    4.20
  -6  -3   2   21.00    4.40
  -6  -3   2   11.80    2.80
   5   3  -2   11.20    2.50
   5   3  -2   10.50    2.20
   5   3  -2   10.50    2.00
   5   3  -2   11.50    2.00
  -5  -3   2    6.90    2.40
  -5  -3   2    9.40    2.90
  -5  -3   2    4.90    3.40
  -5  -3   2    9.30    2.00
  -5  -3   2    8.60    2.50
   4   3  -2    3.80    2.20
   4   3  -2    5.00    2.10
   4   3  -2    6.20    1.70
   4   3  -2    3.50    1.70
  -4  -3   2    3.10    2.10
  -4  -3   2    3.50    2.20
  -4  -3   2    3.60    1.70
  -4  -3   2    2.70    1.80
   3   3  -2  173.78    6.20
   3   3  -2  183.08    6.20
   3   3  -2  200.28    9.00
   3   3  -2  182.98    5.90
  -3  -3   2  177.68    7.20
  -3  -3   2  173.58    7.70
  -3  -3   2  183.08    6.30
  -3  -3   2  167.78    6.10
  -3  -3   2  163.58    9.10
   2   3  -2  523.45   14.50
   2   3  -2  485.55   14.30
   2   3  -2  490.85   20.90
   2   3  -2  490.35   16.40
  -2  -3   2  487.05   15.30
  -2  -3   2  503.25   14.30
  -2  -3   2  482.65   16.60
  -2  -3   2  491.95   14.40
  -2  -3   2  469.65   21.10
   1   3  -2  284.07    8.80
   1   3  -2  264.67    8.70
   1   3  -2  286.57   13.00
   1   3  -2  259.47    9.00
   1   3  -2  274.77    9.30
   1   3  -2  286.97    9.70
  -1  -3   2  278.77   10.00
  -1  -3   2  263.77    8.50
  -1  -3   2  270.57    8.70
  -1  -3   2  270.07   13.30
  -1  -3   2  271.27    9.00
   0   3  -2   35.60    2.40
   0   3  -2   36.30    2.50
   0   3  -2   37.50    3.60
   0   3  -2   37.90    2.70
   0   3  -2   32.80    2.90
   0  -3   2   34.60    2.80
   0  -3   2   34.90    3.00
   0  -3   2   31.70    2.60
   0  -3   2   39.60    2.50
   0  -3   2   36.30    2.50
   0  -3   2   35.90    4.40
  -1   3  -2  306.07    9.80
  -1   3  -2  291.87   14.00
  -1   3  -2  299.37   10.30
  -1   3  -2  299.77    9.80
  -1   3  -2  306.47    9.80
   1  -3   2  310.37    9.90
   1  -3   2  302.27   10.20
   1  -3   2  295.77   10.10
   1  -3   2  307.37   10.20
   1  -3   2  307.77   10.00
   1  -3   2  314.87   14.70
  -2   3  -2  193.08    7.60
  -2   3  -2  197.88    7.40
  -2   3  -2  211.38    8.10
  -2   3  -2  189.98    8.00
   2  -3   2  204.18    7.40
   2  -3   2  218.38    7.60
   2  -3   2  206.68    7.60
   2  -3   2  198.68    6.60
  -3   3  -2   95.59    5.40
  -3   3  -2   99.89    5.30
  -3   3  -2  104.09    5.50
  -3   3  -2   90.49    5.30
   3  -3   2  101.39    5.30
   3  -3   2  112.49    5.10
   3  -3   2   96.49    5.70
  -4   3  -2    2.00    3.20
  -4   3  -2    7.00    2.70
  -4   3  -2    4.60    2.90
  -4   3  -2    6.90    2.90
   4  -3   2    5.60    2.90
   4  -3   2    4.50    3.00
   4  -3   2    0.50    3.20
  -5   3  -2   13.40    4.30
  -5   3  -2   19.00    3.90
  -5   3  -2   19.80    4.10
  -5   3  -2   12.00    3.40
   5  -3   2   11.50    4.10
   5  -3   2   16.70    4.70
  -6   3  -2   42.70    5.40
  -6   3  -2   41.50    5.30
  -6   3  -2   39.00    6.20
   6  -3   2   32.90    6.50
   6  -3   2   48.20    5.90
  -7   3  -2    6.90    4.40
  -7   3  -2   -4.40    4.50
   7  -3   2    8.10    6.70
   7  -3   2    7.30    5.00
   8   2  -2   -5.40    5.60
  -8  -2   2   -0.70    4.60
  -8  -2   2    4.70    4.30
   7   2  -2    2.40    4.60
   7   2  -2    6.40    2.80
  -7  -2   2    6.90    4.90
  -7  -2   2    0.10    3.50
   6   2  -2   55.89    3.80
   6   2  -2   54.69    4.70
   6   2  -2   45.10    3.10
  -6  -2   2   41.30    4.80
  -6  -2   2   52.39    4.70
  -6  -2   2   50.19    5.60
   5   2  -2   37.60    3.10
   5   2  -2   30.00    2.50
   5   2  -2   33.90    2.90
   5   2  -2   30.00    3.90
  -5  -2   2   37.20    3.80
  -5  -2   2   30.30    3.90
  -5  -2   2   29.60    4.10
  -5  -2   2   34.90    2.90
   4   2  -2  405.86   12.20
   4   2  -2  412.56   12.10
   4   2  -2  400.36   11.10
   4   2  -2  414.26   12.00
  -4  -2   2  403.76   13.80
  -4  -2   2  410.46   17.00
  -4  -2   2  399.16   14.70
  -4  -2   2  416.16   14.70
  -4  -2   2  406.96   12.00
   3   2  -2   17.50    2.20
   3   2  -2   16.70    1.70
   3   2  -2   14.70    1.70
   3   2  -2   13.80    2.00
  -3  -2   2   13.70    1.70
  -3  -2   2   14.80    1.80
  -3  -2   2   10.50    1.80
  -3  -2   2   12.30    2.50
  -3  -2   2   15.60    1.60
   2   2  -2  171.88    5.40
   2   2  -2  154.08    5.30
   2   2  -2  164.78    5.00
   2   2  -2  166.28    6.40
   2   2  -2  177.38    7.70
  -2  -2   2  160.98    5.90
  -2  -2   2  156.18    5.20
  -2  -2   2  155.38    5.50
  -2  -2   2  146.49    7.70
  -2  -2   2  160.98    5.40
  -2  -2   2  161.48    6.70
   1   2  -2  826.52   25.30
   1   2  -2  803.32   22.40
   1   2  -2  765.22   32.50
   1   2  -2  828.42   22.50
   1   2  -2  853.21   24.30
  -1  -2   2  814.92   22.60
  -1  -2   2  816.12   25.50
  -1  -2   2  840.72   22.50
  -1  -2   2  821.22   24.00
  -1  -2   2  813.72   32.70
   0   2  -2  300.97    9.90
   0   2  -2  306.37   13.40
   0   2  -2  312.47   10.10
   0   2  -2  311.37    9.30
   0   2  -2  315.77    9.40
   0  -2   2  314.47   10.20
   0  -2   2  320.47    9.90
   0  -2   2  312.57    9.30
   0  -2   2  309.27    9.40
   0  -2   2  323.97   13.90
  -1   2  -2  530.25   16.30
  -1   2  -2  530.05   16.60
  -1   2  -2  538.55   22.40
  -1   2  -2  551.84   15.60
  -1   2  -2  545.15   16.70
  -1   2  -2  539.15   15.60
   1  -2   2  551.14   15.60
   1  -2   2  566.54   16.70
   1  -2   2  530.75   15.60
   1  -2   2  553.74   16.70
   1  -2   2  546.25   16.20
   1  -2   2  543.65   22.70
  -2   2  -2    1.20    1.80
  -2   2  -2    0.20    1.50
  -2   2  -2    0.40    1.30
  -2   2  -2    1.30    1.70
  -2   2  -2    0.70    0.40
  -2   2  -2   -0.90    1.60
   2  -2   2   -0.30    1.00
   2  -2   2   -0.20    1.30
   2  -2   2    3.10    1.60
   2  -2   2   -1.10    1.30
  -3   2  -2  132.09    5.70
  -3   2  -2  138.49    6.10
  -3   2  -2  129.09    5.40
  -3   2  -2  129.79    5.90
  -3   2  -2  123.89    8.20
   3  -2   2  134.59    5.40
   3  -2   2  133.39    5.70
   3  -2   2  142.09    5.70
   3  -2   2  142.19    5.60
  -4   2  -2  344.97   12.90
  -4   2  -2  347.07   11.00
  -4   2  -2  347.67   12.00
  -4   2  -2  312.97   11.70
   4  -2   2  338.07   11.40
   4  -2   2  341.67   11.20
   4  -2   2  333.97   11.40
  -5   2  -2   42.80    5.20
  -5   2  -2   52.49    5.20
  -5   2  -2   50.29    4.50
  -5   2  -2   46.90    4.30
   5  -2   2   53.09    5.20
   5  -2   2   49.50    4.90
  -6   2  -2   -1.30    3.50
  -6   2  -2    4.10    4.40
   6  -2   2    0.90    4.90
   6  -2   2   -0.10    3.70
  -7   2  -2    4.10    5.40
  -7   2  -2    2.70    4.40
   7  -2   2   10.30    4.30
   7  -2   2    8.90    6.50
   8   1  -2    6.80    3.60
   8   1  -2    5.70    5.00
  -8  -1   2   14.00    6.00
   7   1  -2    2.70    3.70
   7   1  -2   -3.70    2.60
  -7  -1   2   -0.80    3.10
  -7  -1   2    4.20    3.50
   6   1  -2    4.80    2.50
   6   1  -2    4.90    4.30
   6   1  -2    7.30    1.60
  -6  -1   2    4.10    2.80
  -6  -1   2    4.60    1.80
  -6  -1   2    2.50    3.80
   5   1  -2    1.90    1.30
   5   1  -2    4.50    2.10
   5   1  -2   -1.20    3.00
   5   1  -2    4.00    1.90
  -5  -1   2    2.70    1.70
  -5  -1   2    2.30    2.30
  -5  -1   2    0.60    3.10
  -5  -1   2    2.60    1.30
   4   1  -2   38.90    2.80
   4   1  -2   46.10    2.10
   4   1  -2   39.40    3.50
   4   1  -2   42.90    3.00
  -4  -1   2   43.60    3.80
  -4  -1   2   41.60    2.80
  -4  -1   2   41.70    2.90
  -4  -1   2   33.10    3.50
   3   1  -2  646.34   18.00
   3   1  -2  641.34   16.50
   3   1  -2  676.03   21.00
   3   1  -2  628.44   18.10
  -3  -1   2  612.24   21.80
  -3  -1   2  661.63   18.00
  -3  -1   2  632.84   19.90
  -3  -1   2  670.43   20.90
  -3  -1   2  654.03   18.10
  -3  -1   2  677.43   25.30
   2   1  -2  696.03   18.70
   2   1  -2  704.43   21.40
   2   1  -2  677.33   18.80
  -2  -1   2  696.33   20.40
  -2  -1   2  677.83   18.60
  -2  -1   2  695.33   18.80
  -2  -1   2  670.83   26.50
  -2  -1   2  636.04   22.20
  -2  -1   2  691.83   21.40
   1   1  -2  162.58    7.40
   1   1  -2  168.18    5.20
   1   1  -2  162.38    5.90
   1   1  -2  171.28    6.00
   1   1  -2  169.98    5.20
  -1  -1   2  184.28    7.40
  -1  -1   2  168.28    5.70
  -1  -1   2  179.28    5.20
  -1  -1   2  180.18    6.10
  -1  -1   2  174.08    5.70
  -1  -1   2  169.48    5.30
   0   1  -2    6.10    0.90
   0   1  -2    4.10    0.80
   0   1  -2    5.00    0.90
   0   1  -2    5.60    0.80
   0   1  -2    4.70    1.00
   0  -1   2    5.30    1.20
   0  -1   2    5.00    0.80
   0  -1   2    3.90    0.80
   0  -1   2    4.00    0.90
   0  -1   2    5.40    0.80
  -1   1  -2  266.47    7.60
  -1   1  -2  265.37    7.70
  -1   1  -2  265.97    7.90
  -1   1  -2  261.07    8.20
  -1   1  -2  260.97    8.50
   1  -1   2  260.67    8.40
   1  -1   2  259.67    7.70
   1  -1   2  263.17    7.70
   1  -1   2  254.47    7.80
  -2   1  -2  839.92   22.60
  -2   1  -2  805.52   24.60
  -2   1  -2  831.32   22.60
  -2   1  -2  822.12   24.00
   2  -1   2  788.92   22.60
   2  -1   2  824.12   22.60
   2  -1   2  834.02   23.90
   2  -1   2  835.12   21.50
  -3   1  -2   43.30    3.00
  -3   1  -2   37.50    2.60
  -3   1  -2   37.10    2.80
   3  -1   2   43.20    2.80
   3  -1   2   48.90    2.80
   3  -1   2   43.50    2.90
   3  -1   2   43.50    2.90
  -4   1  -2    2.10    2.00
  -4   1  -2    1.30    1.60
  -4   1  -2    1.10    1.20
  -4   1  -2    2.00    1.90
   4  -1   2    1.90    1.70
   4  -1   2    1.40    2.00
   4  -1   2    1.50    2.00
  -5   1  -2  221.08    8.40
  -5   1  -2  211.18    7.70
  -5   1  -2  217.88    7.50
  -5   1  -2  221.78    9.20
   5  -1   2  218.18    7.50
   5  -1   2  208.88    7.90
   5  -1   2  208.48    8.70
  -6   1  -2   78.79    6.60
   6  -1   2   86.79    5.50
   6  -1   2   79.49    7.30
  -7   1  -2    8.30    4.40
   7  -1   2   12.40    4.90
   7  -1   2   14.90    3.50
  -8   1  -2   11.60    6.20
  -8   1  -2   17.10    5.50
   8  -1   2   12.50    7.20
   8   0  -2   -0.30    3.90
   8   0  -2    2.10    5.30
  -8   0   2   -1.30    5.20
   7   0  -2    6.60    6.20
   7   0  -2    9.90    3.70
  -7   0   2    2.80    4.60
   6   0  -2  102.69    5.40
   6   0  -2  104.89    6.70
  -6   0   2  109.19    6.00
  -6   0   2  106.59    8.10
   5   0  -2   50.29    3.70
   5   0  -2   56.69    3.70
  -5   0   2   54.69    5.70
  -5   0   2   47.30    3.30
  -5   0   2   48.00    4.00
  -5   0   2   45.30    3.90
   4   0  -2   52.09    3.10
   4   0  -2   54.69    3.50
   4   0  -2   48.80    3.40
   4   0  -2   49.20    2.00
  -4   0   2   52.29    3.50
  -4   0   2   51.89    3.00
  -4   0   2   50.69    3.50
  -4   0   2   53.99    4.00
   3   0  -2  147.09    5.80
   3   0  -2  148.19    5.10
   3   0  -2  138.19    5.10
   3   0  -2  144.69    5.70
  -3   0   2  147.19    4.80
  -3   0   2  135.49    6.60
  -3   0   2  141.79    5.60
  -3   0   2  144.99    5.80
  -3   0   2  140.19    5.00
  -3   0   2  138.99    6.20
   2   0  -2  704.23   19.20
   2   0  -2  695.73   19.10
   2   0  -2  697.63   20.70
   2   0  -2  717.03   21.60
  -2   0   2  655.33   23.10
  -2   0   2  704.13   19.20
  -2   0   2  691.63   26.60
  -2   0   2  698.73   21.50
  -2   0   2  707.03   20.80
  -2   0   2  701.33   19.10
   1   0  -2  781.72   22.40
   1   0  -2  799.22   21.00
   1   0  -2  761.52   20.90
   1   0  -2  698.33   25.00
   1   0  -2  767.02   23.50
  -1   0   2  788.82   22.50
  -1   0   2  790.62   21.00
  -1   0   2  792.02   23.60
  -1   0   2  790.82   20.90
  -1   0   2  770.62   25.00
   0   0  -2  470.55   12.40
   0   0  -2  383.66   13.00
   0   0  -2  441.76   14.60
   0   0  -2  473.55   14.00
   0   0   2  475.25   13.10
   0   0   2  480.45   13.30
   0   0   2  474.25   12.40
   0   0   2  482.85   14.60
   0   0   2  429.46   12.40
  -1   0  -2  429.66   13.20
  -1   0  -2  448.66   11.90
  -1   0  -2  449.95   12.00
   1   0   2  448.06   12.00
  -2   0  -2  212.88    6.00
  -2   0  -2  215.18    6.10
  -2   0  -2  211.28    6.90
   2   0   2  214.78    6.10
   2   0   2  229.48    6.00
   2   0   2  215.38    6.50
  -3   0  -2  280.97    7.90
  -3   0  -2  280.17    7.80
  -3   0  -2  278.67    9.20
   3   0   2  274.57    7.70
   3   0   2  273.87    8.10
   3   0   2  284.17    8.70
  -4   0  -2  383.06   11.70
  -4   0  -2  392.86   10.50
  -4   0  -2  385.86   12.60
  -4   0  -2  381.96   10.60
  -4   0  -2  375.16   12.40
   4   0   2  372.16   10.90
   4   0   2  371.96   10.30
   4   0   2  375.46   11.70
   4   0   2  329.37   10.60
  -5   0  -2  205.38    8.80
  -5   0  -2  210.28    6.40
  -5   0  -2  203.68    8.10
   5   0   2  201.78    6.50
   5   0   2  190.08    8.60
   5   0   2  210.98    6.60
   5   0   2  203.78    6.90
  -6   0  -2   21.50    2.90
  -6   0  -2   22.90    3.40
   6   0   2   17.00    5.10
   6   0   2   24.20    2.70
  -7   0  -2   14.60    4.50
   7   0   2   12.70    4.70
   7   0   2   14.00    2.30
  -8   0  -2   -1.40    4.60
   8   0   2    0.30    7.00
   8  -1  -2    7.80    5.70
   7  -1  -2   12.10    4.10
   7  -1  -2    8.00    6.70
  -7   1   2    4.50    5.00
   6  -1  -2   -3.90    3.20
   6  -1  -2    2.40    3.80
  -6   1   2   -1.80    2.80
  -6   1   2   -4.20    2.20
   5  -1  -2   33.20    3.50
   5  -1  -2   34.30    3.20
  -5   1   2   30.10    3.40
  -5   1   2   28.50    2.80
  -5   1   2   20.10    2.70
  -5   1   2   28.50    3.60
   4  -1  -2  128.09    5.30
   4  -1  -2  129.19    5.50
  -4   1   2  118.59    5.30
  -4   1   2  131.39    6.70
  -4   1   2  128.09    5.30
  -4   1   2  125.49    6.70
   3  -1  -2   78.59    3.80
   3  -1  -2   84.99    3.70
   3  -1  -2   78.69    3.90
  -3   1   2   79.29    3.90
  -3   1   2   77.29    4.40
  -3   1   2   83.39    4.30
  -3   1   2   83.29    3.70
   2  -1  -2  214.38    9.20
   2  -1  -2  226.58    7.20
   2  -1  -2  211.98    6.90
   2  -1  -2  217.68    6.80
   2  -1  -2  217.68    7.30
  -2   1   2  216.48    6.70
  -2   1   2  208.08    7.40
  -2   1   2  203.98    9.10
  -2   1   2  217.58    7.00
  -2   1   2  210.58    7.10
  -2   1   2  211.48    8.50
   1  -1  -2  139.89    5.00
   1  -1  -2  131.49    6.50
   1  -1  -2  134.99    5.90
   1  -1  -2  145.99    4.90
   1  -1  -2  143.09    4.70
   1  -1  -2  142.19    4.60
  -1   1   2  151.38    5.20
  -1   1   2  140.89    5.80
  -1   1   2  144.29    4.50
  -1   1   2  148.29    6.30
  -1   1   2  135.09    4.70
   0  -1  -2 1007.70   27.10
   0  -1  -2 1036.10   32.10
   0  -1  -2  971.10   29.10
   0  -1  -2  999.80   38.80
   0  -1  -2  994.70   27.00
   0   1   2 1054.69   38.90
   0   1   2 1054.69   32.10
   0   1   2  954.00   29.10
   0   1   2 1006.90   27.00
  -1  -1  -2 1331.77   35.60
  -1  -1  -2 1361.36   35.60
  -1  -1  -2 1352.56   42.40
   1   1   2 1315.57   33.30
   1   1   2 1356.76   42.40
   1   1   2 1352.76   35.70
   2   1   2  381.26   10.60
   2   1   2  389.36   10.20
   3   1   2    5.60    1.20
   3   1   2    4.10    1.60
  -4  -1  -2   13.10    2.30
  -4  -1  -2   13.70    1.30
  -4  -1  -2   10.10    2.20
   4   1   2   14.00    1.00
   4   1   2   13.40    1.70
   4   1   2   16.20    3.10
   4   1   2   13.20    1.10
  -5  -1  -2  156.28    7.40
  -5  -1  -2  152.98    7.10
   5   1   2  151.48    5.30
   5   1   2  148.29    7.20
   5   1   2  144.89    4.50
   5   1   2  150.58    4.50
  -6  -1  -2   28.40    3.60
  -6  -1  -2   26.40    4.20
   6   1   2   28.80    5.00
   6   1   2   37.40    3.00
   6   1   2   35.40    1.60
   6   1   2   33.60    1.70
  -7  -1  -2    4.30    4.00
  -7  -1  -2    1.60    3.10
   7   1   2    4.70    2.40
   7   1   2    5.70    5.30
  -8  -1  -2   -7.00    4.50
   8   1   2    1.40    6.20
   7  -2  -2    9.40    4.80
   7  -2  -2    8.10    5.10
  -7   2   2    7.60    5.50
   6  -2  -2   40.90    5.20
   6  -2  -2   31.60    5.50
  -6   2   2   29.20    4.50
   5  -2  -2   87.89    5.80
  -5   2   2   81.09    5.30
  -5   2   2   67.39    6.90
   4  -2  -2   -1.00    2.50
   4  -2  -2   -3.50    2.20
  -4   2   2   -1.30    2.10
  -4   2   2    0.30    1.80
  -4   2   2   -2.20    2.30
   3  -2  -2   58.69    4.00
   3  -2  -2   59.49    2.70
   3  -2  -2   58.99    3.40
  -3   2   2   56.59    4.60
  -3   2   2   57.99    4.50
  -3   2   2   57.79    4.00
   2  -2  -2 1430.16   53.89
   2  -2  -2 1394.16   40.20
   2  -2  -2 1426.66   41.00
   2  -2  -2 1395.86   37.70
   2  -2  -2 1352.46   37.50
  -2   2   2 1364.76   37.70
  -2   2   2 1297.77   44.80
  -2   2   2 1335.67   40.20
  -2   2   2 1294.87   53.39
  -2   2   2 1400.26   37.50
   1  -2  -2   24.10    1.90
   1  -2  -2   19.00    2.40
   1  -2  -2   29.40    2.60
   1  -2  -2   24.70    2.00
   1  -2  -2   16.00    2.50
  -1   2   2   23.60    2.80
  -1   2   2   21.90    2.60
  -1   2   2   23.10    2.30
  -1   2   2   18.10    1.90
  -1   2   2   22.50    2.10
   0  -2  -2  335.27   12.00
   0  -2  -2  338.57   11.10
   0  -2  -2  343.37   10.20
   0  -2  -2  339.27   10.10
   0  -2  -2  334.97   14.60
   0   2   2  384.36   14.80
   0   2   2  334.77   11.20
   0   2   2  335.07   10.10
   0   2   2  353.26   10.30
   0   2   2  363.16   12.10
  -1  -2  -2   73.99    3.10
  -1  -2  -2   69.79    2.90
  -1  -2  -2   71.79    2.90
  -1  -2  -2   74.69    4.40
   1   2   2   76.29    4.30
   1   2   2   67.79    3.10
   1   2   2   72.89    2.60
   1   2   2   71.09    2.90
   1   2   2   75.29    3.10
  -2  -2  -2  602.54   16.40
  -2  -2  -2  602.14   24.20
  -2  -2  -2  593.94   19.50
  -2  -2  -2  597.64   16.30
   2   2   2  610.24   16.00
   2   2   2  594.04   16.40
   2   2   2  601.94   15.60
  -3  -2  -2  377.96   10.20
  -3  -2  -2  370.26   10.20
  -3  -2  -2  394.36   16.10
   3   2   2  379.76   10.40
   3   2   2  369.16   10.20
   3   2   2  374.06   11.10
   3   2   2  377.86   10.40
  -4  -2  -2  153.08    7.10
  -4  -2  -2  173.08    8.60
   4   2   2  170.88    4.50
   4   2   2  160.58    6.60
   4   2   2  158.28    4.50
   4   2   2  165.68    5.50
  -5  -2  -2    5.30    2.80
  -5  -2  -2    4.40    2.20
  -5  -2  -2    0.30    1.90
   5   2   2    2.20    1.70
   5   2   2    5.10    3.30
  -6  -2  -2  136.59    8.10
  -6  -2  -2  131.39    7.70
  -6  -2  -2  131.59    8.60
   6   2   2  131.29    5.30
   6   2   2  124.59    7.70
  -7  -2  -2    9.70    3.70
  -7  -2  -2    5.00    3.20
  -7  -2  -2    7.50    4.40
   7   2   2    9.60    2.80
   7   2   2   11.70    5.20
  -8  -2  -2    8.00    5.20
   8   2   2   16.20    6.50
   8   2   2   12.90    3.30
   7  -3  -2   -5.50    5.10
   7  -3  -2   -7.50    6.70
  -7   3   2    1.30    5.50
   6  -3  -2   11.70    4.80
   6  -3  -2    8.30    4.60
  -6   3   2    5.50    5.00
   5  -3  -2   -2.60    3.50
  -5   3   2    3.10    4.00
  -5   3   2    2.60    3.40
   4  -3  -2   68.49    5.70
  -4   3   2   59.99    6.40
  -4   3   2   58.69    5.20
   3  -3  -2  118.39    6.00
   3  -3  -2  134.29    8.90
   3  -3  -2  118.29    6.30
  -3   3   2  136.19    7.10
  -3   3   2  119.89    6.30
  -3   3   2  120.19    7.40
   2  -3  -2   42.20    3.30
   2  -3  -2   51.59    6.00
   2  -3  -2   53.69    2.50
   2  -3  -2   48.20    3.90
  -2   3   2   51.19    4.60
  -2   3   2   51.09    4.60
  -2   3   2   45.30    4.10
  -2   3   2   52.29    3.60
   1  -3  -2  591.94   17.50
   1  -3  -2  550.14   25.40
   1  -3  -2  616.34   17.60
   1  -3  -2  619.44   19.00
  -1   3   2  569.64   18.80
  -1   3   2  595.94   20.80
  -1   3   2  613.74   25.10
  -1   3   2  588.24   17.90
  -1   3   2  611.34   17.70
  -1   3   2  605.04   18.40
   0  -3  -2  692.23   20.20
   0  -3  -2  728.93   20.30
   0  -3  -2  672.83   21.70
   0  -3  -2  667.83   23.60
   0  -3  -2  654.13   29.00
   0   3   2  743.43   20.20
   0   3   2  694.33   20.50
   0   3   2  750.82   29.20
   0   3   2  719.63   23.70
   0   3   2  742.63   21.20
   0   3   2  707.03   20.20
  -1  -3  -2  320.67   10.00
  -1  -3  -2  313.67    9.80
  -1  -3  -2  311.77   14.50
  -1  -3  -2  318.47   11.20
  -1  -3  -2  315.57    9.50
   1   3   2  312.67   10.00
   1   3   2  343.97   14.60
   1   3   2  325.17   10.00
   1   3   2  351.36   11.30
  -2  -3  -2  144.39    5.10
  -2  -3  -2  142.49    5.10
  -2  -3  -2  145.19    5.50
  -2  -3  -2  139.39    7.80
   2   3   2  151.48    7.60
   2   3   2  143.79    5.10
   2   3   2  142.69    5.10
   2   3   2  147.99    5.00
   2   3   2  142.59    4.80
  -3  -3  -2    6.80    1.20
  -3  -3  -2    6.30    1.30
  -3  -3  -2    5.50    2.10
  -3  -3  -2    6.70    1.30
   3   3   2    7.70    2.10
   3   3   2    9.30    1.70
   3   3   2    2.40    1.10
   3   3   2    6.60    1.50
  -4  -3  -2  112.69    6.70
  -4  -3  -2  102.69    6.60
  -4  -3  -2  109.29    3.60
  -4  -3  -2  111.19    3.50
   4   3   2  114.89    5.50
   4   3   2  107.69    4.30
   4   3   2  111.59    3.90
   4   3   2  114.89    3.70
  -5  -3  -2  114.09    7.40
  -5  -3  -2  122.09    7.80
   5   3   2  119.69    5.80
   5   3   2  112.59    5.00
   5   3   2  116.39    3.60
   5   3   2  115.19    3.50
  -6  -3  -2   45.90    5.10
  -6  -3  -2   56.59    6.80
  -6  -3  -2   40.20    5.00
   6   3   2   48.80    3.80
   6   3   2   50.79    5.70
  -7  -3  -2   18.00    4.10
  -7  -3  -2   22.10    5.00
  -7  -3  -2   20.80    4.70
   7   3   2   18.80    3.30
   7   3   2   22.50    5.50
  -8  -3  -2    3.80    4.60
  -8  -3  -2    3.60    5.00
   8   3   2    2.50    3.30
   8   3   2   -6.40    5.50
   6  -4  -2    2.50    6.20
   6  -4  -2   11.90    5.50
  -6   4   2    8.60    5.60
  -6   4   2   13.80    4.10
   5  -4  -2   -5.80    4.50
  -5   4   2    3.10    3.90
  -5   4   2   10.30    5.00
  -5   4   2   -3.40    3.70
   4  -4  -2   42.20    4.70
  -4   4   2   42.00    5.30
  -4   4   2   41.60    4.40
  -4   4   2   46.10    4.80
   3  -4  -2   80.59    6.30
   3  -4  -2   84.79    9.10
  -3   4   2   88.99    5.60
  -3   4   2   89.09    5.50
  -3   4   2   96.69    6.90
   2  -4  -2   90.19    5.90
   2  -4  -2   80.49    8.90
  -2   4   2   88.49    5.80
  -2   4   2   88.09    5.90
  -2   4   2   92.69    4.80
  -2   4   2   83.09    5.50
   1  -4  -2  220.08   12.50
   1  -4  -2  218.18    8.30
  -1   4   2  226.78    7.80
  -1   4   2  227.08    8.90
  -1   4   2  228.48    8.80
  -1   4   2  225.98    9.50
   0  -4  -2    7.00    3.10
   0  -4  -2    7.00    2.70
   0   4   2    8.30    2.20
   0   4   2   11.90    2.40
   0   4   2    9.70    1.40
   0   4   2   10.00    2.50
   0   4   2    8.70    2.70
  -1  -4  -2  104.89    7.80
  -1  -4  -2  115.09    5.40
  -1  -4  -2  116.79    3.90
  -1  -4  -2  117.69    5.40
   1   4   2  124.99    5.30
   1   4   2  119.09    5.30
   1   4   2  107.89    5.10
   1   4   2  111.59    5.50
   1   4   2  113.59    4.20
  -2  -4  -2   60.09    3.30
  -2  -4  -2   60.69    5.20
  -2  -4  -2   58.19    3.70
  -2  -4  -2   60.39    2.70
   2   4   2   57.99    3.80
   2   4   2   56.79    3.00
   2   4   2   63.69    3.70
  -3  -4  -2   72.09    5.00
  -3  -4  -2   69.39    3.60
  -3  -4  -2   69.49    5.70
  -3  -4  -2   76.29    3.80
  -3  -4  -2   70.59    3.60
   3   4   2   76.79    3.70
   3   4   2   76.29    3.80
   3   4   2   75.99    4.00
   3   4   2   74.39    4.00
  -4  -4  -2    6.00    1.70
  -4  -4  -2    3.40    1.50
  -4  -4  -2    4.80    2.20
  -4  -4  -2    2.80    3.20
   4   4   2    3.10    1.70
   4   4   2   -0.10    1.70
   4   4   2    2.10    1.70
   4   4   2    2.20    2.50
  -5  -4  -2    8.40    3.10
  -5  -4  -2    5.80    2.90
  -5  -4  -2    7.20    2.10
   5   4   2    8.60    3.20
   5   4   2    9.80    1.70
   5   4   2    7.60    1.90
   5   4   2    9.90    2.70
  -6  -4  -2   19.00    4.60
  -6  -4  -2   24.10    4.50
  -6  -4  -2   27.20    3.30
   6   4   2   22.00    3.40
   6   4   2   27.80    4.90
   6   4   2   26.50    1.40
  -7  -4  -2   66.19    8.60
  -7  -4  -2   57.99    6.50
  -7  -4  -2   71.49    6.30
  -7  -4  -2   55.59    6.60
   7   4   2   61.09    4.80
   7   4   2   56.89    6.70
  -8  -4  -2    6.50    5.00
  -8  -4  -2    5.90    5.20
   8   4   2    8.50    3.70
   8   4   2    1.40    5.70
   6  -5  -2    3.50    5.90
   6  -5  -2    5.50    6.20
  -6   5   2   -4.00    5.90
  -6   5   2    5.40    5.20
   5  -5  -2    7.50    5.50
  -5   5   2    9.30    5.40
  -5   5   2   13.70    4.50
   4  -5  -2   30.40    4.80
  -4   5   2   28.50    4.40
  -4   5   2   22.70    4.20
  -4   5   2   19.90    5.30
   3  -5  -2   11.00    4.60
   3  -5  -2   -1.30    5.00
  -3   5   2   12.40    3.60
  -3   5   2    9.80    3.10
  -3   5   2    7.30    4.10
   2  -5  -2   25.10    2.40
   2  -5  -2   12.40    4.40
   2  -5  -2   15.80    4.40
  -2   5   2   15.60    2.70
  -2   5   2   18.10    4.20
  -2   5   2   15.30    3.60
  -2   5   2   13.40    3.40
   1  -5  -2   94.59   10.20
   1  -5  -2   86.49    6.30
   1  -5  -2   83.59    4.50
  -1   5   2   82.99    6.40
  -1   5   2   87.19    5.30
  -1   5   2   84.69    4.60
   0  -5  -2   30.40    4.10
   0  -5  -2   31.70    5.20
   0  -5  -2   29.10    3.10
   0   5   2   45.10    4.50
   0   5   2   39.50    2.90
   0   5   2   33.90    3.80
  -1  -5  -2    6.60    2.50
  -1  -5  -2    6.50    1.20
  -1  -5  -2    7.90    3.10
  -1  -5  -2    4.80    2.70
  -1  -5  -2    8.30    2.40
   1   5   2    4.50    2.90
   1   5   2    6.30    2.20
   1   5   2    4.80    2.40
   1   5   2    4.70    1.50
   1   5   2    6.70    2.70
  -2  -5  -2    4.60    1.80
  -2  -5  -2    2.70    2.80
  -2  -5  -2    1.80    3.40
  -2  -5  -2    6.10    1.20
  -2  -5  -2    3.10    2.70
   2   5   2    1.00    2.80
   2   5   2    3.60    1.40
   2   5   2   -0.30    2.30
  -3  -5  -2   83.39    3.90
  -3  -5  -2   86.19    5.80
  -3  -5  -2   84.99    4.70
  -3  -5  -2   75.99    7.80
  -3  -5  -2   86.59    4.30
   3   5   2   79.69    4.60
   3   5   2   80.29    4.90
   3   5   2   83.79    4.90
   3   5   2   86.59    5.00
  -4  -5  -2   57.09    3.80
  -4  -5  -2   49.80    5.50
  -4  -5  -2   68.49    7.50
   4   5   2   54.09    4.50
   4   5   2   58.39    4.80
   4   5   2   52.89    4.20
   4   5   2   58.39    4.00
  -5  -5  -2   30.70    4.50
  -5  -5  -2   19.70    4.50
  -5  -5  -2   29.60    3.30
   5   5   2   27.30    3.90
   5   5   2   30.20    2.80
   5   5   2   23.60    4.00
  -6  -5  -2    2.70    3.50
  -6  -5  -2    5.20    3.90
   6   5   2    2.90    3.40
   6   5   2    5.30    4.00
   6   5   2    3.70    1.70
  -7  -5  -2   10.10    4.60
  -7  -5  -2   11.10    5.50
   7   5   2   13.10    4.00
   7   5   2   14.50    5.30
  -8  -5  -2    1.90    5.70
  -8  -5  -2   -0.10    5.50
   8   5   2    4.20    5.80
   5  -6  -2    3.70    6.30
  -5   6   2    4.20    4.60
  -5   6   2   -7.10    5.50
   4  -6  -2   11.10    5.80
  -4   6   2    9.50    5.50
  -4   6   2    6.80    3.80
  -4   6   2   11.10    5.30
   3  -6  -2   29.30    6.80
   3  -6  -2   56.19    6.90
  -3   6   2   53.19    5.60
  -3   6   2   37.50    5.10
  -3   6   2   56.49    5.90
   2  -6  -2    3.70    4.60
   2  -6  -2   15.90    5.20
   2  -6  -2   11.20    2.00
  -2   6   2    9.80    2.80
  -2   6   2   12.30    3.90
  -2   6   2   11.20    3.60
   1  -6  -2   -0.30    4.20
   1  -6  -2    3.50    2.10
   1  -6  -2   -2.20    5.10
  -1   6   2    6.20    4.50
  -1   6   2    1.80    2.40
  -1   6   2   -0.80    4.10
   0  -6  -2  100.79    6.10
   0  -6  -2   88.69    6.00
   0  -6  -2   88.09    9.30
   0   6   2   86.59    4.60
   0   6   2  105.39    7.50
   0   6   2   91.49    6.50
  -1  -6  -2   35.70    3.90
  -1  -6  -2   41.80    4.90
  -1  -6  -2   27.10    5.60
   1   6   2   38.90    4.50
   1   6   2   32.00    4.10
   1   6   2   31.40    2.70
   1   6   2   39.40    4.40
  -2  -6  -2   59.69    3.10
  -2  -6  -2   48.80    6.90
  -2  -6  -2   62.19    5.50
  -2  -6  -2   57.39    5.00
   2   6   2   59.29    5.40
   2   6   2   60.99    3.90
  -3  -6  -2    1.20    1.80
  -3  -6  -2   -2.00    2.50
  -3  -6  -2    3.50    2.90
  -3  -6  -2   -2.20    1.40
  -3  -6  -2    4.20    4.10
   3   6   2    5.60    3.00
   3   6   2    1.20    3.40
  -4  -6  -2   -2.90    3.80
  -4  -6  -2    0.30    1.50
  -4  -6  -2    4.20    3.10
  -4  -6  -2    3.40    2.90
   4   6   2    4.70    3.00
   4   6   2    2.70    3.30
   4   6   2    4.30    2.70
  -5  -6  -2    0.30    3.30
  -5  -6  -2    6.00    4.30
   5   6   2    3.90    2.90
   5   6   2    6.80    3.40
   5   6   2    5.50    3.90
  -6  -6  -2   13.60    5.00
  -6  -6  -2   12.60    4.40
   6   6   2   14.40    2.70
   6   6   2   13.80    4.30
   6   6   2   11.80    4.50
  -7  -6  -2    8.50    4.50
  -7  -6  -2    9.20    5.20
   7   6   2   13.50    5.10
   7   6   2   13.40    4.80
   4  -7  -2    9.90    6.80
  -4   7   2    2.00    5.60
  -4   7   2    0.90    4.50
  -4   7   2   -1.10    3.90
   3  -7  -2   11.50    4.90
   3  -7  -2   -3.30    7.50
  -3   7   2    6.20    6.10
  -3   7   2    3.60    3.80
   2  -7  -2    6.20    7.10
   2  -7  -2   20.90    4.90
  -2   7   2   13.60    3.50
  -2   7   2   19.40    6.20
   1  -7  -2   24.40    3.30
   1  -7  -2   22.80    4.70
   1  -7  -2   14.10    5.80
  -1   7   2   24.30    3.30
  -1   7   2   28.60    5.00
   0  -7  -2   19.60    3.40
   0  -7  -2   17.80    6.70
   0  -7  -2   31.80    5.60
   0   7   2   26.80    4.80
   0   7   2   24.20    3.00
  -1  -7  -2    2.70    2.30
  -1  -7  -2    1.30    3.90
  -1  -7  -2    7.20    4.50
   1   7   2    4.60    3.80
   1   7   2   -5.70    1.90
  -2  -7  -2   23.30    4.40
  -2  -7  -2   11.30    4.50
  -2  -7  -2   18.40    4.40
   2   7   2   19.00    4.10
  -3  -7  -2   19.70    5.00
  -3  -7  -2   38.40    4.80
  -3  -7  -2   26.60    4.40
   3   7   2   30.10    5.10
  -4  -7  -2    9.00    5.30
  -4  -7  -2   15.80    4.10
   4   7   2   14.60    4.20
   4   7   2   11.80    4.70
  -5  -7  -2   -4.30    4.80
  -5  -7  -2    2.80    4.00
   5   7   2    0.20    3.80
   5   7   2    4.60    4.70
  -6  -7  -2    2.80    4.20
  -6  -7  -2    1.80    4.90
   6   7   2    1.10    3.10
   6   7   2    5.00    3.90
   6   7   2    4.60    4.10
  -7  -7  -2    3.20    5.10
  -7  -7  -2    7.00    6.50
   7   7   2   -1.00    4.60
   7   7   2    3.00    5.30
   3  -8  -2   -0.90    8.90
   3  -8  -2   12.00    7.40
  -3   8   2   10.80    6.80
   2  -8  -2  -10.10    7.70
   2  -8  -2   -0.50    6.30
  -2   8   2    7.90    6.70
   1  -8  -2   10.00    6.20
   1  -8  -2  -10.80    7.10
  -1   8   2   -4.40    4.30
   0  -8  -2   -4.60    6.70
   0  -8  -2    3.80    3.60
   0  -8  -2    0.20    5.70
   0   8   2    4.30    4.70
  -1  -8  -2   26.50    4.30
  -1  -8  -2   18.60    7.60
  -1  -8  -2   24.40    5.90
   1   8   2   27.40    5.30
  -2  -8  -2   -2.50    4.60
  -2  -8  -2    1.20    4.80
  -2  -8  -2   -1.70    4.00
   2   8   2    2.90    5.70
  -3  -8  -2    2.50    4.50
  -3  -8  -2   -3.50    4.20
   3   8   2   -2.80    5.10
  -4  -8  -2    4.50    5.30
  -4  -8  -2   -3.20    5.80
   4   8   2   -1.90    3.50
   4   8   2   -0.60    4.70
  -5  -8  -2    0.70    5.60
  -5  -8  -2    0.50    6.00
   5   8   2   -0.80    3.90
   5   8   2    2.80    5.00
  -6  -8  -2   15.20    5.20
  -6  -8  -2    4.00    5.60
   6   8   2    3.00    6.00
   6   8   2    7.60    4.10
   1  -9  -2   -6.80    8.60
   1  -9  -2   -1.50    6.80
  -1   9   2   -3.30    7.20
   0  -9  -2  -12.40    7.90
   0  -9  -2   -1.40    6.20
   0   9   2    6.40    7.20
  -1  -9  -2   -3.80    7.50
  -1  -9  -2    0.10    6.00
  -1  -9  -2    2.00    4.10
   1   9   2   -2.20    4.90
  -2  -9  -2   10.00    5.80
  -2  -9  -2    4.50    4.60
  -2  -9  -2   -5.00    7.70
   2   9   2    5.00    4.90
  -3  -9  -2    1.70    5.40
  -3  -9  -2   -3.80    7.40
   3   9   2   -0.30    4.60
   3   9   2    2.30    3.70
  -4  -9  -2    5.80    6.00
  -4  -9  -2  -11.80    6.40
   4   9   2   -3.90    5.20
   4   9   2    0.60    5.90
   4   9  -3    1.50    6.90
  -4  -9   3   -5.10    7.90
  -4  -9   3   -0.90    6.60
   3   9  -3    1.80    5.10
   3   9  -3   -3.70    4.50
  -3  -9   3   -7.30    8.20
  -3  -9   3   -3.50    5.80
   2   9  -3    4.40    4.70
   2   9  -3    5.10    5.40
  -2  -9   3   -3.20    6.30
  -2  -9   3   -4.30    6.10
  -2  -9   3   -7.90    5.30
   1   9  -3    4.10    4.00
   1   9  -3    7.50    5.50
  -1  -9   3   -3.50    6.70
  -1  -9   3   -1.20    6.70
  -1  -9   3   -0.40    5.00
   0   9  -3    4.90    5.80
   0   9  -3    0.80    7.20
   0  -9   3   -0.70    7.10
   0  -9   3   -3.60    9.20
  -1   9  -3    6.70    4.80
  -1   9  -3   -6.90    6.90
   1  -9   3   -7.60    7.20
   1  -9   3    0.30    5.40
   5   8  -3   -4.10    5.00
  -5  -8   3   -3.40    6.10
  -5  -8   3   -5.70    6.20
   4   8  -3   40.70    6.90
  -4  -8   3   27.60    8.20
  -4  -8   3   46.60    7.60
   3   8  -3    1.70    3.60
   3   8  -3   -2.30    5.60
  -3  -8   3   -1.80    5.30
  -3  -8   3   -6.50    6.40
  -3  -8   3    1.40    5.00
   2   8  -3   -5.30    3.70
   2   8  -3   -2.10    5.90
   2   8  -3   -4.10    4.00
  -2  -8   3    0.40    4.90
  -2  -8   3    2.80    5.50
  -2  -8   3  -12.00    6.90
   1   8  -3    1.10    4.40
   1   8  -3   -3.10    3.40
   1   8  -3    2.80    4.60
  -1  -8   3    6.20    6.10
  -1  -8   3   -5.10    7.60
  -1  -8   3    3.90    4.50
   0   8  -3    0.70    4.80
   0   8  -3    0.90    4.10
   0   8  -3    7.20    4.80
   0  -8   3    7.00    6.20
   0  -8   3   -1.70    3.90
   0  -8   3    4.30    6.20
  -1   8  -3   15.00    5.30
  -1   8  -3   10.50    5.50
  -1   8  -3    0.00    3.80
   1  -8   3   14.50    7.50
   1  -8   3   15.40    5.40
  -2   8  -3   -0.50    4.10
  -2   8  -3    7.40    4.70
  -2   8  -3    8.90    6.70
   2  -8   3    9.70    5.50
  -3   8  -3   -4.10    4.40
  -3   8  -3    8.10    6.50
  -3   8  -3    4.20    5.00
   3  -8   3   -6.30    7.20
   6   7  -3    2.60    3.80
   6   7  -3    5.40    4.60
  -6  -7   3   -1.30    5.90
  -6  -7   3    0.10    6.20
   5   7  -3    0.60    4.80
  -5  -7   3   -2.40    5.10
  -5  -7   3    2.40    4.30
   4   7  -3    8.70    2.90
   4   7  -3    3.70    4.80
  -4  -7   3    5.20    5.30
  -4  -7   3    5.50    5.50
   3   7  -3   -0.40    2.80
   3   7  -3   -0.40    3.40
  -3  -7   3    8.00    5.20
  -3  -7   3   -1.10    5.50
  -3  -7   3    2.80    4.10
   2   7  -3   28.40    5.70
   2   7  -3   14.40    4.40
   2   7  -3   20.70    4.10
  -2  -7   3   23.70    5.20
  -2  -7   3   25.20    4.40
  -2  -7   3   11.60    5.30
   1   7  -3   24.70    4.80
   1   7  -3   32.40    6.00
   1   7  -3   27.20    4.10
  -1  -7   3   23.90    5.70
  -1  -7   3   18.60    7.60
  -1  -7   3   24.10    4.70
   0   7  -3   -1.60    3.20
   0   7  -3    3.70    4.20
   0   7  -3    3.10    5.20
   0  -7   3   -5.80    4.70
   0  -7   3   -6.10    5.00
   0  -7   3   -1.20    3.40
  -1   7  -3   -1.60    4.70
  -1   7  -3   -2.40    3.80
  -1   7  -3    2.10    3.50
   1  -7   3   -7.50    5.10
   1  -7   3   -8.20    2.90
   1  -7   3   -4.20    5.40
  -2   7  -3   58.59    6.30
  -2   7  -3   45.60    5.80
  -2   7  -3   46.90    5.50
   2  -7   3   48.80    7.50
  -3   7  -3   14.20    6.00
  -3   7  -3    9.70    4.60
  -3   7  -3   13.20    4.70
   3  -7   3   13.60    5.30
  -4   7  -3    5.10    4.70
  -4   7  -3    9.50    4.90
   4  -7   3    2.30    6.80
   7   6  -3    8.80    4.70
   7   6  -3    1.00    3.40
   7   6  -3   -2.50    3.80
  -7  -6   3   -2.20    5.80
  -7  -6   3    4.50    6.10
   6   6  -3    5.40    3.90
   6   6  -3    3.70    3.30
   6   6  -3    6.30    3.40
  -6  -6   3    5.70    5.80
  -6  -6   3    7.80    4.60
   5   6  -3   24.50    4.10
   5   6  -3   26.30    3.50
  -5  -6   3   18.60    5.30
  -5  -6   3   15.80    4.50
   4   6  -3   33.20    4.60
   4   6  -3   35.50    3.60
  -4  -6   3   34.10    4.30
  -4  -6   3   34.20    6.00
  -4  -6   3   34.60    5.90
   3   6  -3   26.20    3.70
   3   6  -3   15.40    3.00
  -3  -6   3   14.80    4.80
  -3  -6   3   19.40    5.60
  -3  -6   3   18.40    4.00
   2   6  -3    6.40    2.90
   2   6  -3    6.20    4.10
   2   6  -3    3.10    3.20
  -2  -6   3    3.90    5.20
  -2  -6   3    6.90    3.90
  -2  -6   3    4.00    3.90
   1   6  -3    8.60    3.50
   1   6  -3   13.30    3.40
   1   6  -3    9.80    2.00
   1   6  -3    6.80    3.30
  -1  -6   3   12.60    3.00
  -1  -6   3    9.00    5.70
  -1  -6   3   12.30    4.50
   0   6  -3   49.30    5.20
   0   6  -3   39.40    5.00
   0   6  -3   48.40    5.70
   0  -6   3   49.80    5.50
   0  -6   3   45.30    7.80
   0  -6   3   54.69    6.00
  -1   6  -3   60.69    5.90
  -1   6  -3   73.99    6.00
  -1   6  -3   65.09    5.30
   1  -6   3   55.19    9.00
   1  -6   3   64.09    5.50
   1  -6   3   61.69    6.60
  -2   6  -3   62.79    5.50
  -2   6  -3   58.49    6.40
  -2   6  -3   48.20    5.30
   2  -6   3   53.59    6.60
  -3   6  -3   11.50    4.10
  -3   6  -3   12.80    4.10
  -3   6  -3   14.40    5.30
   3  -6   3   23.60    6.00
  -4   6  -3   16.00    4.80
  -4   6  -3   18.00    6.00
  -4   6  -3   14.50    4.40
  -4   6  -3    1.60    4.90
   4  -6   3   12.50    4.10
   4  -6   3    6.70    6.10
  -5   6  -3   -9.90    4.90
  -5   6  -3   -2.40    4.10
   5  -6   3    1.20    6.50
   5  -6   3    6.70    4.80
   7   5  -3    4.90    3.10
   7   5  -3    8.40    4.40
   7   5  -3    6.30    3.30
  -7  -5   3   14.00    5.90
  -7  -5   3    5.20    4.30
   6   5  -3    1.60    3.20
   6   5  -3    2.90    3.10
   6   5  -3    0.10    3.10
  -6  -5   3    3.20    3.60
  -6  -5   3   -3.20    3.60
  -6  -5   3   -1.30    5.00
   5   5  -3    5.50    3.00
   5   5  -3    6.80    3.40
   5   5  -3    6.50    3.20
  -5  -5   3    6.00    3.60
  -5  -5   3    2.40    3.40
   4   5  -3    9.30    3.00
   4   5  -3    7.50    2.70
   4   5  -3    7.90    2.30
  -4  -5   3    1.40    2.90
  -4  -5   3    4.40    3.70
  -4  -5   3    7.20    2.90
   3   5  -3   74.79    3.40
   3   5  -3   78.09    4.90
   3   5  -3   70.29    4.60
  -3  -5   3   79.69    5.30
  -3  -5   3   84.69    8.60
  -3  -5   3   78.19    6.00
   2   5  -3  119.69    6.40
   2   5  -3  114.19    6.50
  -2  -5   3  126.49   10.50
  -2  -5   3  118.19    6.40
  -2  -5   3  103.79    7.40
   1   5  -3   16.70    1.90
   1   5  -3   12.90    3.60
   1   5  -3   19.10    3.20
  -1  -5   3   19.40    3.20
  -1  -5   3   19.50    3.50
  -1  -5   3   21.40    5.20
   0   5  -3    5.60    3.50
   0   5  -3    0.50    1.60
   0   5  -3    1.70    2.50
   0  -5   3    3.10    2.50
   0  -5   3    3.30    3.40
   0  -5   3    3.60    3.50
  -1   5  -3   28.40    3.80
  -1   5  -3   30.20    3.70
  -1   5  -3   27.00    4.20
   1  -5   3   30.90    4.10
   1  -5   3   25.80    3.10
   1  -5   3   24.90    6.30
  -2   5  -3   86.59    5.70
  -2   5  -3   89.99    6.40
  -2   5  -3   75.89    6.40
   2  -5   3   83.69    6.00
   2  -5   3   86.19    4.30
   2  -5   3   87.09    4.40
  -3   5  -3   50.79    5.60
  -3   5  -3   46.10    5.00
  -3   5  -3   43.80    5.00
  -3   5  -3   39.40    4.70
   3  -5   3   52.29    4.00
   3  -5   3   32.50    5.60
  -4   5  -3    3.20    3.50
  -4   5  -3    1.30    4.10
  -4   5  -3    6.10    4.60
  -4   5  -3    1.70    4.10
   4  -5   3    4.80    5.10
   4  -5   3    1.20    3.10
  -5   5  -3   10.60    5.10
  -5   5  -3    7.20    5.10
  -5   5  -3    1.00    4.00
   5  -5   3   11.40    4.40
   5  -5   3    6.30    5.30
  -6   5  -3    4.90    4.40
  -6   5  -3   -1.10    3.90
   6  -5   3    4.50    5.50
   6  -5   3   -0.90    5.70
   8   4  -3    7.80    5.20
  -8  -4   3   16.40    5.00
  -8  -4   3   15.60    5.30
   7   4  -3    3.40    2.70
   7   4  -3    4.10    4.30
   7   4  -3    6.00    2.90
  -7  -4   3    3.60    4.00
  -7  -4   3    4.00    4.90
   6   4  -3    2.00    3.40
   6   4  -3    9.70    2.70
   6   4  -3    5.30    2.50
  -6  -4   3    0.30    4.40
  -6  -4   3    3.90    3.50
  -6  -4   3    4.30    3.10
   5   4  -3  112.59    5.10
   5   4  -3  112.19    5.40
   5   4  -3   96.99    5.50
  -5  -4   3  110.69    8.40
  -5  -4   3   98.69    7.90
  -5  -4   3  102.69    5.30
   4   4  -3   24.40    3.00
   4   4  -3   18.30    2.80
   4   4  -3   21.70    2.80
  -4  -4   3   13.30    3.50
  -4  -4   3   16.50    2.80
  -4  -4   3   14.80    4.00
   3   4  -3    8.80    2.30
   3   4  -3    6.20    1.70
   3   4  -3    4.80    2.50
  -3  -4   3    5.60    2.40
  -3  -4   3    5.30    2.40
  -3  -4   3    9.40    3.10
   2   4  -3  151.38    6.00
   2   4  -3  150.98    6.00
   2   4  -3  152.88    6.70
  -2  -4   3  158.98    7.90
  -2  -4   3  159.68    6.20
  -2  -4   3  159.88    6.70
  -2  -4   3  153.98   10.00
   1   4  -3  142.79    6.30
   1   4  -3  146.49    6.60
   1   4  -3  140.89    5.40
   1   4  -3  140.89    6.10
  -1  -4   3  143.99    6.10
  -1  -4   3  152.28    7.10
  -1  -4   3  151.18    6.00
  -1  -4   3  140.79    9.30
   0   4  -3  318.87   11.30
   0   4  -3  322.17   11.00
   0   4  -3  331.57   11.20
   0  -4   3  322.77   11.00
   0  -4   3  319.77   11.10
   0  -4   3  318.37   16.20
   0  -4   3  320.87   11.10
   0  -4   3  325.17   11.70
  -1   4  -3  102.59    4.30
  -1   4  -3   90.89    5.00
  -1   4  -3   98.79    5.60
   1  -4   3   86.79    5.00
   1  -4   3   93.89    5.90
   1  -4   3  103.79    5.10
   1  -4   3  111.39    9.50
  -2   4  -3    0.20    2.60
  -2   4  -3    1.60    2.30
  -2   4  -3   -0.50    2.10
  -2   4  -3   -1.00    2.00
   2  -4   3   -3.00    2.00
   2  -4   3   -0.40    1.20
   2  -4   3   -0.50    1.70
   2  -4   3   -2.70    3.10
  -3   4  -3  153.48    8.00
  -3   4  -3  143.29    7.20
  -3   4  -3  132.49    6.90
  -3   4  -3  130.69    6.90
   3  -4   3  145.89    7.80
   3  -4   3  135.79    6.30
  -4   4  -3   43.80    5.20
  -4   4  -3   51.29    5.00
  -4   4  -3   42.50    5.40
  -4   4  -3   44.90    4.80
   4  -4   3   55.19    5.70
   4  -4   3   43.40    4.60
  -5   4  -3   27.10    5.30
  -5   4  -3   17.60    4.50
  -5   4  -3   21.90    5.00
   5  -4   3   22.00    4.90
   5  -4   3   39.80    5.80
  -6   4  -3    3.30    4.70
  -6   4  -3    0.70    3.70
  -6   4  -3   -4.60    4.00
   6  -4   3   -1.60    5.00
   6  -4   3   -4.00    4.60
   8   3  -3   -5.40    5.30
  -8  -3   3   -1.80    5.90
  -8  -3   3   -4.70    4.80
   7   3  -3   14.90    3.20
   7   3  -3   11.20    4.90
   7   3  -3   19.70    2.70
  -7  -3   3   11.20    5.20
  -7  -3   3   17.00    5.00
   6   3  -3   13.00    2.80
   6   3  -3   12.60    2.40
   6   3  -3   10.00    3.70
  -6  -3   3   11.80    3.60
  -6  -3   3    7.10    4.00
   5   3  -3   -2.90    2.10
   5   3  -3   -0.60    1.60
   5   3  -3   -4.10    2.50
   5   3  -3    0.60    2.40
  -5  -3   3   -2.00    3.40
  -5  -3   3    2.20    3.40
  -5  -3   3   -2.70    2.00
  -5  -3   3   -0.60    2.10
  -5  -3   3   -2.50    1.90
   4   3  -3  176.08    6.30
   4   3  -3  159.68    6.20
   4   3  -3  165.18    6.40
  -4  -3   3  150.38    8.70
  -4  -3   3  158.68    6.50
  -4  -3   3  159.18    8.40
  -4  -3   3  165.98    6.20
   3   3  -3  358.06   11.10
   3   3  -3  357.66   11.20
   3   3  -3  346.77   10.30
   3   3  -3  409.06   16.00
  -3  -3   3  366.46   11.70
  -3  -3   3  345.57   16.10
  -3  -3   3  347.67   13.30
  -3  -3   3  364.16   11.20
   2   3  -3  301.67    9.70
   2   3  -3  329.77    9.80
   2   3  -3  303.07   14.20
  -2  -3   3  305.37   11.30
  -2  -3   3  306.37   14.30
  -2  -3   3  308.97    9.80
  -2  -3   3  301.17   10.20
   1   3  -3   98.69    4.90
   1   3  -3   94.19    4.40
   1   3  -3   88.29    6.10
   1   3  -3   95.79    4.00
   1   3  -3   90.69    4.50
  -1  -3   3   94.79    4.20
  -1  -3   3   97.19    4.30
  -1  -3   3  100.79    6.40
  -1  -3   3   91.09    4.70
  -1  -3   3   94.39    4.20
   0   3  -3   48.30    4.50
   0   3  -3   43.50    2.70
   0   3  -3   43.10    3.00
   0   3  -3   45.20    3.00
   0   3  -3   47.30    3.30
   0  -3   3   47.20    3.20
   0  -3   3   45.30    3.00
   0  -3   3   49.50    3.40
   0  -3   3   46.30    3.00
   0  -3   3   46.30    4.80
  -1   3  -3  395.76   13.30
  -1   3  -3  411.46   12.40
  -1   3  -3  394.96   12.60
   1  -3   3  394.56   13.00
   1  -3   3  419.66   18.20
   1  -3   3  401.96   13.00
   1  -3   3  394.16   12.20
   1  -3   3  380.36   12.60
   1  -3   3  376.06   12.50
  -2   3  -3  264.37    8.50
  -2   3  -3  264.57    9.30
  -2   3  -3  261.57    9.80
  -2   3  -3  266.37    9.10
   2  -3   3  271.87    9.10
   2  -3   3  274.37    9.30
   2  -3   3  278.27    8.20
   2  -3   3  261.37    9.20
  -3   3  -3  123.29    5.90
  -3   3  -3  125.79    6.20
  -3   3  -3  139.79    6.50
  -3   3  -3  124.79    6.10
   3  -3   3  133.69    6.10
   3  -3   3  128.79    6.50
   3  -3   3  131.29    5.60
   3  -3   3  124.69    5.50
  -4   3  -3  125.99    6.80
  -4   3  -3  108.79    6.10
  -4   3  -3  124.19    6.40
  -4   3  -3  110.89    6.40
   4  -3   3  119.49    6.20
   4  -3   3  128.29    6.40
   4  -3   3  125.29    6.80
  -5   3  -3   42.80    5.10
  -5   3  -3   36.10    4.60
  -5   3  -3   44.60    5.60
   5  -3   3   48.20    5.50
   5  -3   3   59.09    5.80
  -6   3  -3   23.20    4.50
  -6   3  -3   31.90    5.00
  -6   3  -3   27.30    5.00
   6  -3   3   34.00    5.10
   6  -3   3   28.20    6.20
  -7   3  -3   28.40    6.80
  -7   3  -3   28.70    6.00
   7  -3   3   41.40    5.80
   7  -3   3   41.90    7.80
   8   2  -3   -0.80    3.10
   8   2  -3   -4.10    5.60
  -8  -2   3   -4.50    5.60
  -8  -2   3   -4.80    4.70
   7   2  -3   15.40    3.20
   7   2  -3   12.20    5.10
  -7  -2   3   12.60    4.40
  -7  -2   3   11.90    4.10
   6   2  -3   41.60    2.80
   6   2  -3   46.50    5.50
   6   2  -3   39.60    3.50
  -6  -2   3   34.10    5.30
  -6  -2   3   38.50    4.70
   5   2  -3   85.09    4.50
   5   2  -3   80.89    4.30
   5   2  -3   80.99    3.40
   5   2  -3   73.39    5.20
  -5  -2   3   78.49    6.20
  -5  -2   3   85.19    6.70
  -5  -2   3   77.59    4.10
  -5  -2   3   80.69    4.90
   4   2  -3  244.08    7.00
   4   2  -3  251.97    7.90
   4   2  -3  236.28    7.90
   4   2  -3  253.27    7.90
  -4  -2   3  235.18    9.60
  -4  -2   3  221.08   10.50
  -4  -2   3  235.78    9.60
  -4  -2   3  239.88    7.90
  -4  -2   3  220.48    9.40
   3   2  -3   45.20    2.80
   3   2  -3   47.90    2.90
   3   2  -3   50.49    3.10
  -3  -2   3   54.29    3.40
  -3  -2   3   43.00    3.60
  -3  -2   3   44.70    2.90
  -3  -2   3   48.20    3.10
  -3  -2   3   47.10    4.20
  -3  -2   3   51.29    2.90
   2   2  -3  192.88    8.70
   2   2  -3  179.98    7.00
   2   2  -3  182.78    6.10
   2   2  -3  184.18    6.10
  -2  -2   3  180.68    6.60
  -2  -2   3  195.08    6.10
  -2  -2   3  175.18    7.20
  -2  -2   3  185.48    6.30
  -2  -2   3  185.88    8.80
  -2  -2   3  192.68    6.30
   1   2  -3  161.38    6.10
   1   2  -3  173.08    6.20
   1   2  -3  153.58    5.30
   1   2  -3  156.08    5.40
   1   2  -3  162.18    5.40
   1   2  -3  160.98    7.80
  -1  -2   3  158.78    5.40
  -1  -2   3  164.78    5.90
  -1  -2   3  164.58    6.40
  -1  -2   3  153.88    5.50
  -1  -2   3  159.38    7.90
   0   2  -3  564.74   16.00
   0   2  -3  574.44   16.00
   0   2  -3  553.94   23.00
   0   2  -3  549.54   17.30
   0   2  -3  553.34   17.60
   0  -2   3  564.54   17.20
   0  -2   3  571.94   23.30
   0  -2   3  574.54   15.90
   0  -2   3  580.24   16.20
   0  -2   3  559.44   17.80
  -1   2  -3    0.80    1.20
  -1   2  -3   -1.10    1.40
  -1   2  -3    0.90    1.20
  -1   2  -3   -0.60    1.40
  -1   2  -3    1.10    1.10
  -1   2  -3    0.80    0.80
   1  -2   3   -0.40    1.30
   1  -2   3   -0.30    1.60
   1  -2   3    0.90    1.40
   1  -2   3    0.40    0.90
   1  -2   3    1.30    1.10
  -2   2  -3   59.79    2.60
  -2   2  -3   62.09    4.70
  -2   2  -3   65.49    3.40
  -2   2  -3   63.99    4.10
  -2   2  -3   65.49    3.40
  -2   2  -3   63.49    3.20
   2  -2   3   64.89    3.50
   2  -2   3   59.39    3.10
   2  -2   3   61.59    2.80
   2  -2   3   61.39    3.60
  -3   2  -3  421.46   13.00
  -3   2  -3  412.36   14.30
  -3   2  -3  428.26   12.80
  -3   2  -3  422.26   13.60
   3  -2   3  443.96   12.60
   3  -2   3  415.16   13.10
   3  -2   3  420.66   13.00
   3  -2   3  419.96   13.30
  -4   2  -3  591.34   18.90
  -4   2  -3  590.24   17.90
  -4   2  -3  594.74   17.50
  -4   2  -3  611.24   18.90
  -4   2  -3  578.94   17.90
  -4   2  -3  583.64   19.70
   4  -2   3  607.44   17.70
   4  -2   3  585.54   17.80
   4  -2   3  591.84   17.60
  -5   2  -3    2.30    2.70
  -5   2  -3   -1.00    2.80
  -5   2  -3    0.50    2.40
  -5   2  -3    4.80    3.70
   5  -2   3    3.50    3.90
   5  -2   3   -3.30    3.00
  -6   2  -3    1.20    3.30
  -6   2  -3   -4.50    4.20
  -6   2  -3    0.30    3.20
   6  -2   3   -0.60    3.50
   6  -2   3    1.20    4.90
  -7   2  -3    1.60    3.80
  -7   2  -3   -2.10    4.00
   7  -2   3   -5.80    3.80
   7  -2   3    3.20    6.30
   8   1  -3   19.10    6.80
   8   1  -3    8.40    3.70
  -8  -1   3    9.60    4.70
   7   1  -3    5.60    5.60
  -7  -1   3    8.60    4.10
  -7  -1   3    7.00    4.80
   6   1  -3   -0.40    2.90
   6   1  -3    0.70    2.30
  -6  -1   3    0.50    2.90
  -6  -1   3    3.50    4.10
   5   1  -3   32.40    2.10
   5   1  -3   31.60    3.00
   5   1  -3   31.10    2.90
  -5  -1   3   30.50    2.50
  -5  -1   3   30.70    3.60
  -5  -1   3   35.30    3.20
  -5  -1   3   31.70    4.30
   4   1  -3  112.59    4.90
   4   1  -3  115.19    3.60
   4   1  -3  112.59    4.80
  -4  -1   3  105.89    6.10
  -4  -1   3  108.59    5.70
  -4  -1   3  116.29    5.10
  -4  -1   3  115.89    5.90
  -4  -1   3  123.99    4.80
   3   1  -3  344.87    9.20
   3   1  -3  378.06   12.30
   3   1  -3  358.46   10.50
   3   1  -3  359.76   10.40
  -3  -1   3  363.06   10.50
  -3  -1   3  336.57   12.60
  -3  -1   3  325.17   13.80
  -3  -1   3  343.57   11.60
  -3  -1   3  352.26   10.30
  -3  -1   3  344.07   12.10
   2   1  -3   39.00    2.10
   2   1  -3   38.40    2.50
   2   1  -3   41.90    2.30
   2   1  -3   35.70    2.30
  -2  -1   3   45.70    2.40
  -2  -1   3   39.10    2.60
  -2  -1   3   36.40    2.40
  -2  -1   3   35.00    2.70
  -2  -1   3   40.20    2.60
  -2  -1   3   40.50    2.10
   1   1  -3  114.89    4.50
   1   1  -3  113.89    3.90
   1   1  -3  115.99    3.90
   1   1  -3  115.59    4.30
   1   1  -3  109.89    4.40
   1   1  -3  115.79    5.30
  -1  -1   3  109.69    3.90
  -1  -1   3  112.79    5.20
  -1  -1   3  113.49    4.50
  -1  -1   3  113.79    4.10
  -1  -1   3  109.09    4.00
  -1  -1   3  119.09    4.40
  -1  -1   3  109.59    3.90
   0   1  -3 1044.00   28.40
   0   1  -3 1051.99   28.50
   0   1  -3 1052.39   30.60
   0   1  -3 1096.59   40.90
   0   1  -3 1065.69   33.30
   0   1  -3 1033.80   31.90
   0  -1   3 1061.09   28.40
   0  -1   3 1026.80   28.50
   0  -1   3 1038.90   31.90
   0  -1   3 1063.59   30.60
  -1   1  -3  847.32   22.90
  -1   1  -3  847.32   25.50
  -1   1  -3  830.42   23.80
  -1   1  -3  843.22   22.80
  -1   1  -3  840.32   24.90
   1  -1   3  841.32   22.90
   1  -1   3  831.22   22.80
   1  -1   3  818.82   23.80
   1  -1   3  848.42   24.80
  -2   1  -3  247.38    8.60
  -2   1  -3  250.97    7.50
  -2   1  -3  250.57    7.80
  -2   1  -3  246.48    7.50
   2  -1   3  241.28    7.50
   2  -1   3  243.98    7.70
   2  -1   3  248.88    7.50
   2  -1   3  244.48    7.60
  -3   1  -3   95.29    3.80
  -3   1  -3   91.89    3.70
  -3   1  -3   91.39    4.30
  -3   1  -3   89.59    4.70
   3  -1   3   97.69    4.10
   3  -1   3   96.19    4.00
   3  -1   3   93.49    4.20
  -4   1  -3  129.89    4.80
  -4   1  -3  130.89    5.10
  -4   1  -3  127.69    6.40
  -4   1  -3  130.59    5.80
  -4   1  -3  130.69    5.70
   4  -1   3  128.19    5.10
   4  -1   3  128.79    5.30
   4  -1   3  124.39    5.70
  -5   1  -3   89.79    4.10
  -5   1  -3   89.29    4.40
  -5   1  -3   95.39    5.70
  -5   1  -3   95.09    5.00
   5  -1   3   86.39    6.40
   5  -1   3   97.59    5.00
   5  -1   3   91.29    4.30
  -6   1  -3   44.10    4.40
  -6   1  -3   37.40    4.40
  -6   1  -3   49.50    5.30
   6  -1   3   36.40    6.00
   6  -1   3   45.70    3.90
  -7   1  -3    4.40    4.10
  -7   1  -3    4.50    5.00
   7  -1   3   -1.10    4.30
   7  -1   3   -1.20    2.80
  -8   1  -3    0.20    4.20
   8  -1   3   -0.20    6.80
   8   0  -3    0.90    6.70
   8   0  -3    6.80    4.30
  -8   0   3   -2.40    5.70
   7   0  -3    9.60    4.50
   7   0  -3   18.10    3.90
  -7   0   3   12.80    5.20
   6   0  -3  105.69    8.00
  -6   0   3  126.19    7.70
  -6   0   3  118.19    6.50
   5   0  -3   53.39    3.60
   5   0  -3   52.99    4.10
  -5   0   3   46.70    3.90
  -5   0   3   52.19    4.30
  -5   0   3   56.89    3.00
  -5   0   3   48.60    3.30
  -5   0   3   45.40    4.90
   4   0  -3    0.90    1.70
   4   0  -3    1.70    1.80
   4   0  -3    3.40    1.70
  -4   0   3    1.50    0.90
  -4   0   3    3.10    2.50
  -4   0   3    2.40    1.80
  -4   0   3    2.90    1.80
   3   0  -3  534.75   15.30
   3   0  -3  535.95   15.40
   3   0  -3  570.94   17.40
  -3   0   3  543.45   15.20
  -3   0   3  549.25   17.00
  -3   0   3  522.85   15.30
  -3   0   3  483.65   20.30
  -3   0   3  541.05   17.20
  -3   0   3  514.35   18.70
   2   0  -3  134.79    5.10
   2   0  -3  127.99    4.40
   2   0  -3  132.09    4.90
   2   0  -3  128.09    4.50
  -2   0   3  125.59    4.60
  -2   0   3  133.59    4.40
  -2   0   3  129.49    5.10
  -2   0   3  134.69    5.30
  -2   0   3  128.79    5.80
   1   0  -3 1524.55   45.50
   1   0  -3 1497.25   40.40
   1   0  -3 1525.55   40.50
   1   0  -3 1527.75   43.20
   1   0  -3 1458.65   48.00
  -1   0   3 1578.44   48.00
  -1   0   3 1514.75   40.50
  -1   0   3 1530.25   43.20
  -1   0   3 1491.75   40.40
  -1   0   3 1469.95   45.50
   0   0  -3    5.60    1.00
   0   0  -3    4.00    0.90
   0   0  -3    4.40    0.60
   0   0  -3    6.50    1.00
   0   0  -3    4.80    0.90
   0   0  -3    5.70    1.00
   0   0   3    7.60    0.90
   0   0   3    6.50    1.00
   0   0   3    6.00    0.90
   0   0   3    6.10    1.00
   0   0   3    5.20    0.80
   0   0   3    5.10    0.70
  -1   0  -3  590.84   15.80
  -1   0  -3  569.44   15.80
  -1   0  -3  583.44   17.30
   1   0   3  568.34   15.80
   1   0   3  576.24   17.30
   1   0   3  584.84   15.80
   1   0   3  606.94   14.90
  -2   0  -3  349.77    9.60
  -2   0  -3  360.36   10.70
  -2   0  -3  349.87    9.70
  -2   0  -3  338.67   11.20
   2   0   3  342.07    9.70
   2   0   3  356.16    9.40
   2   0   3  363.76   10.00
  -3   0  -3  728.83   19.80
  -3   0  -3  754.12   22.00
  -3   0  -3  740.03   19.90
   3   0   3  726.13   20.00
   3   0   3  729.63   20.00
   3   0   3  748.53   19.10
   3   0   3  749.23   20.00
  -4   0  -3  122.89    3.90
  -4   0  -3  124.99    5.00
  -4   0  -3  123.99    5.60
  -4   0  -3  126.79    3.90
   4   0   3  116.99    5.50
   4   0   3  128.09    4.20
   4   0   3  128.69    4.30
   4   0   3  124.99    4.40
  -5   0  -3   39.60    2.00
  -5   0  -3   40.30    1.90
  -5   0  -3   35.70    3.70
  -5   0  -3   33.60    3.50
  -5   0  -3   47.00    3.30
   5   0   3   43.50    2.40
   5   0   3   43.00    2.90
   5   0   3   39.40    2.70
   5   0   3   42.10    4.40
  -6   0  -3    0.90    3.10
  -6   0  -3    3.00    2.00
   6   0   3   -4.90    3.90
   6   0   3    0.50    1.60
  -7   0  -3   25.00    4.70
   7   0   3   38.80    5.70
  -8   0  -3   12.20    5.00
  -8   0  -3    9.20    4.60
   8   0   3    7.90    5.40
   7  -1  -3    7.10    3.70
   7  -1  -3   -4.60    4.20
  -7   1   3   -1.70    3.70
   6  -1  -3    6.30    3.40
  -6   1   3    4.50    4.50
  -6   1   3   -2.10    2.40
   5  -1  -3   69.09    4.50
   5  -1  -3   81.59    5.10
  -5   1   3   79.89    4.70
  -5   1   3   80.09    6.80
  -5   1   3   72.39    4.70
   4  -1  -3  301.87   10.30
   4  -1  -3  326.47   10.40
   4  -1  -3  325.47   11.00
  -4   1   3  285.67   13.10
  -4   1   3  306.27   11.90
  -4   1   3  333.57   11.00
  -4   1   3  317.57   10.40
   3  -1  -3  232.78    8.00
   3  -1  -3  240.28    7.90
   3  -1  -3  255.47    8.60
  -3   1   3  239.58    8.90
  -3   1   3  245.88    8.20
  -3   1   3  244.58    8.50
  -3   1   3  231.28   10.20
   2  -1  -3  334.47   11.00
   2  -1  -3  339.77   10.20
   2  -1  -3  347.77   13.80
   2  -1  -3  340.07   11.00
   2  -1  -3  327.47   10.10
  -2   1   3  352.16   13.70
  -2   1   3  338.17   11.00
  -2   1   3  328.87   11.00
  -2   1   3  343.87   10.30
  -2   1   3  322.27   12.50
  -2   1   3  330.77   10.00
   1  -1  -3  982.90   33.80
   1  -1  -3 1009.00   40.20
   1  -1  -3 1037.40   30.30
   1  -1  -3 1023.50   28.20
   1  -1  -3 1030.30   31.50
   1  -1  -3 1054.39   28.40
  -1   1   3 1069.19   33.90
  -1   1   3 1032.90   28.40
  -1   1   3 1055.29   28.20
  -1   1   3 1020.20   30.30
  -1   1   3 1130.09   40.10
   0  -1  -3 1171.78   44.20
   0  -1  -3 1124.89   30.80
   0  -1  -3 1177.98   30.90
   0  -1  -3 1101.59   36.50
   0  -1  -3 1141.39   33.10
   0   1   3 1174.68   32.70
   0   1   3 1186.38   36.60
   0   1   3 1106.89   33.20
   0   1   3 1141.19   30.80
   0   1   3 1120.59   30.90
  -1  -1  -3 1143.69   29.80
  -1  -1  -3 1113.69   32.00
  -1  -1  -3 1111.19   35.50
  -1  -1  -3 1103.99   29.80
   1   1   3 1111.69   28.30
   1   1   3 1135.19   35.50
   1   1   3 1127.49   29.80
   1   1   3 1117.79   27.90
   1   1   3 1094.69   29.80
   2   1   3  179.08    5.80
   2   1   3  184.48    5.20
   2   1   3  172.78    4.80
   2   1   3  169.68    4.80
   3   1   3   14.60    1.60
   3   1   3   10.90    2.20
  -4  -1  -3  364.16   12.20
  -4  -1  -3  366.26   10.90
   4   1   3  365.06   11.70
   4   1   3  365.96   10.30
  -5  -1  -3  287.67   10.80
  -5  -1  -3  280.17   10.80
   5   1   3  268.77   10.00
   5   1   3  281.67    8.50
  -6  -1  -3   24.10    3.40
  -6  -1  -3   19.90    3.30
   6   1   3   20.60    2.70
   6   1   3   17.30    5.10
  -7  -1  -3    7.10    4.10
  -7  -1  -3    1.40    2.70
   7   1   3    1.40    3.70
   7   1   3   -2.80    2.40
  -8  -1  -3   -3.40    4.50
   8   1   3   -3.10    6.00
   7  -2  -3   25.30    5.40
   7  -2  -3   20.50    7.40
  -7   2   3   20.50    4.90
   6  -2  -3   32.10    4.70
  -6   2   3   17.90    5.20
   5  -2  -3    4.10    3.40
  -5   2   3    5.80    3.10
  -5   2   3    2.50    2.80
   4  -2  -3   66.49    4.90
   4  -2  -3   66.69    3.40
   4  -2  -3   54.59    4.40
  -4   2   3   66.59    4.70
  -4   2   3   61.89    5.90
  -4   2   3   64.89    5.00
   3  -2  -3  167.08    6.70
   3  -2  -3  155.58    6.30
   3  -2  -3  171.68    6.10
  -3   2   3  164.58    8.20
  -3   2   3  161.98    7.50
  -3   2   3  163.18    6.70
   2  -2  -3  942.21   27.50
   2  -2  -3  896.01   36.10
   2  -2  -3  899.51   27.10
   2  -2  -3  893.81   25.20
   2  -2  -3  936.81   25.40
  -2   2   3  828.62   30.30
  -2   2   3  885.21   27.20
  -2   2   3  887.41   25.40
  -2   2   3  918.41   35.80
  -2   2   3  900.71   25.10
   1  -2  -3  497.35   22.00
   1  -2  -3  552.54   16.70
   1  -2  -3  529.05   18.70
   1  -2  -3  519.65   15.30
   1  -2  -3  528.05   15.50
  -1   2   3  529.95   16.70
  -1   2   3  528.15   15.50
  -1   2   3  542.95   15.30
  -1   2   3  541.45   18.70
  -1   2   3  577.04   21.90
   0  -2  -3   -0.10    0.90
   0  -2  -3    1.30    1.20
   0  -2  -3    6.40    1.30
   0  -2  -3   -0.20    1.00
   0  -2  -3    1.30    1.30
   0   2   3    1.30    0.50
   0   2   3    1.80    1.80
   0   2   3   -0.80    1.00
   0   2   3    0.00    1.10
   0   2   3   -1.00    1.20
   0   2   3    1.70    1.30
  -1  -2  -3  526.65   17.40
  -1  -2  -3  540.25   14.80
  -1  -2  -3  518.35   14.70
  -1  -2  -3  532.05   21.50
  -1  -2  -3  514.15   15.10
   1   2   3  558.24   21.50
   1   2   3  539.85   14.70
   1   2   3  524.55   17.30
   1   2   3  507.25   13.70
   1   2   3  526.05   14.80
  -2  -2  -3  221.38    9.80
  -2  -2  -3  207.18    6.20
  -2  -2  -3  208.98    7.60
  -2  -2  -3  209.98    6.10
   2   2   3  211.08    6.20
   2   2   3  204.58    6.20
   2   2   3  204.38    6.70
  -3  -2  -3  168.78    8.10
   3   2   3  150.58    5.60
   3   2   3  155.38    4.30
   3   2   3  149.39    4.30
   3   2   3  158.88    5.10
   4   2   3   16.60    2.10
   4   2   3   16.40    2.60
  -5  -2  -3   11.20    2.50
   5   2   3   12.00    2.30
   5   2   3    9.50    2.90
  -6  -2  -3  250.47   10.20
  -6  -2  -3  259.57   13.00
  -6  -2  -3  220.68   10.60
   6   2   3  242.48    8.10
   6   2   3  224.48   10.30
  -7  -2  -3   18.30    4.40
  -7  -2  -3   13.80    3.90
  -7  -2  -3   17.60    4.00
   7   2   3   18.60    3.40
   7   2   3   16.80    4.60
  -8  -2  -3    9.60    5.00
   8   2   3    9.50    3.70
   8   2   3    7.00    5.90
   7  -3  -3   -5.30    7.20
   7  -3  -3    3.80    5.60
  -7   3   3    3.40    5.90
   6  -3  -3   28.50    5.10
  -6   3   3   11.40    5.30
   5  -3  -3   84.99    6.70
  -5   3   3   66.49    6.00
  -5   3   3   66.79    6.40
   4  -3  -3  104.59    5.90
  -4   3   3  126.59    7.90
  -4   3   3  105.49    5.80
   3  -3  -3    0.20    2.50
   3  -3  -3    1.30    1.00
   3  -3  -3    3.00    2.90
  -3   3   3    4.20    2.90
  -3   3   3    4.20    2.20
  -3   3   3    1.40    3.00
   2  -3  -3   72.29    4.60
   2  -3  -3   59.89    6.50
   2  -3  -3   76.19    3.60
   2  -3  -3   68.59    4.10
  -2   3   3   81.59    5.40
  -2   3   3   75.29    4.90
  -2   3   3   78.69    5.50
   1  -3  -3   76.99    6.30
   1  -3  -3   76.49    4.90
   1  -3  -3   76.99    3.90
   1  -3  -3   69.99    4.20
   1  -3  -3   77.29    4.80
  -1   3   3   70.89    4.40
  -1   3   3   69.89    4.40
  -1   3   3   82.59    5.50
  -1   3   3   76.19    4.70
  -1   3   3   79.69    3.80
   0  -3  -3  233.58    8.10
   0  -3  -3  231.48    9.40
   0  -3  -3  240.18    8.10
   0  -3  -3  234.68   11.70
   0  -3  -3  249.78    9.20
   0   3   3  246.88    9.60
   0   3   3  270.97   11.60
   0   3   3  237.08    7.30
   0   3   3  249.38    7.90
   0   3   3  231.08    8.00
  -1  -3  -3  173.18    7.10
  -1  -3  -3  182.28    6.40
  -1  -3  -3  190.18    9.30
  -1  -3  -3  189.48    6.50
   1   3   3  183.28    5.80
   1   3   3  192.78    6.50
   1   3   3  179.78    6.60
   1   3   3  213.28    9.50
   1   3   3  194.28    7.20
  -2  -3  -3   49.80    2.80
  -2  -3  -3   53.99    4.70
  -2  -3  -3   43.30    2.50
  -2  -3  -3   55.49    2.90
   2   3   3   49.40    2.80
   2   3   3   49.80    2.70
   2   3   3   46.90    2.40
   2   3   3   50.69    3.10
   2   3   3   40.90    2.80
  -3  -3  -3  129.69    5.40
  -3  -3  -3  120.29    4.10
  -3  -3  -3  124.69    4.20
  -3  -3  -3  122.89    7.40
   3   3   3  120.39    5.20
   3   3   3  117.59    4.30
   3   3   3  114.49    4.40
  -4  -3  -3  229.98    6.50
  -4  -3  -3  238.38    6.60
  -4  -3  -3  262.07   12.20
  -4  -3  -3  257.07    9.40
   4   3   3  241.58    8.40
   4   3   3  245.08    6.90
   4   3   3  236.08    7.60
  -5  -3  -3  101.49    7.40
  -5  -3  -3   92.59    6.10
   5   3   3   88.29    5.30
   5   3   3   96.79    4.60
  -6  -3  -3    6.20    3.70
  -6  -3  -3    6.70    3.10
   6   3   3    2.50    4.10
   6   3   3    7.50    2.70
  -7  -3  -3    0.00    3.60
  -7  -3  -3    5.10    4.00
  -7  -3  -3    4.20    3.20
   7   3   3   10.90    5.40
   7   3   3    8.90    3.10
  -8  -3  -3    1.10    4.90
  -8  -3  -3    3.90    4.40
   8   3   3    7.30    5.90
   8   3   3    0.80    3.20
   6  -4  -3   -0.40    5.10
  -6   4   3   -8.90    5.20
   5  -4  -3   -2.60    4.50
  -5   4   3    8.40    5.10
  -5   4   3   -2.20    3.90
   4  -4  -3   66.29    6.10
  -4   4   3   66.39    6.00
  -4   4   3   80.39    7.80
   3  -4  -3  109.99    3.90
   3  -4  -3  105.39    9.80
   3  -4  -3  106.99    6.10
  -3   4   3  123.69    7.10
  -3   4   3  113.99    6.90
   2  -4  -3   58.29    3.30
   2  -4  -3   41.10    5.60
   2  -4  -3   50.39    4.70
  -2   4   3   57.59    4.50
  -2   4   3   57.39    5.90
  -2   4   3   54.19    4.10
   1  -4  -3    7.40    3.60
   1  -4  -3    8.30    2.90
  -1   4   3    5.80    1.60
  -1   4   3    6.10    3.10
  -1   4   3    9.10    3.10
   0  -4  -3   53.59    4.20
   0  -4  -3   54.49    5.30
   0  -4  -3   58.29    4.70
   0   4   3   61.59    3.90
   0   4   3   58.69    4.50
   0   4   3   57.29    2.60
  -1  -4  -3  232.08    8.20
  -1  -4  -3  213.98   11.80
  -1  -4  -3  221.08    8.90
   1   4   3  228.88    8.10
   1   4   3  228.28    7.90
   1   4   3  249.48    9.10
  -2  -4  -3   64.09    6.10
  -2  -4  -3   65.79    3.80
  -2  -4  -3   61.89    2.60
  -2  -4  -3   67.69    3.80
   2   4   3   68.79    3.60
   2   4   3   71.79    4.40
   2   4   3   70.49    3.80
   2   4   3   66.69    3.60
  -3  -4  -3    1.40    2.60
  -3  -4  -3    3.30    1.70
  -3  -4  -3    4.50    1.60
   3   4   3    1.00    2.00
   3   4   3    4.60    2.00
   3   4   3    8.00    2.40
   3   4   3    3.30    1.70
  -4  -4  -3    6.20    2.60
  -4  -4  -3    8.90    2.10
  -4  -4  -3    6.40    3.00
  -4  -4  -3   13.20    1.60
   4   4   3   12.90    2.60
   4   4   3    9.00    3.00
   4   4   3   11.00    1.80
  -5  -4  -3   65.79    6.90
  -5  -4  -3   49.10    5.40
  -5  -4  -3   56.19    4.40
   5   4   3   62.29    5.20
   5   4   3   55.49    2.60
   5   4   3   54.19    4.10
  -6  -4  -3   45.20    5.80
  -6  -4  -3   61.19    8.20
  -6  -4  -3   57.89    5.30
   6   4   3   52.99    5.80
   6   4   3   58.99    4.60
  -7  -4  -3   -3.80    4.20
  -7  -4  -3    1.80    4.00
  -7  -4  -3   -1.80    4.20
  -7  -4  -3    1.20    2.90
   7   4   3    1.30    3.50
   7   4   3   -2.40    3.00
  -8  -4  -3    5.00    3.80
  -8  -4  -3   -1.60    5.10
   8   4   3    8.30    4.80
   8   4   3    4.80    3.60
   6  -5  -3    1.40    5.70
  -6   5   3    4.50    6.40
  -6   5   3    4.50    5.00
   5  -5  -3   12.90    5.90
  -5   5   3    2.70    4.10
  -5   5   3    3.90    3.20
   4  -5  -3   39.70    5.20
  -4   5   3   36.50    4.60
  -4   5   3   40.70    5.00
  -4   5   3   24.70    5.70
   3  -5  -3   13.30    4.80
   3  -5  -3   -1.10    4.70
  -3   5   3   12.00    3.00
  -3   5   3   16.70    4.90
  -3   5   3   10.40    3.50
   2  -5  -3   62.69    3.40
   2  -5  -3   67.49    6.00
   2  -5  -3   54.19    7.30
  -2   5   3   66.79    6.50
  -2   5   3   53.49    5.70
  -2   5   3   63.99    4.40
   1  -5  -3  104.99   10.20
   1  -5  -3   96.89    5.80
  -1   5   3  102.89    4.80
  -1   5   3  110.39    6.10
  -1   5   3   96.39    6.50
   0  -5  -3   35.60    3.70
   0  -5  -3   23.30    4.80
   0   5   3   38.50    2.60
   0   5   3   35.40    4.40
  -1  -5  -3    5.60    2.80
  -1  -5  -3    5.00    2.30
  -1  -5  -3    9.40    2.40
   1   5   3    7.20    2.50
   1   5   3   12.00    3.00
   1   5   3    8.40    2.50
  -2  -5  -3   87.59    8.10
  -2  -5  -3   89.39    3.30
  -2  -5  -3   94.29    5.30
  -2  -5  -3   88.09    5.00
   2   5   3   88.39    5.40
   2   5   3   87.29    5.00
   2   5   3   95.29    4.70
  -3  -5  -3   66.79    4.20
  -3  -5  -3   63.49    3.40
  -3  -5  -3   68.79    7.60
  -3  -5  -3   72.99    4.10
  -3  -5  -3   72.59    6.30
   3   5   3   79.99    4.40
   3   5   3   67.19    4.10
   3   5   3   73.69    5.10
  -4  -5  -3   61.39    3.80
  -4  -5  -3   68.99    3.90
  -4  -5  -3   65.89    6.90
  -4  -5  -3   75.59    4.40
  -4  -5  -3   66.09    7.80
   4   5   3   65.29    4.20
   4   5   3   69.89    4.40
   4   5   3   72.79    4.90
   4   5   3   74.39    5.00
  -5  -5  -3    9.60    4.40
  -5  -5  -3    3.70    2.20
  -5  -5  -3    2.60    3.60
   5   5   3    6.60    3.40
   5   5   3   10.40    2.10
   5   5   3    6.10    3.20
  -6  -5  -3    5.40    4.10
  -6  -5  -3    7.80    3.70
  -6  -5  -3    6.60    2.70
   6   5   3    6.20    3.40
   6   5   3    7.60    1.50
   6   5   3   11.20    2.90
  -7  -5  -3   11.00    4.30
  -7  -5  -3    4.80    4.60
   7   5   3    7.20    3.00
   7   5   3    7.60    4.00
   5  -6  -3    2.60    6.20
  -5   6   3    6.00    4.40
  -5   6   3    0.80    5.50
   4  -6  -3   27.40    5.40
  -4   6   3   15.80    4.20
  -4   6   3   27.70    6.20
  -4   6   3   13.70    5.80
   3  -6  -3    4.30    6.40
   3  -6  -3   25.40    6.00
  -3   6   3   15.60    4.50
  -3   6   3   10.40    3.30
  -3   6   3    7.60    5.20
   2  -6  -3   -7.50    5.40
   2  -6  -3    2.20    4.80
   2  -6  -3    1.10    1.60
  -2   6   3   -1.00    4.30
  -2   6   3    0.60    2.60
  -2   6   3   -0.70    3.40
   1  -6  -3   -1.80    4.10
   1  -6  -3    0.50    5.10
   1  -6  -3    5.20    2.40
  -1   6   3    4.10    4.50
  -1   6   3    2.20    2.10
   0  -6  -3  108.49    6.40
   0  -6  -3  112.09    6.10
   0  -6  -3   96.69    9.50
   0   6   3  107.39    4.80
   0   6   3  103.09    7.70
  -1  -6  -3   53.39    5.30
  -1  -6  -3   41.10    6.30
  -1  -6  -3   54.19    4.50
   1   6   3   57.89    5.70
  -2  -6  -3   60.49    7.20
  -2  -6  -3   62.99    2.70
  -2  -6  -3   58.49    5.40
  -2  -6  -3   64.99    6.30
  -2  -6  -3   63.59    5.00
   2   6   3   70.29    5.20
   2   6   3   73.09    4.40
  -3  -6  -3   -0.50    1.90
  -3  -6  -3    2.20    4.10
  -3  -6  -3   -6.30    3.40
  -3  -6  -3   -1.00    2.90
   3   6   3   -6.30    3.10
   3   6   3    0.40    3.00
   3   6   3   -2.40    3.00
  -4  -6  -3    4.60    3.00
  -4  -6  -3   -1.10    2.90
  -4  -6  -3   -1.00    1.90
   4   6   3    2.10    2.60
   4   6   3    0.10    2.80
  -5  -6  -3   12.70    4.70
  -5  -6  -3   16.10    4.10
   5   6   3   19.80    4.40
   5   6   3   16.90    3.30
   5   6   3   12.10    4.00
  -6  -6  -3    2.60    3.90
  -6  -6  -3    6.70    4.70
   6   6   3    6.70    3.20
   6   6   3   11.80    4.30
   6   6   3    4.60    2.30
  -7  -6  -3    3.70    5.60
  -7  -6  -3   -0.20    5.00
   7   6   3    4.80    4.70
   7   6   3    6.80    5.00
   4  -7  -3    4.30    5.00
  -4   7   3   -2.10    3.80
  -4   7   3    3.80    6.30
  -4   7   3    1.70    5.90
   3  -7  -3    2.30    7.60
   3  -7  -3   14.90    6.50
  -3   7   3   11.70    6.30
  -3   7   3    8.60    3.80
   2  -7  -3   23.70    6.30
   2  -7  -3    2.80    7.00
  -2   7   3   21.90    6.30
  -2   7   3   16.10    3.40
   1  -7  -3   18.30    3.10
   1  -7  -3    8.70    6.80
   1  -7  -3   21.40    4.60
  -1   7   3   14.50    4.50
  -1   7   3   17.40    2.90
   0  -7  -3   13.10    5.10
   0  -7  -3    3.70    2.80
   0  -7  -3    0.80    5.80
   0   7   3   -0.30    3.60
   0   7   3    4.90    2.20
  -1  -7  -3    1.40    4.30
  -1  -7  -3   -1.90    5.10
  -1  -7  -3    3.30    3.10
   1   7   3   -5.10    3.40
  -2  -7  -3    9.60    3.80
  -2  -7  -3    5.40    4.00
  -2  -7  -3    1.30    5.00
   2   7   3   14.80    5.00
  -3  -7  -3    7.00    3.30
  -3  -7  -3    5.90    3.80
  -3  -7  -3   13.40    5.40
   3   7   3    9.90    3.20
   3   7   3    7.70    4.40
  -4  -7  -3    4.30    5.10
  -4  -7  -3    6.30    3.80
   4   7   3    6.40    4.40
   4   7   3    2.90    3.20
  -5  -7  -3   -4.10    5.00
  -5  -7  -3    2.50    5.10
   5   7   3   -0.80    3.40
   5   7   3   -6.00    3.40
  -6  -7  -3    5.20    4.30
  -6  -7  -3   11.60    5.60
   6   7   3    8.40    4.30
   6   7   3   11.00    3.30
   6   7   3    9.10    5.20
  -7  -7  -3    2.60    4.80
   7   7   3    4.00    5.00
   3  -8  -3   -6.10    8.30
   3  -8  -3    5.10    5.20
  -3   8   3   13.90    7.20
   2  -8  -3    3.90    4.80
   2  -8  -3   -4.20    7.60
  -2   8   3    3.60    4.80
   1  -8  -3    1.20    7.60
   1  -8  -3   11.40    6.20
  -1   8   3   16.30    6.90
   0  -8  -3    5.10    3.10
   0  -8  -3    9.30    4.50
   0  -8  -3    4.30    5.20
   0   8   3   -1.10    6.10
  -1  -8  -3    0.40    3.60
  -1  -8  -3    1.90    5.00
  -1  -8  -3   -0.90    4.90
   1   8   3    0.00    5.70
  -2  -8  -3    4.00    3.10
  -2  -8  -3   -2.70    4.50
  -2  -8  -3   -0.90    6.00
   2   8   3    0.10    5.50
  -3  -8  -3   -1.10    5.90
  -3  -8  -3    1.90    4.50
   3   8   3    3.30    4.90
   3   8   3   -1.10    3.20
  -4  -8  -3    2.40    3.80
  -4  -8  -3    3.10    5.90
   4   8   3    6.90    5.20
   4   8   3    5.40    4.80
  -5  -8  -3    1.00    4.10
  -5  -8  -3    5.80    6.00
   5   8   3   -0.70    4.00
   5   8   3   -4.00    5.30
  -6  -8  -3   12.50    6.40
  -6  -8  -3   21.20    6.80
   6   8   3   -0.70    6.00
   6   8   3    8.90    4.00
   1  -9  -3    1.30    5.00
   1  -9  -3  -10.70    8.20
  -1   9   3    4.90    5.50
   0  -9  -3   -1.50    7.50
   0  -9  -3   -0.10    6.20
   0   9   3    3.80    5.40
  -1  -9  -3    1.60    4.40
  -1  -9  -3    6.20    4.60
  -1  -9  -3    5.20    7.90
   1   9   3   10.50    7.20
  -2  -9  -3    1.30    5.60
  -2  -9  -3    5.60    4.50
   2   9   3    0.00    6.60
  -3  -9  -3   -1.10    5.00
  -3  -9  -3  -10.10    6.60
   3   9   3    3.80    6.20
   3   9   3    7.30    5.30
  -4  -9  -3   -0.20    4.10
  -4  -9  -3    0.90    7.10
   4   9   3    0.30    5.70
   4   9   3   -0.80    5.40
   4   9  -4   -2.50    5.00
  -4  -9   4   -9.70    8.10
  -4  -9   4   -5.00    6.80
   3   9  -4   -0.90    4.10
   3   9  -4    2.00    7.30
  -3  -9   4  -11.40    8.20
  -3  -9   4   -9.20    5.80
   2   9  -4    5.40    7.40
   2   9  -4    8.00    5.00
  -2  -9   4    0.60    6.10
  -2  -9   4  -13.50    8.20
  -2  -9   4   -4.50    6.50
   1   9  -4    2.40    7.40
   1   9  -4    2.30    5.20
  -1  -9   4  -10.50    5.50
  -1  -9   4   -5.40    9.00
  -1  -9   4    1.50    5.10
   0   9  -4   -5.50    5.50
   0   9  -4   -1.90    5.30
   0  -9   4    2.70    5.40
   0  -9   4   -5.00    9.40
   5   8  -4    2.80    5.50
  -5  -8   4   -2.80    6.60
  -5  -8   4   -3.70    6.60
   4   8  -4   -4.60    5.50
  -4  -8   4    2.80    6.40
  -4  -8   4   -2.40    6.60
   3   8  -4    5.60    4.10
   3   8  -4    3.60    6.10
  -3  -8   4   -1.30    5.20
  -3  -8   4   -0.80    5.60
  -3  -8   4   -4.40    5.00
   2   8  -4   -3.60    3.90
   2   8  -4   -4.50    5.80
   2   8  -4   -5.90    3.90
  -2  -8   4   -2.20    3.80
  -2  -8   4   -1.00    4.20
  -2  -8   4   -4.30    7.30
   1   8  -4   -5.50    4.30
   1   8  -4   -8.10    4.20
   1   8  -4  -11.10    3.90
  -1  -8   4    0.10    4.70
  -1  -8   4    0.60    4.40
  -1  -8   4   -1.60    7.80
   0   8  -4   11.60    4.20
   0   8  -4    6.10    4.00
   0   8  -4   12.10    5.20
   0  -8   4    0.70    8.50
   0  -8   4   10.50    5.00
   0  -8   4    3.70    4.90
  -1   8  -4   39.50    6.70
  -1   8  -4   35.20    6.10
  -1   8  -4   29.90    5.50
   1  -8   4   10.60    9.60
   1  -8   4   41.20    8.00
  -2   8  -4   -4.10    5.70
  -2   8  -4    1.50    4.30
  -2   8  -4    0.40    4.70
   2  -8   4   -4.30    6.90
   6   7  -4   -1.70    4.80
   6   7  -4   -5.90    4.70
  -6  -7   4    4.70    6.50
   5   7  -4    2.90    4.50
  -5  -7   4   -3.70    5.70
  -5  -7   4   -4.40    5.30
   4   7  -4   -1.70    4.60
   4   7  -4   -0.70    2.90
  -4  -7   4   -3.50    5.50
  -4  -7   4   -2.70    5.40
  -4  -7   4    4.80    4.30
   3   7  -4    9.60    3.90
   3   7  -4    7.20    3.30
  -3  -7   4    7.00    3.60
  -3  -7   4    8.80    6.50
  -3  -7   4    6.00    5.20
   2   7  -4    5.90    3.90
   2   7  -4   15.30    5.40
   2   7  -4   16.30    4.00
  -2  -7   4   13.10    6.70
  -2  -7   4   12.10    4.00
  -2  -7   4    2.20    4.50
   1   7  -4   14.70    5.50
   1   7  -4    8.30    4.30
   1   7  -4    8.20    3.80
  -1  -7   4   21.00    4.80
  -1  -7   4    8.00    4.10
  -1  -7   4    7.80    7.10
   0   7  -4    0.50    4.20
   0   7  -4   -1.00    5.10
   0   7  -4   -9.20    3.20
   0  -7   4   -4.50    3.60
   0  -7   4   -3.20    5.10
   0  -7   4   -5.60    5.10
  -1   7  -4    7.20    4.30
  -1   7  -4   10.50    4.00
  -1   7  -4    4.50    4.90
   1  -7   4    8.10    7.90
   1  -7   4    8.00    5.80
   1  -7   4    0.90    3.60
  -2   7  -4   18.80    4.70
  -2   7  -4   19.80    5.70
  -2   7  -4   20.30    4.80
   2  -7   4   15.00    6.50
  -3   7  -4   11.70    4.90
  -3   7  -4    7.00    5.80
  -3   7  -4    6.90    5.80
   3  -7   4   12.80    5.40
  -4   7  -4   -3.50    4.90
  -4   7  -4   -2.40    6.10
   4  -7   4    2.10    6.70
   7   6  -4   -1.10    3.90
   7   6  -4   -1.10    3.70
   7   6  -4    0.60    3.80
  -7  -6   4    3.80    6.10
  -7  -6   4   -4.80    6.30
   6   6  -4    2.40    4.00
   6   6  -4    5.90    3.50
   6   6  -4    3.70    4.10
  -6  -6   4   -3.40    5.50
   5   6  -4   10.60    4.00
  -5  -6   4   -0.30    4.30
  -5  -6   4   10.70    5.50
   4   6  -4   14.00    3.30
  -4  -6   4   10.70    3.90
  -4  -6   4    8.40    4.00
  -4  -6   4   11.50    5.40
   3   6  -4    4.30    3.10
  -3  -6   4    5.40    3.60
  -3  -6   4    3.20    3.60
  -3  -6   4    2.60    4.90
   2   6  -4    4.10    3.10
   2   6  -4    2.40    3.50
  -2  -6   4    4.80    5.30
  -2  -6   4    4.10    3.10
  -2  -6   4    3.90    4.10
   1   6  -4   28.10    5.10
   1   6  -4   32.80    4.30
   1   6  -4   29.40    2.90
  -1  -6   4   21.00    6.50
  -1  -6   4   31.50    4.20
  -1  -6   4   32.00    4.40
   0   6  -4   71.39    5.80
   0   6  -4   68.49    5.90
   0  -6   4   66.89    6.30
   0  -6   4   59.79    5.60
   0  -6   4   51.39    8.40
  -1   6  -4   23.20    4.20
  -1   6  -4   22.60    4.00
  -1   6  -4   24.60    4.30
   1  -6   4    9.30    7.20
   1  -6   4   23.80    4.50
   1  -6   4   17.10    3.80
  -2   6  -4    1.10    3.40
  -2   6  -4    3.60    3.30
  -2   6  -4    2.10    3.50
   2  -6   4    1.10    5.20
  -3   6  -4    3.80    4.80
  -3   6  -4    8.20    4.80
  -3   6  -4    5.90    4.40
   3  -6   4    1.10    4.10
  -4   6  -4    8.70    4.80
  -4   6  -4    8.80    5.50
   4  -6   4   18.00    6.30
  -5   6  -4    5.80    5.60
  -5   6  -4   11.80    6.20
   5  -6   4    2.60    6.60
   7   5  -4    6.30    3.60
   7   5  -4    2.10    3.90
   7   5  -4    1.90    3.50
  -7  -5   4    6.80    5.80
  -7  -5   4    4.80    4.40
   6   5  -4    3.00    3.40
   6   5  -4    7.20    3.20
   6   5  -4    2.80    3.50
  -6  -5   4    4.20    5.40
  -6  -5   4    8.50    5.10
   5   5  -4   10.40    3.40
   5   5  -4    7.90    3.00
  -5  -5   4    2.10    4.70
  -5  -5   4    3.50    3.90
   4   5  -4   55.59    4.40
   4   5  -4   43.20    3.40
   4   5  -4   50.29    4.60
  -4  -5   4   30.60    4.60
  -4  -5   4   33.00    5.10
  -4  -5   4   40.60    4.20
   3   5  -4   92.39    3.80
   3   5  -4  104.99    6.10
  -3  -5   4  114.39    7.20
  -3  -5   4  116.59    9.80
  -3  -5   4   95.69    6.00
   2   5  -4   69.79    5.10
   2   5  -4   80.89    5.70
  -2  -5   4   84.69    5.10
  -2  -5   4   80.49    6.90
  -2  -5   4   85.29    9.50
   1   5  -4   13.60    1.70
   1   5  -4   16.60    3.10
   1   5  -4   12.20    3.30
  -1  -5   4    6.60    3.20
  -1  -5   4   10.90    3.90
  -1  -5   4   10.90    3.70
   0   5  -4   12.20    3.20
   0   5  -4   18.10    3.30
   0  -5   4   14.30    3.10
   0  -5   4    8.70    5.00
   0  -5   4    7.30    2.90
  -1   5  -4  106.29    6.60
  -1   5  -4   94.19    5.80
   1  -5   4   96.39    7.00
   1  -5   4  100.69    6.10
   1  -5   4   90.59   11.50
  -2   5  -4  134.19    7.60
  -2   5  -4  120.09    6.90
  -2   5  -4  130.89    7.70
   2  -5   4  130.89    5.10
   2  -5   4  133.59    7.30
   2  -5   4  123.59    5.90
  -3   5  -4   21.50    4.40
  -3   5  -4   15.70    3.80
  -3   5  -4   19.10    3.80
   3  -5   4   18.60    4.10
   3  -5   4   16.00    3.10
  -4   5  -4   -3.90    3.20
  -4   5  -4   -3.70    3.00
  -4   5  -4   -1.30    3.80
  -4   5  -4   -1.20    3.00
   4  -5   4   -6.80    2.90
   4  -5   4    0.60    4.90
  -5   5  -4    6.70    4.10
  -5   5  -4    6.90    5.00
   5  -5   4    5.30    4.30
   5  -5   4    3.70    5.70
  -6   5  -4   34.30    6.60
  -6   5  -4   27.60    6.50
   6  -5   4   24.00    6.10
   8   4  -4   -4.50    4.80
   7   4  -4    4.50    2.50
   7   4  -4    7.20    3.40
   7   4  -4    1.20    4.20
  -7  -4   4    4.20    4.20
  -7  -4   4    0.50    5.00
   6   4  -4   22.00    4.00
   6   4  -4   16.50    2.90
   6   4  -4   17.70    3.20
  -6  -4   4   12.90    3.90
  -6  -4   4   21.40    4.30
   5   4  -4  120.99    6.30
   5   4  -4  107.89    5.60
   5   4  -4  107.49    5.20
  -5  -4   4   97.39    8.00
  -5  -4   4  132.49    8.30
  -5  -4   4  105.69    7.50
  -5  -4   4  108.29    5.50
   4   4  -4   10.60    2.50
   4   4  -4    6.00    2.50
   4   4  -4    2.00    2.50
  -4  -4   4    8.00    3.00
  -4  -4   4    7.20    3.30
  -4  -4   4    7.30    2.70
   3   4  -4   -0.10    1.40
   3   4  -4   -0.80    2.50
   3   4  -4   -0.80    1.60
  -3  -4   4    1.90    2.80
  -3  -4   4   -0.20    2.30
  -3  -4   4    0.20    2.40
   2   4  -4   69.29    4.30
   2   4  -4   68.79    4.60
   2   4  -4   75.19    4.70
  -2  -4   4   66.09    5.00
  -2  -4   4   72.19    7.20
  -2  -4   4   74.79    4.80
   1   4  -4  170.28    7.60
   1   4  -4  172.18    6.70
  -1  -4   4  168.28    6.90
  -1  -4   4  174.78    7.70
  -1  -4   4  179.88   11.20
   0   4  -4   49.99    3.80
   0   4  -4   58.39    4.00
   0   4  -4   51.69    3.50
   0  -4   4   54.29    3.60
   0  -4   4   63.29    4.60
   0  -4   4   55.19    6.30
   0  -4   4   54.79    4.10
  -1   4  -4   33.70    3.60
  -1   4  -4   35.50    3.50
  -1   4  -4   37.30    2.80
   1  -4   4   37.10    4.30
   1  -4   4   33.70    5.40
   1  -4   4   33.10    3.10
   1  -4   4   39.50    3.90
  -2   4  -4   35.80    4.10
  -2   4  -4   42.40    4.30
  -2   4  -4   47.20    2.60
   2  -4   4   47.50    3.10
   2  -4   4   41.00    4.60
   2  -4   4   45.80    3.10
   2  -4   4   41.40    3.80
  -3   4  -4  373.46   13.90
  -3   4  -4  382.26   13.40
  -3   4  -4  390.26   14.80
  -3   4  -4  393.46   13.60
   3  -4   4  401.56   12.30
   3  -4   4  402.76   14.00
  -4   4  -4   10.40    3.70
  -4   4  -4   10.10    4.10
  -4   4  -4    5.90    2.90
  -4   4  -4    7.40    3.20
   4  -4   4    7.00    4.10
   4  -4   4    7.50    3.70
  -5   4  -4   25.60    4.50
  -5   4  -4   35.60    5.50
  -5   4  -4   27.10    4.60
   5  -4   4   28.10    5.10
   5  -4   4   29.70    5.40
  -6   4  -4    1.70    4.70
  -6   4  -4    0.00    5.20
   6  -4   4   -1.80    5.50
   6  -4   4   -3.60    4.60
   8   3  -4   -2.10    3.30
   8   3  -4   -2.90    5.40
  -8  -3   4   -0.40    5.10
  -8  -3   4    0.60    6.20
   7   3  -4    9.20    3.30
   7   3  -4   16.10    4.90
  -7  -3   4   11.70    5.00
  -7  -3   4    6.10    4.00
   6   3  -4    2.20    2.50
   6   3  -4    0.60    3.40
   6   3  -4    2.40    1.80
  -6  -3   4   -1.90    3.10
  -6  -3   4   -5.80    3.80
   5   3  -4    3.30    1.70
   5   3  -4    6.40    2.30
   5   3  -4    6.50    2.80
   5   3  -4   10.30    3.00
  -5  -3   4    4.30    2.20
  -5  -3   4    2.60    2.20
  -5  -3   4    3.60    2.80
  -5  -3   4    4.50    2.80
  -5  -3   4    6.60    2.40
   4   3  -4   94.29    4.90
   4   3  -4   89.69    4.50
   4   3  -4   97.79    4.80
  -4  -3   4   95.19    4.80
  -4  -3   4   90.79    6.00
  -4  -3   4  101.89    6.70
  -4  -3   4   95.99    4.40
  -4  -3   4  102.79    6.40
   3   3  -4  131.19    7.20
   3   3  -4  121.59    5.30
   3   3  -4  123.69    5.00
   3   3  -4  121.49    4.60
  -3  -3   4  123.99    5.40
  -3  -3   4  129.19    6.50
  -3  -3   4  123.49    4.50
  -3  -3   4  128.39    7.40
   2   3  -4   69.49    4.20
   2   3  -4   67.89    3.50
   2   3  -4   68.39    3.50
   2   3  -4   61.19    5.10
  -2  -3   4   64.79    5.50
  -2  -3   4   67.09    3.90
  -2  -3   4   66.69    4.40
  -2  -3   4   68.49    3.60
   1   3  -4   35.60    3.00
   1   3  -4   31.40    3.90
   1   3  -4   31.50    1.90
   1   3  -4   31.80    2.50
   1   3  -4   34.60    3.60
   1   3  -4   31.20    2.60
  -1  -3   4   36.10    3.30
  -1  -3   4   40.20    5.10
  -1  -3   4   32.70    2.50
  -1  -3   4   37.50    3.80
  -1  -3   4   34.50    2.90
   0   3  -4  110.79    5.10
   0   3  -4  116.79    4.90
   0   3  -4  109.99    5.00
   0   3  -4  108.89    6.60
   0   3  -4  107.79    4.70
   0  -3   4  121.19    4.90
   0  -3   4  111.09    4.80
   0  -3   4  120.39    5.50
   0  -3   4  112.79    4.90
   0  -3   4  111.09    7.80
  -1   3  -4  401.56   12.40
  -1   3  -4  396.16   12.80
  -1   3  -4  393.46   13.30
   1  -3   4  387.66   12.50
   1  -3   4  384.46   12.40
   1  -3   4  405.36   13.20
   1  -3   4  393.66   12.20
  -2   3  -4  316.97   10.40
  -2   3  -4  334.17   11.90
  -2   3  -4  315.07   10.60
  -2   3  -4  312.07   10.30
   2  -3   4  321.97   10.30
   2  -3   4  329.17    9.50
   2  -3   4  311.17   10.60
   2  -3   4  316.77   10.90
  -3   3  -4   -1.40    1.90
  -3   3  -4    2.80    2.90
  -3   3  -4    0.80    0.60
  -3   3  -4    0.50    2.40
   3  -3   4    0.10    1.50
   3  -3   4   -3.40    2.00
   3  -3   4    0.50    2.30
   3  -3   4    0.40    2.70
  -4   3  -4   17.60    3.90
  -4   3  -4   20.00    3.30
  -4   3  -4   16.20    3.30
  -4   3  -4   15.00    2.90
   4  -3   4   19.80    3.60
   4  -3   4   26.70    4.10
   4  -3   4   22.00    3.40
  -5   3  -4   48.30    4.70
  -5   3  -4   43.50    5.30
  -5   3  -4   36.70    4.70
   5  -3   4   49.20    5.70
   5  -3   4   48.40    5.00
  -6   3  -4   25.00    4.90
  -6   3  -4   22.80    4.40
  -6   3  -4   20.50    5.50
   6  -3   4   26.20    4.70
   6  -3   4   29.10    6.20
  -7   3  -4    8.10    4.60
   7  -3   4   10.50    4.90
   7  -3   4    3.30    4.80
   8   2  -4   -1.40    5.60
  -8  -2   4   -5.10    4.90
  -8  -2   4    5.90    6.20
   7   2  -4   40.80    5.20
   7   2  -4   34.80    4.00
  -7  -2   4   30.40    5.20
  -7  -2   4   33.30    5.20
   6   2  -4   42.70    2.90
   6   2  -4   49.50    4.60
   6   2  -4   44.50    5.30
  -6  -2   4   31.40    5.30
  -6  -2   4   40.00    5.10
   5   2  -4   12.30    1.60
   5   2  -4   10.10    2.40
   5   2  -4   10.20    2.50
   5   2  -4   13.90    3.40
  -5  -2   4   15.20    3.20
  -5  -2   4   11.20    2.30
  -5  -2   4    7.80    3.30
  -5  -2   4    8.00    1.40
   4   2  -4    1.50    2.10
   4   2  -4    4.00    2.00
   4   2  -4    4.50    1.30
  -4  -2   4    4.10    2.80
  -4  -2   4    0.20    1.90
  -4  -2   4    4.50    2.00
  -4  -2   4    5.10    2.70
  -4  -2   4    3.30    1.40
   3   2  -4    7.40    1.30
   3   2  -4    8.80    1.90
   3   2  -4    7.90    2.00
  -3  -2   4    8.10    2.00
  -3  -2   4    5.70    1.50
  -3  -2   4    9.20    2.10
  -3  -2   4    3.70    2.10
  -3  -2   4    8.40    1.50
   2   2  -4  371.46   13.60
   2   2  -4  379.06   17.00
   2   2  -4  409.26   12.10
   2   2  -4  408.16   11.90
   2   2  -4  408.96   13.80
  -2  -2   4  415.36   12.10
  -2  -2   4  420.06   16.90
  -2  -2   4  411.86   11.90
  -2  -2   4  403.86   14.10
  -2  -2   4  419.46   13.20
  -2  -2   4  414.46   13.20
   1   2  -4  175.38    6.70
   1   2  -4  172.18    8.30
   1   2  -4  166.78    5.80
   1   2  -4  168.68    6.50
   1   2  -4  173.18    5.80
   1   2  -4  172.28    6.10
  -1  -2   4  183.68    6.50
  -1  -2   4  180.58    5.90
  -1  -2   4  178.98    7.10
  -1  -2   4  167.28    5.90
  -1  -2   4  180.98    8.50
   0   2  -4    8.60    1.80
   0   2  -4    8.60    1.40
   0   2  -4    7.10    1.80
   0   2  -4    7.30    1.20
   0   2  -4   10.10    1.80
   0  -2   4    7.90    1.60
   0  -2   4    7.30    1.70
   0  -2   4    8.20    1.40
   0  -2   4    6.40    1.50
  -1   2  -4   14.20    2.50
  -1   2  -4   16.60    1.80
  -1   2  -4   15.60    2.00
  -1   2  -4   16.80    2.10
  -1   2  -4   18.50    2.10
   1  -2   4   20.90    2.40
   1  -2   4   18.90    1.50
   1  -2   4   17.10    2.10
   1  -2   4   20.30    2.00
   1  -2   4   18.10    1.90
  -2   2  -4  493.35   16.20
  -2   2  -4  486.75   15.50
  -2   2  -4  494.95   14.90
  -2   2  -4  492.95   14.50
   2  -2   4  487.25   14.70
   2  -2   4  507.85   13.70
   2  -2   4  496.75   14.70
   2  -2   4  500.95   14.60
  -3   2  -4  225.38    7.90
  -3   2  -4  224.78    7.50
  -3   2  -4  226.78    7.70
  -3   2  -4  232.48    9.30
   3  -2   4  219.68    8.10
   3  -2   4  215.58    7.50
   3  -2   4  216.98    7.80
   3  -2   4  221.08    7.80
  -4   2  -4   42.50    3.30
  -4   2  -4   47.20    4.30
  -4   2  -4   56.69    5.60
  -4   2  -4   44.50    3.90
  -4   2  -4   48.10    2.60
   4  -2   4   53.39    3.80
   4  -2   4   56.79    4.60
   4  -2   4   47.10    4.70
  -5   2  -4   31.90    4.90
  -5   2  -4   33.40    4.20
  -5   2  -4   33.10    3.70
   5  -2   4   29.00    4.20
   5  -2   4   37.90    3.90
  -6   2  -4   18.00    3.90
  -6   2  -4   16.70    4.10
  -6   2  -4   14.70    3.90
   6  -2   4   16.50    3.80
   6  -2   4   15.20    4.20
  -7   2  -4   19.70    6.00
  -7   2  -4   14.50    4.80
   7  -2   4   23.30    6.80
   7  -2   4   21.10    4.10
   8   1  -4    1.70    3.70
   8   1  -4    5.80    6.50
  -8  -1   4    6.90    6.20
   7   1  -4   20.10    4.00
   7   1  -4   18.90    4.70
  -7  -1   4   17.10    5.70
  -7  -1   4   13.10    4.40
   6   1  -4   12.70    3.30
   6   1  -4   11.50    4.50
  -6  -1   4    1.10    4.20
  -6  -1   4   10.90    3.70
   5   1  -4   92.39    4.90
   5   1  -4   95.09    4.90
   5   1  -4   90.39    3.20
  -5  -1   4   96.89    7.10
  -5  -1   4   87.39    4.90
  -5  -1   4   96.89    6.20
   4   1  -4  158.18    4.70
   4   1  -4  164.18    6.10
   4   1  -4  163.18    6.10
  -4  -1   4  143.29    7.90
  -4  -1   4  160.08    7.70
  -4  -1   4  172.28    6.20
  -4  -1   4  162.08    7.40
   3   1  -4    0.80    1.60
   3   1  -4    3.90    1.70
   3   1  -4    1.90    1.70
  -3  -1   4   -0.30    1.70
  -3  -1   4    1.90    1.60
  -3  -1   4    4.20    1.70
  -3  -1   4    0.20    1.40
   2   1  -4   69.39    3.70
   2   1  -4   63.19    4.00
   2   1  -4   76.59    3.20
   2   1  -4   77.29    3.20
   2   1  -4   76.89    3.90
  -2  -1   4   82.89    4.00
  -2  -1   4   82.09    4.30
  -2  -1   4   71.39    3.30
  -2  -1   4   74.79    3.10
  -2  -1   4   80.69    3.90
  -2  -1   4   82.59    3.70
   1   1  -4  285.37   11.90
   1   1  -4  286.17    9.90
   1   1  -4  278.97    8.60
   1   1  -4  288.27    9.90
   1   1  -4  293.27    9.50
   1   1  -4  303.47    8.80
  -1  -1   4  277.27    9.90
  -1  -1   4  287.67    8.80
  -1  -1   4  291.87    8.60
  -1  -1   4  298.17    9.80
  -1  -1   4  288.07    9.00
  -1  -1   4  302.47    9.50
   0   1  -4  693.43   19.10
   0   1  -4  693.13   21.40
   0   1  -4  679.23   20.60
   0   1  -4  689.13   19.00
   0   1  -4  678.13   22.20
   0  -1   4  682.73   21.50
   0  -1   4  698.73   19.10
   0  -1   4  692.53   19.70
   0  -1   4  686.13   19.00
   0  -1   4  694.33   20.60
  -1   1  -4  787.52   24.30
  -1   1  -4  776.62   21.70
  -1   1  -4  847.22   21.70
  -1   1  -4  798.02   23.80
   1  -1   4  766.62   21.70
   1  -1   4  788.12   23.60
   1  -1   4  775.72   21.70
  -2   1  -4  328.97    9.70
  -2   1  -4  322.27   11.10
  -2   1  -4  353.46   10.10
  -2   1  -4  331.07   10.90
  -2   1  -4  337.27    9.90
   2  -1   4  330.17    9.90
   2  -1   4  325.47    9.90
   2  -1   4  340.57    9.70
  -3   1  -4  155.28    5.80
  -3   1  -4  161.38    5.50
  -3   1  -4  160.58    7.00
  -3   1  -4  161.08    5.30
   3  -1   4  157.98    5.60
   3  -1   4  163.68    5.60
   3  -1   4  152.18    5.80
  -4   1  -4  314.97   10.80
  -4   1  -4  312.27    9.40
  -4   1  -4  305.27   12.00
   4  -1   4  310.87    9.80
   4  -1   4  317.57   10.50
   4  -1   4  319.47    9.80
  -5   1  -4   11.80    3.80
  -5   1  -4   13.40    2.70
  -5   1  -4   12.80    1.90
  -5   1  -4   12.40    3.00
  -5   1  -4    9.70    1.90
   5  -1   4   13.50    3.30
   5  -1   4    4.10    1.80
   5  -1   4   13.50    2.60
  -6   1  -4   42.30    4.40
  -6   1  -4   33.90    3.80
  -6   1  -4   43.40    5.10
   6  -1   4   46.40    4.10
   6  -1   4   42.80    6.40
  -7   1  -4    7.90    5.20
  -7   1  -4    6.30    4.00
   7  -1   4    8.20    2.60
   7  -1   4    8.40    6.00
   8   0  -4    6.70    4.40
   8   0  -4    3.30    7.70
  -8   0   4    5.50    6.10
   7   0  -4   14.30    6.70
   7   0  -4   22.60    4.40
  -7   0   4   17.20    5.80
   6   0  -4   24.50    4.00
  -6   0   4   21.80    4.20
  -6   0   4   18.10    3.70
   5   0  -4    2.00    2.30
   5   0  -4   -1.70    2.50
  -5   0   4   -0.60    2.30
  -5   0   4    0.60    2.20
  -5   0   4   -0.20    3.40
   4   0  -4   16.30    2.70
   4   0  -4   12.20    2.40
   4   0  -4   15.90    2.60
  -4   0   4   15.10    2.60
  -4   0   4    7.40    3.10
  -4   0   4   15.00    2.50
   3   0  -4  507.15   14.70
   3   0  -4  515.75   16.60
   3   0  -4  513.15   14.80
  -3   0   4  477.25   17.90
  -3   0   4  507.45   14.90
  -3   0   4  498.45   16.10
  -3   0   4  496.45   16.50
   2   0  -4  865.01   25.40
   2   0  -4  733.63   28.50
   2   0  -4  842.52   23.70
   2   0  -4  864.91   26.60
   2   0  -4  870.31   23.80
  -2   0   4  916.41   28.50
  -2   0   4  869.61   25.60
  -2   0   4  870.51   23.60
  -2   0   4  874.41   23.90
  -2   0   4  854.51   26.70
   1   0  -4  336.17   10.00
   1   0  -4  331.77    9.90
   1   0  -4  345.07   11.90
   1   0  -4  343.27   10.50
   1   0  -4  339.77   11.20
  -1   0   4  351.46   10.70
  -1   0   4  341.37   10.10
  -1   0   4  333.77    9.80
  -1   0   4  331.37   11.30
  -1   0   4  364.46   11.80
  -1   0   4  334.27   10.50
   0   0  -4  227.18    7.70
   0   0  -4  229.48    6.80
   0   0  -4  219.78    7.20
   0   0  -4  235.78    6.70
   0   0  -4  214.48    7.80
   0   0  -4  225.28    6.80
   0   0   4  218.18    6.60
   0   0   4  225.78    7.80
   0   0   4  214.58    7.70
   0   0   4  233.08    7.30
   0   0   4  223.68    6.90
   0   0   4  217.98    6.70
  -1   0  -4   11.70    1.50
  -1   0  -4   14.30    1.20
  -1   0  -4   15.60    1.50
  -1   0  -4   12.20    1.10
   1   0   4   16.00    1.20
   1   0   4   14.10    1.40
   1   0   4   14.40    1.20
   1   0   4   14.70    1.40
   1   0   4   20.00    1.80
  -2   0  -4  277.07    7.90
  -2   0  -4  279.07    7.80
  -2   0  -4  279.07    9.20
   2   0   4  271.07    7.70
   2   0   4  280.27    8.30
   2   0   4  270.17    7.90
  -3   0  -4  318.97   10.20
  -3   0  -4  323.47    8.90
  -3   0  -4  316.77    9.00
  -3   0  -4  308.47   11.10
   3   0   4  311.07    9.00
   3   0   4  325.17   10.00
   3   0   4  322.57    9.10
   3   0   4  321.47    9.00
  -4   0  -4   88.69    4.50
  -4   0  -4   91.09    2.90
  -4   0  -4   85.79    2.80
   4   0   4   89.79    3.20
   4   0   4   89.89    4.70
   4   0   4   83.89    3.30
   4   0   4   83.29    3.50
  -5   0  -4  236.28    8.20
  -5   0  -4  225.38    9.00
  -5   0  -4  224.58    6.30
  -5   0  -4  228.58    6.30
  -5   0  -4  225.18    8.90
   5   0   4  226.58    7.30
   5   0   4  222.98    9.50
   5   0   4  224.18    6.80
   5   0   4  220.58    6.80
  -6   0  -4   32.90    3.30
  -6   0  -4   28.10    3.40
  -6   0  -4   34.90    4.10
   6   0   4   35.70    5.00
   6   0   4   29.60    2.10
  -7   0  -4   47.00    6.50
  -7   0  -4   52.79    5.40
   7   0   4   50.59    7.50
  -8   0  -4   11.70    4.90
  -8   0  -4   10.90    6.10
   8   0   4   10.10    7.10
   7  -1  -4    3.40    6.80
   7  -1  -4   -0.60    4.20
  -7   1   4    8.40    5.60
   6  -1  -4   34.30    4.20
  -6   1   4   17.50    3.30
  -6   1   4   21.80    5.20
   5  -1  -4  121.89    6.00
   5  -1  -4  119.39    6.00
  -5   1   4  122.59    6.10
  -5   1   4  125.89    6.30
  -5   1   4  124.49    8.30
   4  -1  -4   60.99    4.10
   4  -1  -4   62.59    4.10
   4  -1  -4   60.49    3.80
  -4   1   4   56.89    4.20
  -4   1   4   55.79    5.50
  -4   1   4   56.89    3.40
  -4   1   4   57.89    4.10
   3  -1  -4    6.70    1.70
   3  -1  -4    8.60    1.70
   3  -1  -4    6.80    2.10
  -3   1   4    8.90    1.90
  -3   1   4    4.20    1.90
  -3   1   4    6.80    1.10
  -3   1   4    5.20    2.10
   2  -1  -4   11.20    1.60
   2  -1  -4   13.70    1.60
   2  -1  -4   15.20    1.80
   2  -1  -4   19.50    2.30
   2  -1  -4    9.80    2.90
   2  -1  -4   15.70    1.80
  -2   1   4   16.00    1.70
  -2   1   4   13.90    1.80
  -2   1   4   13.10    1.80
  -2   1   4   17.00    1.70
  -2   1   4   11.00    2.50
  -2   1   4   13.40    2.00
   1  -1  -4  317.37   10.60
   1  -1  -4  314.57    9.50
   1  -1  -4  305.97   11.60
   1  -1  -4  324.57   13.00
   1  -1  -4  332.67    9.70
   1  -1  -4  318.77   10.30
  -1   1   4  309.17   10.30
  -1   1   4  317.07    9.60
  -1   1   4  316.57    9.50
  -1   1   4  350.86   11.70
   0  -1  -4 1059.99   28.80
   0  -1  -4 1086.69   31.00
   0  -1  -4 1052.59   34.20
   0  -1  -4 1036.20   30.50
   0  -1  -4 1066.59   28.90
   0   1   4 1042.60   28.90
   0   1   4 1035.70   31.00
   0   1   4 1096.89   30.70
   0   1   4 1058.99   28.80
   0   1   4 1093.59   26.50
   0   1   4 1088.99   34.20
  -1  -1  -4   98.49    3.20
  -1  -1  -4   95.09    3.20
  -1  -1  -4   98.69    3.50
  -1  -1  -4   99.49    4.10
   1   1   4   92.59    3.30
   1   1   4   95.39    3.20
   1   1   4   98.29    3.70
   1   1   4   92.99    3.10
   1   1   4   96.99    3.50
   1   1   4  101.29    4.10
  -2  -1  -4    7.10    1.30
  -2  -1  -4    7.30    0.70
  -2  -1  -4    6.10    1.50
  -2  -1  -4    7.90    0.70
   2   1   4    6.80    0.90
   2   1   4    8.20    1.30
   2   1   4    7.80    0.80
   2   1   4    6.90    1.40
   3   1   4  506.85   13.70
   3   1   4  517.65   14.60
   4   1   4  318.47   10.70
   4   1   4  322.07    9.40
  -5  -1  -4   13.70    2.90
  -5  -1  -4   11.70    2.80
  -5  -1  -4   13.20    1.70
   5   1   4   15.80    2.00
   5   1   4   11.70    3.70
  -6  -1  -4   82.69    6.40
  -6  -1  -4   72.99    5.60
   6   1   4   74.09    6.70
   6   1   4   76.59    4.20
  -7  -1  -4    0.40    3.50
  -7  -1  -4    2.40    2.90
   7   1   4    0.60    3.00
   7   1   4   -3.90    3.60
  -8  -1  -4   14.10    4.80
   8   1   4    8.20    5.30
   7  -2  -4    2.80    4.30
   7  -2  -4   -1.50    5.50
  -7   2   4   -0.60    5.60
   6  -2  -4   17.30    4.50
  -6   2   4   12.70    5.20
   5  -2  -4   14.90    3.90
  -5   2   4   12.40    3.30
  -5   2   4   14.30    4.50
   4  -2  -4   95.99    5.20
   4  -2  -4  107.19    5.70
   4  -2  -4  106.19    4.90
  -4   2   4  104.09    5.80
  -4   2   4  105.29    6.00
  -4   2   4   97.09    6.30
   3  -2  -4   93.39    4.60
   3  -2  -4   89.49    5.90
   3  -2  -4   97.99    4.50
  -3   2   4   92.79    5.50
  -3   2   4   93.39    6.00
  -3   2   4   89.89    5.10
   2  -2  -4  153.48    7.90
   2  -2  -4  163.38    6.10
   2  -2  -4  148.79    6.10
   2  -2  -4  135.29    8.20
   2  -2  -4  162.68    6.30
  -2   2   4  175.78    7.80
  -2   2   4  161.28    7.00
  -2   2   4  158.38    6.10
   1  -2  -4    1.50    1.30
   1  -2  -4   -0.10    1.70
   1  -2  -4    1.20    1.50
   1  -2  -4    0.30    1.20
   1  -2  -4    1.20    2.10
   1  -2  -4    2.60    1.70
  -1   2   4    0.60    1.90
  -1   2   4    0.40    1.10
  -1   2   4    2.10    2.00
  -1   2   4    0.70    1.20
  -1   2   4    0.50    1.80
   0  -2  -4   12.90    1.80
   0  -2  -4   13.90    1.50
   0  -2  -4   10.20    1.50
   0  -2  -4   13.00    2.10
   0  -2  -4   13.70    1.80
   0   2   4   10.10    2.20
   0   2   4   12.00    1.10
   0   2   4   14.50    2.00
   0   2   4   18.10    2.40
   0   2   4   16.60    1.90
   0   2   4   15.30    1.10
   0   2   4   14.30    1.70
  -1  -2  -4  154.98    7.50
  -1  -2  -4  149.69    4.60
  -1  -2  -4  154.98    5.00
  -1  -2  -4  153.98    6.00
  -1  -2  -4  151.88    5.00
   1   2   4  153.78    4.60
   1   2   4  143.09    5.10
   1   2   4  152.08    4.90
   1   2   4  157.98    6.00
  -2  -2  -4  138.59    4.30
  -2  -2  -4  141.49    7.40
  -2  -2  -4  137.69    4.40
  -2  -2  -4  147.69    5.80
   2   2   4  142.29    5.20
   2   2   4  136.29    4.50
   2   2   4  133.19    4.50
  -3  -2  -4  545.35   18.10
   3   2   4  520.75   14.20
   3   2   4  537.05   15.20
   3   2   4  540.25   14.40
   3   2   4  522.85   14.20
   4   2   4   22.60    3.00
   4   2   4   27.50    2.60
  -5  -2  -4   63.09    5.50
   5   2   4   67.39    3.50
   5   2   4   68.39    4.80
  -6  -2  -4   34.10    4.30
  -6  -2  -4   28.00    4.20
   6   2   4   35.90    3.50
   6   2   4   38.90    5.70
  -7  -2  -4   35.20    5.10
  -7  -2  -4   26.90    4.40
  -7  -2  -4   29.10    4.60
   7   2   4   30.50    6.10
   7   2   4   35.70    3.90
  -8  -2  -4    2.00    4.30
   8   2   4    5.70    6.40
   8   2   4   -0.20    3.20
   7  -3  -4   -1.30    5.70
   7  -3  -4    3.00    6.20
  -7   3   4    3.70    6.30
   6  -3  -4   15.90    5.00
  -6   3   4   16.80    4.70
   5  -3  -4   90.49    7.20
  -5   3   4   78.99    5.60
  -5   3   4   91.09    7.30
   4  -3  -4    2.20    1.20
   4  -3  -4    0.20    3.50
  -4   3   4    2.60    2.10
  -4   3   4    1.70    2.80
  -4   3   4    3.80    3.40
   3  -3  -4    2.30    1.40
   3  -3  -4    0.80    2.50
   3  -3  -4   -1.20    2.90
  -3   3   4    2.10    2.10
  -3   3   4    3.30    2.10
  -3   3   4    4.20    2.50
   2  -3  -4   60.39    4.60
   2  -3  -4   65.09    3.60
   2  -3  -4   59.99    6.40
  -2   3   4   60.89    4.10
  -2   3   4   72.39    5.40
  -2   3   4   65.59    5.40
   1  -3  -4  198.48   10.70
   1  -3  -4  209.78    7.60
   1  -3  -4  174.58    8.80
   1  -3  -4  206.58    7.70
  -1   3   4  218.18    7.50
  -1   3   4  227.38   10.40
  -1   3   4  205.18    8.60
  -1   3   4  218.38    7.90
   0  -3  -4   33.50    4.30
   0  -3  -4   34.10    2.60
   0  -3  -4   40.90    3.70
   0  -3  -4   39.10    2.70
   0  -3  -4   40.10    3.30
   0   3   4   35.50    1.60
   0   3   4   38.50    4.10
   0   3   4   31.40    3.50
   0   3   4   42.70    3.50
   0   3   4   38.10    2.10
   0   3   4   36.50    3.10
   0   3   4   38.30    3.00
  -1  -3  -4    8.80    1.80
  -1  -3  -4    9.40    2.00
  -1  -3  -4   13.10    2.40
  -1  -3  -4   15.00    2.10
  -1  -3  -4   12.10    1.90
   1   3   4   10.90    1.60
   1   3   4   13.30    1.90
   1   3   4    8.70    2.10
   1   3   4   10.60    1.80
   1   3   4    8.50    1.70
  -2  -3  -4   12.70    1.70
  -2  -3  -4   13.50    1.80
  -2  -3  -4    7.50    1.90
  -2  -3  -4   12.80    1.60
   2   3   4   12.00    1.70
   2   3   4   14.40    1.60
   2   3   4   10.30    1.90
   2   3   4   10.70    1.60
   2   3   4   10.40    1.80
  -3  -3  -4  311.97   14.70
  -3  -3  -4  318.57    9.30
  -3  -3  -4  329.67   11.60
  -3  -3  -4  320.17    9.30
   3   3   4  336.97    9.60
   3   3   4  323.37    9.50
   3   3   4  325.67   10.10
  -4  -3  -4  204.28   10.70
  -4  -3  -4  212.28    8.30
   4   3   4  194.78    5.60
   4   3   4  207.68    6.90
   4   3   4  187.78    7.80
   4   3   4  190.38    5.50
  -5  -3  -4   -2.60    3.10
  -5  -3  -4    0.80    2.20
  -5  -3  -4    0.00    2.80
   5   3   4   -0.30    3.30
   5   3   4    1.80    1.80
  -6  -3  -4    2.60    3.60
  -6  -3  -4    1.30    3.00
   6   3   4    1.80    2.80
   6   3   4    3.50    3.40
  -7  -3  -4   17.30    4.50
  -7  -3  -4    6.00    3.80
  -7  -3  -4    5.20    4.00
   7   3   4   10.40    3.20
   7   3   4    4.10    4.10
  -8  -3  -4   10.60    5.10
  -8  -3  -4   10.80    4.60
   8   3   4    1.40    6.00
   8   3   4   14.40    3.90
   6  -4  -4   -3.50    5.10
  -6   4   4   -4.10    5.60
   5  -4  -4    9.80    5.10
  -5   4   4   18.60    4.80
  -5   4   4   23.10    5.90
   4  -4  -4   49.30    5.00
  -4   4   4   47.60    5.60
  -4   4   4   39.80    5.80
   3  -4  -4   20.20    3.50
   3  -4  -4    7.10    4.20
   3  -4  -4   15.40    1.80
  -3   4   4   19.50    4.30
  -3   4   4   17.40    4.20
   2  -4  -4   19.40    3.80
   2  -4  -4   12.80    2.00
   2  -4  -4    7.10    3.80
  -2   4   4   14.40    3.10
  -2   4   4   11.00    3.50
   1  -4  -4   66.29    6.20
   1  -4  -4   60.19    7.10
   1  -4  -4   71.29    4.40
  -1   4   4   68.69    4.60
  -1   4   4   69.49    3.40
  -1   4   4   69.49    5.10
   0  -4  -4  141.49    6.20
   0  -4  -4  140.99    7.10
   0  -4  -4  131.19    8.70
   0   4   4  133.89    5.60
   0   4   4  134.09    5.90
   0   4   4  132.99    4.50
  -1  -4  -4  439.26   20.60
  -1  -4  -4  440.56   16.30
  -1  -4  -4  466.65   14.30
   1   4   4  507.05   16.60
   1   4   4  445.56   13.00
   1   4   4  492.75   14.20
   1   4   4  469.75   14.50
  -2  -4  -4   21.20    3.40
  -2  -4  -4   26.00    2.70
  -2  -4  -4   28.80    3.10
  -2  -4  -4   24.90    1.30
   2   4   4   21.40    3.00
   2   4   4   27.70    2.50
   2   4   4   25.60    2.60
  -3  -4  -4   45.70    5.80
  -3  -4  -4   37.90    3.50
  -3  -4  -4   47.60    3.10
   3   4   4   42.50    3.50
   3   4   4   48.00    3.00
   3   4   4   46.50    3.90
  -4  -4  -4    5.00    3.00
  -4  -4  -4    7.30    1.40
  -4  -4  -4    6.10    2.20
   4   4   4    8.00    1.80
   4   4   4   11.20    2.60
   4   4   4    9.60    1.60
   4   4   4    8.00    3.10
  -5  -4  -4   32.10    5.00
  -5  -4  -4   52.29    6.80
  -5  -4  -4   50.49    4.60
   5   4   4   43.90    1.90
   5   4   4   49.60    5.00
   5   4   4   46.30    1.90
   5   4   4   47.10    3.50
  -6  -4  -4   58.89    7.80
  -6  -4  -4   65.09    5.80
  -6  -4  -4   52.49    6.20
   6   4   4   63.89    4.90
   6   4   4   55.79    6.00
  -7  -4  -4   12.00    4.70
  -7  -4  -4    9.50    3.40
  -7  -4  -4    8.80    3.90
  -7  -4  -4   13.20    3.80
   7   4   4   12.50    3.80
   7   4   4   21.50    5.70
  -8  -4  -4   -5.30    4.40
  -8  -4  -4    3.60    4.90
   8   4   4    2.50    6.10
   8   4   4    2.60    3.60
  -6   5   4   12.80    5.10
   5  -5  -4    3.70    5.70
  -5   5   4    6.80    4.40
  -5   5   4   10.40    5.80
  -5   5   4   17.70    5.50
   4  -5  -4    0.90    5.00
  -4   5   4    0.30    3.70
  -4   5   4   -1.60    3.40
  -4   5   4    3.10    3.50
   3  -5  -4    3.60    5.00
   3  -5  -4   12.00    4.80
  -3   5   4   13.60    3.00
  -3   5   4   13.40    3.90
  -3   5   4   12.20    3.70
   2  -5  -4   83.59   10.00
   2  -5  -4   67.39    6.60
   2  -5  -4   66.79    4.30
  -2   5   4   75.09    6.80
  -2   5   4   76.49    4.80
  -2   5   4   72.39    7.30
   1  -5  -4   89.09    5.60
   1  -5  -4   80.19    9.30
  -1   5   4   87.59    4.40
  -1   5   4   97.59    5.80
  -1   5   4   89.89    7.60
   0  -5  -4   59.89    7.50
   0  -5  -4   61.69    5.40
   0  -5  -4   62.69    5.70
   0   5   4   65.09    2.90
   0   5   4   68.09    4.80
  -1  -5  -4    3.00    2.40
  -1  -5  -4    2.60    2.20
  -1  -5  -4    2.30    2.50
   1   5   4    5.20    3.20
  -2  -5  -4   64.29    7.30
  -2  -5  -4   56.39    4.40
  -2  -5  -4   57.69    4.50
   2   5   4   64.19    3.90
   2   5   4   53.59    3.50
   2   5   4   65.89    4.20
   2   5   4   67.39    4.90
  -3  -5  -4  104.79    5.30
  -3  -5  -4   97.99    5.40
  -3  -5  -4   98.29    4.00
  -3  -5  -4   99.89    8.70
   3   5   4  105.99    5.40
   3   5   4  109.39    5.90
   3   5   4  104.69    5.10
  -4  -5  -4   18.10    3.70
  -4  -5  -4   23.30    2.80
  -4  -5  -4   24.40    2.60
  -4  -5  -4   20.70    2.40
  -4  -5  -4   21.90    3.70
   4   5   4   27.30    3.00
   4   5   4   24.00    3.90
   4   5   4   23.90    3.60
  -5  -5  -4   14.30    4.60
  -5  -5  -4   15.20    3.60
  -5  -5  -4   11.90    2.60
   5   5   4   16.80    3.00
   5   5   4   20.60    4.20
   5   5   4   15.10    2.20
  -6  -5  -4    3.10    2.60
  -6  -5  -4    3.90    4.60
  -6  -5  -4    3.80    4.10
   6   5   4   13.60    4.60
   6   5   4    6.20    3.70
  -7  -5  -4   -2.40    4.70
  -7  -5  -4    4.30    4.40
   7   5   4    3.20    5.10
   7   5   4    4.70    3.80
   5  -6  -4   -2.30    6.40
  -5   6   4   -5.30    6.00
  -5   6   4    0.80    3.90
   4  -6  -4   18.50    6.50
  -4   6   4   16.90    4.70
  -4   6   4   20.80    4.30
  -4   6   4   15.20    4.80
   3  -6  -4   -8.70    5.50
   3  -6  -4    2.20    3.90
  -3   6   4    7.10    3.00
  -3   6   4    3.70    3.90
  -3   6   4    6.80    5.40
   2  -6  -4    2.10    5.30
   2  -6  -4    9.10    3.90
   2  -6  -4   11.00    2.10
  -2   6   4    7.30    2.60
  -2   6   4    8.30    3.80
  -2   6   4   11.40    4.00
   1  -6  -4   -2.00    4.30
   1  -6  -4    2.80    3.90
  -1   6   4    0.90    1.90
  -1   6   4   -1.60    4.40
   0  -6  -4   21.70    5.60
   0  -6  -4   35.00    4.20
   0   6   4   28.30    2.50
   0   6   4   37.60    5.30
  -1  -6  -4   28.20    3.70
  -1  -6  -4   18.00    3.40
  -1  -6  -4   11.40    4.70
   1   6   4   21.90    4.60
  -2  -6  -4   23.10    4.00
  -2  -6  -4   15.00    4.70
  -2  -6  -4   16.70    2.90
   2   6   4   26.10    3.20
   2   6   4   18.60    4.30
  -3  -6  -4   -1.30    3.10
  -3  -6  -4    0.40    2.90
  -3  -6  -4    0.50    3.60
  -3  -6  -4   -0.50    2.20
   3   6   4    0.90    2.80
   3   6   4    1.10    2.30
   3   6   4    1.20    3.30
  -4  -6  -4    1.70    2.30
  -4  -6  -4    4.60    3.20
  -4  -6  -4    1.40    4.10
   4   6   4    1.80    2.60
   4   6   4    2.70    3.30
  -5  -6  -4   88.09   10.10
  -5  -6  -4   76.79    7.10
   5   6   4   72.69    5.30
   5   6   4   78.89    6.30
   5   6   4   84.29    5.20
  -6  -6  -4    3.10    4.60
  -6  -6  -4    2.10    5.10
   6   6   4   -2.80    4.10
   6   6   4   -2.40    4.30
   6   6   4    3.90    2.00
  -7  -6  -4    6.00    4.90
  -7  -6  -4   13.90    5.90
   7   6   4   -1.80    4.60
   7   6   4   -0.90    4.40
   4  -7  -4    1.20    6.70
  -4   7   4    0.10    6.10
  -4   7   4   -3.30    4.40
   3  -7  -4   10.40    7.50
   3  -7  -4   14.90    5.20
  -3   7   4   10.70    6.00
  -3   7   4   16.70    6.40
   2  -7  -4   -7.10    6.40
   2  -7  -4   -2.10    4.00
  -2   7   4    4.90    4.40
   1  -7  -4   14.60    2.70
   1  -7  -4   15.60    5.60
   1  -7  -4   10.40    5.10
  -1   7   4   19.70    6.10
   0  -7  -4    5.70    2.90
   0  -7  -4   -1.70    4.60
   0  -7  -4   -1.80    4.00
   0   7   4   -2.50    5.00
  -1  -7  -4    9.40    4.50
  -1  -7  -4   11.90    3.60
  -1  -7  -4    5.30    5.50
   1   7   4   14.40    4.20
  -2  -7  -4    9.90    4.10
  -2  -7  -4   -1.30    3.00
  -2  -7  -4    6.00    4.00
  -2  -7  -4    4.60    3.00
   2   7   4    0.20    4.60
   2   7   4    9.60    3.70
  -3  -7  -4   -0.70    4.90
  -3  -7  -4    1.80    2.50
  -3  -7  -4    4.50    3.10
  -3  -7  -4    0.60    3.50
   3   7   4    2.40    4.30
   3   7   4   -5.40    2.50
  -4  -7  -4    1.10    3.70
  -4  -7  -4    3.30    3.50
   4   7   4   -1.40    4.20
   4   7   4   -3.40    3.90
  -5  -7  -4    3.20    4.00
  -5  -7  -4    7.20    5.30
   5   7   4   -4.00    4.50
   5   7   4    0.80    3.50
  -6  -7  -4    9.90    5.80
  -6  -7  -4    0.30    5.50
   6   7   4   -4.00    4.10
   6   7   4    2.10    5.00
   6   7   4    1.30    2.90
   3  -8  -4   -4.70    8.10
   3  -8  -4    2.70    7.00
  -3   8   4    2.40    5.20
   2  -8  -4   -9.80    6.80
   2  -8  -4    1.70    6.40
  -2   8   4    5.20    6.70
   1  -8  -4   -0.60    4.30
   1  -8  -4    0.90    7.00
  -1   8   4    0.80    4.80
   0  -8  -4    1.80    3.10
   0  -8  -4    4.90    5.50
   0  -8  -4   -5.40    6.50
   0   8   4    4.20    4.60
  -1  -8  -4    2.60    5.00
  -1  -8  -4    5.20    3.70
  -1  -8  -4   -6.10    6.10
   1   8   4   -9.70    5.60
  -2  -8  -4    4.70    3.20
  -2  -8  -4   -3.10    4.40
  -2  -8  -4    0.00    3.40
   2   8   4   -0.90    4.00
   2   8   4    1.80    4.20
  -3  -8  -4   30.20    5.70
  -3  -8  -4   16.00    5.50
   3   8   4   26.50    6.00
   3   8   4   35.20    5.50
  -4  -8  -4    1.40    5.80
  -4  -8  -4    6.60    5.20
   4   8   4    3.20    4.70
   4   8   4    0.80    4.90
  -5  -8  -4    0.40    5.70
  -5  -8  -4    3.30    6.10
   5   8   4    7.80    4.40
   5   8   4   -5.60    4.20
  -6  -8  -4    2.30    5.80
  -6  -8  -4    7.00    4.70
   6   8   4    7.30    6.10
   6   8   4   -0.10    3.60
   1  -9  -4   -8.20    8.00
   1  -9  -4   11.50    7.10
  -1   9   4   11.00    7.80
   0  -9  -4   10.60    6.50
   0  -9  -4    9.50    6.40
   0   9   4    9.70    7.50
  -1  -9  -4   -0.30    5.90
  -1  -9  -4    8.60    4.30
  -1  -9  -4    1.40    7.50
   1   9   4   11.90    7.10
  -2  -9  -4    9.90    3.80
  -2  -9  -4   -2.10    7.00
   2   9   4    6.50    5.20
   2   9   4    2.30    3.60
  -3  -9  -4    2.40    3.80
  -3  -9  -4   -3.80    4.90
   3   9   4   -0.60    6.00
   3   9   4    0.40    3.70
  -4  -9  -4   -4.50    7.00
  -4  -9  -4   10.20    6.10
   4   9   4    8.60    5.90
   4   9   4    1.50    4.20
   3   9  -5  -11.50    4.90
   3   9  -5   -1.40    4.30
  -3  -9   5  -12.20    6.00
  -3  -9   5  -14.40    7.80
   2   9  -5   -0.60    4.80
   2   9  -5    6.20    7.60
  -2  -9   5   -7.10    8.90
  -2  -9   5   10.60    5.40
  -2  -9   5   -4.90    6.20
   1   9  -5   -0.70    5.30
   1   9  -5   -1.00    7.10
  -1  -9   5    9.20    7.30
  -1  -9   5  -17.90    8.50
  -1  -9   5   -5.30    5.30
   0   9  -5    2.90    5.80
   0   9  -5   -8.60    4.30
   0   9  -5    2.10    7.40
   0  -9   5  -16.10    9.10
   0  -9   5   -6.60    7.20
   5   8  -5   -3.60    5.40
  -5  -8   5  -12.70    6.20
  -5  -8   5    2.60    7.10
   4   8  -5   -1.80    3.20
   4   8  -5   -3.70    5.80
  -4  -8   5    6.30    6.80
  -4  -8   5  -10.90    5.90
   3   8  -5    0.70    4.10
   3   8  -5    6.40    6.20
  -3  -8   5    5.00    4.70
  -3  -8   5   -3.60    5.30
  -3  -8   5    6.70    4.30
   2   8  -5    7.40    4.80
   2   8  -5    1.80    4.20
   2   8  -5  -11.90    4.00
  -2  -8   5   -0.90    7.60
  -2  -8   5   -1.10    5.80
  -2  -8   5   -4.60    5.50
   1   8  -5   11.50    4.90
   1   8  -5   14.10    6.80
   1   8  -5    2.40    4.70
  -1  -8   5    7.10    5.30
  -1  -8   5    7.60    4.90
  -1  -8   5    0.10    8.00
   0   8  -5    8.10    5.00
   0   8  -5   15.00    5.70
   0   8  -5   11.40    4.70
   0  -8   5   -4.10    8.70
   0  -8   5   -1.20    4.50
   0  -8   5    9.30    5.20
  -1   8  -5   11.20    6.70
  -1   8  -5    2.90    4.50
  -1   8  -5    0.90    5.60
   1  -8   5   10.40    7.20
  -2   8  -5    0.30    6.00
  -2   8  -5   -1.80    4.50
  -2   8  -5   -6.80    4.50
   2  -8   5   -2.80    7.20
   6   7  -5   -4.80    4.70
   6   7  -5    2.70    4.60
  -6  -7   5    2.00    6.80
   5   7  -5   -4.60    4.70
  -5  -7   5   -8.10    5.20
  -5  -7   5   -4.30    6.00
   4   7  -5    3.90    3.20
   4   7  -5    8.30    5.10
  -4  -7   5    5.70    4.40
  -4  -7   5    4.90    5.90
  -4  -7   5   11.30    6.20
   3   7  -5   17.60    5.60
  -3  -7   5    3.90    4.80
  -3  -7   5   11.60    4.40
  -3  -7   5    2.60    6.00
   2   7  -5    4.90    4.40
   2   7  -5   17.60    5.70
  -2  -7   5    8.50    7.00
  -2  -7   5    2.70    5.00
  -2  -7   5   15.60    4.20
   1   7  -5    1.20    4.00
   1   7  -5    7.30    5.50
  -1  -7   5   10.20    7.30
  -1  -7   5   -0.70    4.60
  -1  -7   5    8.00    4.10
   0   7  -5    0.90    4.00
   0   7  -5    5.10    4.60
   0   7  -5   11.70    5.70
   0  -7   5   -3.80    3.90
   0  -7   5    1.30    5.70
   0  -7   5    0.60    7.20
  -1   7  -5   20.30    4.60
  -1   7  -5   23.60    4.60
  -1   7  -5   31.20    5.20
   1  -7   5   18.20    4.50
   1  -7   5   24.10    6.60
  -2   7  -5    9.10    4.50
  -2   7  -5   -0.40    4.20
  -2   7  -5    1.20    3.90
   2  -7   5   11.80    6.50
  -3   7  -5    9.80    5.20
  -3   7  -5    8.10    4.70
  -3   7  -5   13.30    5.90
   3  -7   5    8.70    5.30
  -4   7  -5   -7.90    5.70
  -4   7  -5   -3.00    5.20
   4  -7   5    4.30    5.40
   7   6  -5    4.10    3.80
   7   6  -5   -1.20    4.40
   7   6  -5    0.40    4.00
  -7  -6   5    4.90    6.10
  -7  -6   5    5.80    7.10
   6   6  -5    8.80    4.80
   6   6  -5   17.80    4.70
  -6  -6   5   17.40    6.00
  -6  -6   5   11.00    5.00
   5   6  -5   -1.40    4.40
  -5  -6   5    6.20    5.70
  -5  -6   5    4.60    4.70
   4   6  -5   18.60    4.60
  -4  -6   5    9.50    5.50
  -4  -6   5   12.10    3.30
  -4  -6   5    7.70    4.00
   3   6  -5    2.10    3.20
  -3  -6   5   -1.80    2.80
  -3  -6   5    3.60    4.80
  -3  -6   5   -1.60    4.50
   2   6  -5    7.90    4.00
   2   6  -5   12.20    3.60
  -2  -6   5   11.70    5.80
  -2  -6   5   14.50    4.50
  -2  -6   5    1.90    4.30
   1   6  -5   13.40    2.10
   1   6  -5   18.20    3.90
   1   6  -5   11.40    3.80
  -1  -6   5   13.70    3.90
  -1  -6   5   16.60    5.10
  -1  -6   5   17.50    4.40
   0   6  -5   68.59    6.50
   0   6  -5   67.29    6.40
   0  -6   5   60.99    5.80
   0  -6   5   68.39    6.70
   0  -6   5   45.70    8.30
  -1   6  -5    6.40    3.80
  -1   6  -5   11.10    4.90
   1  -6   5    6.30    3.90
   1  -6   5   -1.40    3.40
  -2   6  -5   80.29    7.90
  -2   6  -5   75.19    7.10
  -2   6  -5   84.29    7.40
   2  -6   5   89.99    8.60
  -3   6  -5   -0.40    4.30
  -3   6  -5    0.60    3.50
  -3   6  -5    2.40    5.10
   3  -6   5    2.70    4.30
  -4   6  -5   38.50    6.30
  -4   6  -5   22.50    6.20
   4  -6   5   36.60    6.10
  -5   6  -5    2.40    4.50
  -5   6  -5   10.30    4.50
   5  -6   5    7.30    6.80
   7   5  -5   -2.40    3.40
   7   5  -5    0.80    3.80
   7   5  -5    3.60    4.00
  -7  -5   5   -0.10    4.50
  -7  -5   5    5.40    6.00
   6   5  -5    3.10    3.50
   6   5  -5    2.60    3.10
   6   5  -5    0.80    3.00
  -6  -5   5    8.40    5.70
  -6  -5   5   -1.50    4.80
   5   5  -5    6.30    3.60
   5   5  -5    4.90    2.80
  -5  -5   5    0.50    4.90
  -5  -5   5   -1.10    3.70
   4   5  -5   34.20    3.10
   4   5  -5   30.20    4.20
  -4  -5   5   25.80    4.40
  -4  -5   5   28.30    4.00
  -4  -5   5   22.00    4.70
   3   5  -5   77.29    5.90
   3   5  -5   71.49    3.20
  -3  -5   5   69.49    7.60
  -3  -5   5   76.89    5.80
  -3  -5   5   90.79    9.30
   2   5  -5   25.30    4.00
   2   5  -5   17.60    4.10
  -2  -5   5   29.70    4.70
  -2  -5   5   16.00    5.00
  -2  -5   5   29.30    4.20
   1   5  -5    1.00    3.40
   1   5  -5    5.60    3.30
  -1  -5   5    3.00    2.70
  -1  -5   5   -3.30    3.10
  -1  -5   5    4.20    3.50
   0   5  -5   97.69    5.80
   0   5  -5   98.49    6.60
   0  -5   5   91.89   10.90
   0  -5   5  101.39    7.00
   0  -5   5   97.09    6.60
   0  -5   5   91.29    5.70
  -1   5  -5  166.68    8.30
  -1   5  -5  167.78    8.40
  -1   5  -5  165.78    6.70
   1  -5   5  151.18    7.60
   1  -5   5  140.39    7.50
   1  -5   5  145.89    7.20
  -2   5  -5   24.20    4.40
  -2   5  -5   27.10    3.80
   2  -5   5   26.30    3.30
   2  -5   5   32.90    2.90
   2  -5   5   25.40    5.10
  -3   5  -5    0.00    4.20
  -3   5  -5    6.90    3.20
  -3   5  -5    0.20    3.90
   3  -5   5    4.80    2.70
   3  -5   5    7.40    4.90
  -4   5  -5    6.70    4.10
  -4   5  -5    1.90    3.20
  -4   5  -5    2.10    4.80
  -4   5  -5   -2.40    4.40
   4  -5   5    6.30    5.20
   4  -5   5   -0.30    3.50
  -5   5  -5    7.10    5.30
  -5   5  -5   20.30    5.70
   5  -5   5   12.00    4.40
   5  -5   5   14.00    5.90
   7   4  -5   10.40    4.30
   7   4  -5    7.00    3.70
  -7  -4   5   11.70    5.70
  -7  -4   5    5.90    4.30
   6   4  -5    7.00    3.50
   6   4  -5   11.30    2.80
   6   4  -5    6.20    3.20
  -6  -4   5    4.00    4.90
  -6  -4   5    7.10    5.10
   5   4  -5   16.40    3.10
   5   4  -5   21.70    3.60
  -5  -4   5   21.70    3.80
  -5  -4   5   21.90    3.40
  -5  -4   5   20.00    5.00
  -5  -4   5   13.00    3.50
   4   4  -5    8.20    2.80
   4   4  -5    5.70    3.10
   4   4  -5    7.70    2.50
   4   4  -5    8.60    2.20
  -4  -4   5    8.20    3.00
  -4  -4   5   11.40    3.40
  -4  -4   5    7.70    2.90
   3   4  -5   14.50    3.20
   3   4  -5   14.20    2.90
   3   4  -5   10.40    1.80
  -3  -4   5    9.30    3.20
  -3  -4   5    6.80    2.80
  -3  -4   5   13.80    3.10
   2   4  -5   82.19    5.10
   2   4  -5   72.29    5.80
  -2  -4   5   84.09    4.70
  -2  -4   5   84.59    5.60
  -2  -4   5   89.19    7.70
   1   4  -5   52.69    4.50
   1   4  -5   49.50    4.90
  -1  -4   5   50.49    7.20
  -1  -4   5   48.40    5.20
  -1  -4   5   43.50    3.80
   0   4  -5  210.38    8.00
   0   4  -5  206.78    8.00
   0   4  -5  229.58    8.80
   0  -4   5  210.28    7.80
   0  -4   5  221.08   13.10
   0  -4   5  212.18    9.10
   0  -4   5  215.38    8.30
  -1   4  -5   38.50    3.00
  -1   4  -5   38.20    4.00
  -1   4  -5   35.20    4.00
   1  -4   5   36.50    3.60
   1  -4   5   37.70    4.40
   1  -4   5   31.30    3.30
  -2   4  -5   59.09    3.30
  -2   4  -5   61.49    5.10
  -2   4  -5   53.19    4.70
   2  -4   5   59.99    5.60
   2  -4   5   61.49    3.90
   2  -4   5   58.79    4.00
   2  -4   5   57.89    3.40
  -3   4  -5  153.68    8.80
  -3   4  -5  161.28    7.20
  -3   4  -5  166.08    7.60
  -3   4  -5  158.78    5.40
   3  -4   5  160.28    6.50
   3  -4   5  151.38    6.70
   3  -4   5  157.38    8.30
  -4   4  -5   90.29    6.80
  -4   4  -5   93.49    7.00
  -4   4  -5   83.39    6.00
  -4   4  -5   86.49    6.10
   4  -4   5   93.99    5.80
   4  -4   5   96.09    7.20
  -5   4  -5   -0.50    3.40
  -5   4  -5    5.50    4.40
  -5   4  -5   10.10    5.00
   5  -4   5   -0.30    4.10
   5  -4   5   -4.00    4.40
  -6   4  -5    3.30    4.90
  -6   4  -5    0.00    3.90
   6  -4   5   12.60    5.50
   6  -4   5   -4.30    4.60
   8   3  -5   12.50    5.80
   8   3  -5   10.20    4.00
  -8  -3   5   10.10    6.60
  -8  -3   5   -0.60    5.60
   7   3  -5   -0.20    3.20
   7   3  -5    0.60    3.30
  -7  -3   5   -2.00    3.80
  -7  -3   5   -2.60    4.80
   6   3  -5   -1.50    3.20
   6   3  -5    2.60    1.90
   6   3  -5    1.20    2.50
  -6  -3   5    4.40    4.40
  -6  -3   5    2.30    4.50
   5   3  -5   24.70    2.40
   5   3  -5   19.30    3.30
   5   3  -5   28.50    3.70
  -5  -3   5   17.70    2.50
  -5  -3   5   21.10    3.10
  -5  -3   5   23.40    4.40
  -5  -3   5   25.70    4.70
   4   3  -5   29.60    3.20
   4   3  -5   38.70    3.60
   4   3  -5   32.10    3.20
  -4  -3   5   30.90    3.40
  -4  -3   5   20.80    3.70
  -4  -3   5   31.00    4.40
  -4  -3   5   23.70    3.60
  -4  -3   5   26.80    2.50
   3   3  -5   30.10    3.10
   3   3  -5   24.30    3.40
   3   3  -5   30.80    3.10
  -3  -3   5   22.50    3.10
  -3  -3   5   15.60    2.90
  -3  -3   5   24.00    3.10
  -3  -3   5   25.80    1.70
   2   3  -5    0.30    1.70
   2   3  -5   -1.60    1.00
   2   3  -5    1.60    1.80
   2   3  -5    0.90    2.20
   2   3  -5    0.80    2.00
  -2  -3   5   -0.90    2.50
  -2  -3   5    0.00    2.00
  -2  -3   5    5.80    2.40
   1   3  -5   50.39    3.20
   1   3  -5   50.39    4.20
   1   3  -5   58.89    2.70
   1   3  -5   49.60    3.20
   1   3  -5   50.89    3.10
   1   3  -5   53.49    4.40
  -1  -3   5   50.39    3.90
  -1  -3   5   53.59    5.50
  -1  -3   5   49.90    3.90
   0   3  -5  504.05   16.70
   0   3  -5  516.85   16.80
   0   3  -5  495.75   15.30
   0  -3   5  514.85   15.60
   0  -3   5  534.85   17.30
   0  -3   5  507.35   15.20
  -1   3  -5  619.14   19.80
  -1   3  -5  642.74   18.30
  -1   3  -5  620.04   20.00
   1  -3   5  637.64   20.20
   1  -3   5  610.64   18.60
   1  -3   5  621.54   18.30
   1  -3   5  616.64   18.60
  -2   3  -5    6.80    2.90
  -2   3  -5    9.50    1.50
  -2   3  -5   10.70    2.50
   2  -3   5    9.50    1.90
   2  -3   5   10.20    3.00
   2  -3   5    6.50    1.40
   2  -3   5    8.00    2.00
  -3   3  -5   42.40    3.90
  -3   3  -5   42.10    2.40
  -3   3  -5   33.40    4.30
  -3   3  -5   44.00    3.70
   3  -3   5   47.00    4.30
   3  -3   5   41.50    3.60
   3  -3   5   38.10    2.80
   3  -3   5   46.40    4.00
  -4   3  -5   22.50    3.50
  -4   3  -5   18.60    3.60
  -4   3  -5   22.80    3.30
  -4   3  -5   19.30    3.00
   4  -3   5   21.00    3.90
   4  -3   5   23.60    3.90
   4  -3   5   32.70    3.80
  -5   3  -5  100.99    7.20
  -5   3  -5   97.39    6.60
  -5   3  -5   98.49    6.80
   5  -3   5   87.59    6.80
   5  -3   5   98.29    6.70
  -6   3  -5   59.79    6.10
  -6   3  -5   45.90    6.70
  -6   3  -5   46.80    5.30
   6  -3   5   53.69    5.90
   6  -3   5   42.00    5.70
  -7   3  -5    3.30    5.10
  -7   3  -5    2.20    5.80
   7  -3   5    2.10    4.40
   7  -3   5    2.40    4.60
   8   2  -5    1.80    4.20
   8   2  -5    2.90    3.80
  -8  -2   5    0.30    6.20
  -8  -2   5   -0.90    5.40
   7   2  -5   12.60    5.40
   7   2  -5   16.90    3.90
  -7  -2   5   22.60    4.80
  -7  -2   5    6.90    4.50
   6   2  -5    9.30    3.20
   6   2  -5    7.30    3.30
  -6  -2   5    6.50    4.40
  -6  -2   5    5.50    3.00
   5   2  -5    9.40    2.80
   5   2  -5    8.00    2.80
   5   2  -5    5.10    1.50
  -5  -2   5    9.20    2.60
  -5  -2   5    8.10    3.50
  -5  -2   5    6.20    3.80
   4   2  -5   53.19    3.90
   4   2  -5   53.89    3.70
  -4  -2   5   46.80    3.80
  -4  -2   5   49.10    5.30
  -4  -2   5   46.70    4.20
  -4  -2   5   48.90    3.80
   3   2  -5  256.27    8.90
   3   2  -5  256.37    8.90
   3   2  -5  284.87   11.40
  -3  -2   5  264.17   11.40
  -3  -2   5  273.87   10.80
  -3  -2   5  269.57    9.90
  -3  -2   5  269.27    9.60
  -3  -2   5  265.37    9.10
   2   2  -5  388.56   15.10
   2   2  -5  443.06   18.70
   2   2  -5  459.85   13.30
   2   2  -5  467.65   15.80
   2   2  -5  426.36   13.10
  -2  -2   5  455.35   13.60
  -2  -2   5  445.96   14.70
  -2  -2   5  468.45   14.70
  -2  -2   5  477.05   14.20
  -2  -2   5  435.36   15.30
   1   2  -5   44.30    2.50
   1   2  -5   41.50    2.60
   1   2  -5   42.40    2.80
   1   2  -5   53.39    3.80
   1   2  -5   42.50    3.60
   1   2  -5   42.90    2.60
  -1  -2   5   46.60    2.80
  -1  -2   5   40.30    2.80
  -1  -2   5   38.90    2.80
  -1  -2   5   41.20    3.80
   0   2  -5  126.89    5.20
   0   2  -5  135.39    5.10
   0   2  -5  126.99    4.80
   0   2  -5  128.39    5.70
   0   2  -5  126.59    5.30
   0   2  -5  134.79    6.90
   0  -2   5  132.79    5.00
   0  -2   5  130.19    5.40
   0  -2   5  125.29    5.70
   0  -2   5  122.09    4.70
  -1   2  -5   10.70    1.60
  -1   2  -5    5.10    1.80
  -1   2  -5    8.50    1.90
  -1   2  -5    9.40    2.30
  -1   2  -5   12.70    2.00
   1  -2   5    9.70    2.00
   1  -2   5    8.60    0.80
   1  -2   5    7.30    1.80
   1  -2   5    9.80    1.50
   1  -2   5    9.80    1.80
   1  -2   5    6.60    1.70
  -2   2  -5  450.55   15.20
  -2   2  -5  444.06   13.30
  -2   2  -5  440.96   14.40
  -2   2  -5  464.25   13.50
   2  -2   5  433.46   13.20
   2  -2   5  451.75   12.60
   2  -2   5  447.56   13.60
   2  -2   5  449.26   13.30
  -3   2  -5  424.86   14.90
  -3   2  -5  437.36   13.10
  -3   2  -5  434.06   13.50
  -3   2  -5  439.36   14.00
   3  -2   5  429.96   13.40
   3  -2   5  441.86   13.00
   3  -2   5  428.36   13.40
  -4   2  -5   26.80    4.20
  -4   2  -5   25.60    2.80
  -4   2  -5   30.60    3.00
  -4   2  -5   26.10    2.60
   4  -2   5   38.30    3.60
   4  -2   5   30.60    4.10
   4  -2   5   28.50    3.30
  -5   2  -5   -1.50    2.80
  -5   2  -5    7.20    4.10
  -5   2  -5    0.70    2.40
   5  -2   5    6.00    4.00
   5  -2   5    0.30    2.90
  -6   2  -5   35.00    5.10
  -6   2  -5   41.70    4.50
  -6   2  -5   47.40    5.40
   6  -2   5   50.79    4.50
   6  -2   5   41.30    6.10
  -7   2  -5   18.10    5.80
   7  -2   5   19.70    3.90
   7  -2   5   19.90    5.40
   8   1  -5   -1.00    6.50
   8   1  -5    4.50    4.10
  -8  -1   5    2.50    6.40
   7   1  -5   -3.50    5.10
   7   1  -5    3.50    3.80
  -7  -1   5   -2.00    5.30
  -7  -1   5   -4.80    3.60
   6   1  -5   30.70    3.80
  -6  -1   5   20.10    5.00
  -6  -1   5   23.10    4.20
   5   1  -5   56.09    4.10
   5   1  -5   59.39    4.60
  -5  -1   5   56.59    5.30
  -5  -1   5   64.69    5.70
  -5  -1   5   58.99    4.20
   4   1  -5  114.59    3.60
   4   1  -5  121.49    5.30
   4   1  -5  110.59    4.90
  -4  -1   5  121.49    6.60
  -4  -1   5  123.39    6.80
  -4  -1   5  126.29    5.50
   3   1  -5  217.88    7.70
   3   1  -5  230.18    7.80
  -3  -1   5  245.08    9.20
  -3  -1   5  224.38    7.90
  -3  -1   5  221.68    9.10
  -3  -1   5  231.28    8.50
   2   1  -5   41.70    2.80
   2   1  -5   42.30    3.00
   2   1  -5   35.40    3.10
   2   1  -5   30.80    3.20
   2   1  -5   39.80    2.50
  -2  -1   5   41.00    2.70
  -2  -1   5   41.30    3.20
  -2  -1   5   45.20    2.40
  -2  -1   5   43.20    2.80
  -2  -1   5   40.00    3.70
  -2  -1   5   41.70    3.10
   1   1  -5  780.32   25.10
   1   1  -5  766.72   21.50
   1   1  -5  767.92   21.50
   1   1  -5  758.42   23.20
   1   1  -5  768.32   30.30
   1   1  -5  758.82   24.20
  -1  -1   5  763.02   21.40
  -1  -1   5  776.92   24.90
  -1  -1   5  769.62   24.40
  -1  -1   5  771.92   21.60
  -1  -1   5  776.72   22.60
  -1  -1   5  804.42   23.30
   0   1  -5  662.03   21.70
   0   1  -5  655.33   18.50
   0   1  -5  661.03   20.20
   0   1  -5  665.33   20.90
   0   1  -5  682.53   18.70
   0  -1   5  659.63   18.50
   0  -1   5  673.93   19.10
   0  -1   5  679.23   20.10
   0  -1   5  652.63   21.10
   0  -1   5  654.53   18.70
  -1   1  -5  495.85   16.10
  -1   1  -5  499.15   14.20
  -1   1  -5  500.85   15.80
  -1   1  -5  516.95   14.30
   1  -1   5  504.25   15.70
   1  -1   5  494.75   14.40
   1  -1   5  502.25   14.20
   1  -1   5  498.35   13.50
  -2   1  -5  145.89    6.00
  -2   1  -5  140.89    4.90
  -2   1  -5  138.29    4.60
  -2   1  -5  143.39    4.80
   2  -1   5  138.99    4.90
   2  -1   5  147.19    5.30
   2  -1   5  142.69    5.10
   2  -1   5  141.39    5.80
  -3   1  -5  179.88    6.20
  -3   1  -5  179.08    5.80
  -3   1  -5  180.48    6.10
  -3   1  -5  175.98    7.70
   3  -1   5  182.68    6.50
   3  -1   5  168.58    6.10
   3  -1   5  169.38    6.10
  -4   1  -5   64.79    4.80
  -4   1  -5   66.99    4.10
  -4   1  -5   62.79    3.00
   4  -1   5   67.19    3.60
   4  -1   5   58.69    4.10
   4  -1   5   68.69    3.70
  -5   1  -5  273.27   11.30
  -5   1  -5  277.47   10.10
  -5   1  -5  262.17   10.00
   5  -1   5  260.37    8.70
   5  -1   5  278.87   10.80
  -6   1  -5   11.90    4.60
  -6   1  -5    7.30    3.40
  -6   1  -5   10.70    3.30
   6  -1   5   18.70    4.50
   6  -1   5   14.70    2.50
  -7   1  -5    3.60    3.60
  -7   1  -5    8.40    4.10
   7  -1   5    2.20    5.90
   7   0  -5   21.50    6.80
  -7   0   5   32.30    5.30
   6   0  -5   11.80    3.90
  -6   0   5    0.60    3.00
  -6   0   5    6.30    4.60
   5   0  -5    4.40    2.90
   5   0  -5    6.10    2.60
  -5   0   5    3.30    2.80
  -5   0   5    2.70    2.50
  -5   0   5    8.30    4.00
   4   0  -5   25.50    3.10
   4   0  -5   25.90    2.60
  -4   0   5   22.20    2.60
  -4   0   5   22.70    3.20
  -4   0   5   22.70    3.70
   3   0  -5  357.96   11.30
   3   0  -5  345.37   11.00
   3   0  -5  378.66   12.70
  -3   0   5  366.26   11.40
  -3   0   5  362.96   13.70
  -3   0   5  341.97   12.40
  -3   0   5  370.06   12.60
   2   0  -5  186.38    6.30
   2   0  -5  181.58    6.70
   2   0  -5  181.48    7.00
   2   0  -5  182.28    7.20
   2   0  -5  165.98    8.10
   2   0  -5  174.08    6.30
  -2   0   5  191.48    7.60
  -2   0   5  182.68    6.20
  -2   0   5  181.68    7.00
  -2   0   5  178.18    6.50
  -2   0   5  183.28    7.00
   1   0  -5  660.63   19.00
   1   0  -5  666.63   22.50
   1   0  -5  682.03   20.10
   1   0  -5  674.83   21.40
   1   0  -5  662.53   18.90
  -1   0   5  673.63   19.10
  -1   0   5  684.33   20.20
  -1   0   5  662.63   21.40
  -1   0   5  704.73   19.00
  -1   0   5  710.63   22.40
  -1   0   5  685.13   20.40
   0   0  -5    7.10    1.20
   0   0  -5   10.60    1.40
   0   0  -5   10.80    1.50
   0   0  -5   10.20    1.40
   0   0  -5    8.80    1.70
   0   0  -5    8.60    1.00
   0   0   5   12.30    1.50
   0   0   5   10.30    1.60
   0   0   5    9.20    1.20
   0   0   5    7.10    1.20
   0   0   5    6.70    1.40
   0   0   5   10.10    1.40
  -1   0  -5  250.27    7.30
  -1   0  -5  249.38    8.30
  -1   0  -5  241.68    7.50
  -1   0  -5  242.18    9.00
  -1   0  -5  253.27    7.40
   1   0   5  241.68    7.40
   1   0   5  247.18    6.90
   1   0   5  254.57    7.30
   1   0   5  246.18    8.30
   1   0   5  249.68    7.40
  -2   0  -5 1836.02   48.90
  -2   0  -5 1764.52   53.19
  -2   0  -5 1863.61   48.80
   2   0   5 1887.51   45.80
   2   0   5 1822.92   48.80
   2   0   5 1843.72   46.60
   2   0   5 1818.12   48.90
  -3   0  -5   51.69    3.50
  -3   0  -5   52.39    2.30
  -3   0  -5   52.49    3.00
  -3   0  -5   56.79    2.20
   3   0   5   57.59    3.80
   3   0   5   52.29    2.50
   3   0   5   56.59    2.90
  -4   0  -5    2.30    2.60
  -4   0  -5    0.30    0.80
  -4   0  -5   -0.70    0.70
  -4   0  -5    1.60    1.80
   4   0   5   -0.60    1.70
   4   0   5    0.10    2.00
   4   0   5   -0.20    1.10
   4   0   5   -0.40    1.10
  -5   0  -5   99.99    6.90
  -5   0  -5  103.89    5.00
  -5   0  -5  118.49    5.80
   5   0   5  104.19    3.60
   5   0   5   97.79    5.90
   5   0   5  100.99    3.60
  -6   0  -5  102.19    6.40
  -6   0  -5   89.89    5.60
  -6   0  -5   93.39    5.10
  -6   0  -5  100.39    7.90
   6   0   5   95.49    6.60
   6   0   5   86.59    2.90
  -7   0  -5   23.70    4.60
  -7   0  -5   31.40    5.70
   7   0   5   28.00    6.40
  -8   0  -5   10.70    4.70
  -8   0  -5    5.10    4.40
   8   0   5   -1.60    6.90
   7  -1  -5    3.00    4.60
  -7   1   5    9.60    4.50
   6  -1  -5   60.79    5.80
  -6   1   5   52.79    5.70
  -6   1   5   53.39    5.40
   5  -1  -5   24.40    3.60
   5  -1  -5   22.80    3.90
  -5   1   5   21.90    4.60
  -5   1   5   21.00    3.20
  -5   1   5   24.80    3.50
   4  -1  -5  127.39    6.20
   4  -1  -5  129.49    6.10
   4  -1  -5  132.09    6.20
  -4   1   5  129.19    6.90
  -4   1   5  135.49    6.30
  -4   1   5  134.69    6.20
   3  -1  -5   15.60    2.20
   3  -1  -5   11.30    2.00
   3  -1  -5   13.30    2.10
  -3   1   5   13.40    2.20
  -3   1   5   15.60    2.20
  -3   1   5   10.40    2.40
   2  -1  -5  169.28    6.70
   2  -1  -5  161.58    8.40
   2  -1  -5  176.48    6.20
   2  -1  -5  176.68    6.50
   2  -1  -5  164.78    6.00
   2  -1  -5  151.88    7.70
  -2   1   5  175.88    6.10
  -2   1   5  180.08    7.10
  -2   1   5  190.28    8.10
  -2   1   5  179.28    6.50
  -2   1   5  178.18    6.90
   1  -1  -5  229.88    8.40
   1  -1  -5  219.78    7.80
   1  -1  -5  245.68    7.70
   1  -1  -5  224.38    7.40
   1  -1  -5  226.78    9.80
   1  -1  -5  226.68    9.20
  -1   1   5  221.38    8.10
  -1   1   5  237.88    7.70
  -1   1   5  264.77    9.30
  -1   1   5  228.68    7.40
  -1   1   5  241.68    7.90
   0  -1  -5  221.38    7.20
   0  -1  -5  217.48    6.70
   0  -1  -5  211.08    7.90
   0  -1  -5  212.08    6.70
   0  -1  -5  211.38    6.80
   0   1   5  216.28    7.00
   0   1   5  218.78    7.90
   0   1   5  208.88    5.80
   0   1   5  213.18    7.40
   0   1   5  208.28    6.50
   0   1   5  203.48    6.80
  -1  -1  -5  370.66   13.00
  -1  -1  -5  389.86   10.70
  -1  -1  -5  366.76   11.70
  -1  -1  -5  372.76   10.60
  -1  -1  -5  382.26   11.50
   1   1   5  375.96   10.60
   1   1   5  376.06   12.90
   1   1   5  375.96   10.00
   1   1   5  374.16   11.50
   1   1   5  364.86   10.70
  -2  -1  -5  340.37   11.20
  -2  -1  -5  351.16    9.80
  -2  -1  -5  354.46    9.70
  -2  -1  -5  356.96   12.30
   2   1   5  344.87    9.90
   2   1   5  347.87    9.60
   2   1   5  355.46   10.40
  -3  -1  -5  595.74   18.40
  -3  -1  -5  548.55   15.50
   3   1   5  599.94   16.70
   3   1   5  582.24   15.70
   3   1   5  612.34   15.70
   3   1   5  594.34   15.70
  -4  -1  -5  111.29    6.00
   4   1   5  105.39    4.50
   4   1   5  124.99    6.00
  -5  -1  -5   55.09    4.50
   5   1   5   61.59    4.80
   5   1   5   58.09    3.30
  -6  -1  -5   55.29    5.30
  -6  -1  -5   66.79    5.70
   6   1   5   53.19    4.10
   6   1   5   54.69    6.50
  -7  -1  -5   27.80    4.30
  -7  -1  -5   24.80    5.40
  -7  -1  -5   30.90    4.60
   7   1   5   30.40    6.30
   7   1   5   25.80    3.70
  -8  -1  -5   16.00    6.10
  -8  -1  -5   33.40    5.70
   8   1   5   39.40    7.70
   7  -2  -5    9.20    4.80
  -7   2   5   12.60    5.00
   6  -2  -5   -5.70    3.90
  -6   2   5    3.50    4.10
   5  -2  -5   18.70    4.20
  -5   2   5   12.40    3.80
  -5   2   5   17.60    3.60
   4  -2  -5   44.20    3.70
  -4   2   5   43.80    3.90
  -4   2   5   49.40    3.80
  -4   2   5   45.20    5.10
   3  -2  -5  105.19    5.50
   3  -2  -5  101.29    5.00
   3  -2  -5  111.29    5.40
   3  -2  -5  101.89    6.30
  -3   2   5   94.89    5.70
  -3   2   5  102.19    5.60
  -3   2   5  104.89    5.60
   2  -2  -5   26.20    4.10
   2  -2  -5   29.40    2.70
   2  -2  -5   22.20    2.90
   2  -2  -5   29.80    2.80
   2  -2  -5   29.50    2.70
  -2   2   5   29.50    3.20
  -2   2   5   32.30    3.30
  -2   2   5   32.50    3.00
   1  -2  -5    1.70    1.50
   1  -2  -5    0.80    1.70
   1  -2  -5    0.20    1.40
   1  -2  -5    5.10    1.90
   1  -2  -5    1.90    1.40
   1  -2  -5    0.60    1.50
  -1   2   5    3.10    1.30
  -1   2   5    0.50    2.10
  -1   2   5    3.20    0.70
  -1   2   5    4.20    1.30
  -1   2   5    2.30    1.60
  -1   2   5    0.60    1.50
   0  -2  -5  752.02   21.80
   0  -2  -5  772.62   23.80
   0  -2  -5  769.02   25.90
   0  -2  -5  800.02   22.00
   0  -2  -5  784.92   31.20
   0   2   5  749.23   21.90
   0   2   5  772.62   19.90
   0   2   5  844.92   26.20
   0   2   5  771.12   23.90
   0   2   5  802.32   21.90
   0   2   5  797.72   22.80
  -1  -2  -5  305.77    9.30
  -1  -2  -5  307.37   10.50
  -1  -2  -5  304.87   13.60
  -1  -2  -5  308.47   11.10
  -1  -2  -5  324.97    9.20
  -1  -2  -5  310.67    9.30
   1   2   5  307.77   11.10
   1   2   5  313.47    9.30
   1   2   5  315.17    9.20
   1   2   5  309.97    9.40
   1   2   5  310.97    8.60
  -2  -2  -5  483.75   13.60
  -2  -2  -5  490.35   14.80
  -2  -2  -5  492.55   13.60
  -2  -2  -5  501.55   16.70
   2   2   5  479.85   13.10
   2   2   5  479.35   13.70
   2   2   5  495.65   13.90
   2   2   5  493.55   13.60
  -3  -2  -5  153.78    6.00
  -3  -2  -5  143.99    6.30
  -3  -2  -5  147.39    4.20
  -3  -2  -5  154.78    4.30
   3   2   5  150.18    5.80
   3   2   5  149.99    5.20
   3   2   5  149.39    4.40
   3   2   5  148.39    4.50
   4   2   5   62.59    3.50
   4   2   5   55.39    4.60
   5   2   5  247.38    8.20
   5   2   5  231.28    9.70
  -6  -2  -5    4.10    3.20
  -6  -2  -5    4.90    3.20
   6   2   5    0.40    4.30
   6   2   5    9.30    2.90
  -7  -2  -5    4.00    3.70
  -7  -2  -5    6.50    3.60
  -7  -2  -5   11.20    3.90
   7   2   5    6.30    5.60
   7   2   5    9.70    3.30
  -8  -2  -5   -1.00    4.90
  -8  -2  -5    0.10    4.40
   8   2   5    5.30    4.70
   8   2   5   -0.90    3.40
   7  -3  -5   13.10    5.50
  -7   3   5   13.30    6.80
   6  -3  -5   17.20    5.20
  -6   3   5   15.00    6.10
   5  -3  -5   15.00    3.70
  -5   3   5   14.80    4.00
  -5   3   5   12.30    5.30
   4  -3  -5    3.90    1.80
   4  -3  -5    3.10    2.80
  -4   3   5    2.00    3.30
  -4   3   5    4.60    4.30
   3  -3  -5   51.49    6.50
   3  -3  -5   54.69    3.70
   3  -3  -5   54.59    5.20
  -3   3   5   61.39    5.00
  -3   3   5   53.59    4.30
  -3   3   5   57.49    5.10
   2  -3  -5  259.07    9.40
   2  -3  -5  251.97   13.10
   2  -3  -5  247.38   11.60
   2  -3  -5  240.68    9.30
  -2   3   5  258.97    7.00
  -2   3   5  251.47   10.50
  -2   3   5  289.57   12.40
  -2   3   5  260.57    9.70
   1  -3  -5  483.05   18.70
   1  -3  -5  501.55   21.90
   1  -3  -5  490.95   15.30
  -1   3   5  511.15   13.30
  -1   3   5  571.94   21.80
  -1   3   5  506.75   17.10
  -1   3   5  506.05   15.60
   0  -3  -5   76.49    4.60
   0  -3  -5   83.09    4.90
   0  -3  -5   80.89    3.90
   0  -3  -5   81.39    5.80
   0   3   5   85.69    4.60
   0   3   5   91.59    5.70
   0   3   5   85.09    4.80
   0   3   5   87.69    3.10
   0   3   5   89.89    4.20
   0   3   5   85.09    3.20
   0   3   5   83.99    5.00
  -1  -3  -5   18.80    2.30
  -1  -3  -5   26.50    2.40
  -1  -3  -5   20.50    2.80
  -1  -3  -5   23.60    3.20
  -1  -3  -5   20.10    2.40
   1   3   5   23.90    2.00
   1   3   5   25.00    2.40
   1   3   5   27.80    2.60
   1   3   5   30.10    2.50
  -2  -3  -5  395.36   13.70
  -2  -3  -5  395.26   11.50
  -2  -3  -5  390.56   11.40
  -2  -3  -5  366.96   16.90
  -2  -3  -5  385.96   11.40
   2   3   5  385.86   11.30
   2   3   5  384.66   11.60
   2   3   5  376.26   10.90
   2   3   5  389.06   13.60
  -3  -3  -5  196.58    6.20
  -3  -3  -5  212.98   10.70
  -3  -3  -5  196.88    8.00
  -3  -3  -5  195.48    6.00
   3   3   5  192.88    6.40
   3   3   5  192.48    6.60
   3   3   5  197.38    7.40
  -4  -3  -5    2.70    2.60
  -4  -3  -5    1.30    1.90
   4   3   5    0.90    0.60
   4   3   5    0.40    0.60
   4   3   5   -0.90    2.10
   4   3   5    4.30    2.10
  -5  -3  -5    9.50    2.80
  -5  -3  -5   10.80    3.30
   5   3   5   10.50    3.90
   5   3   5   10.60    2.80
  -6  -3  -5   -1.00    2.90
  -6  -3  -5    0.20    3.50
  -6  -3  -5   -1.60    3.20
   6   3   5    0.90    3.40
   6   3   5   -0.60    2.80
  -7  -3  -5   91.29    9.70
  -7  -3  -5  105.09    8.10
  -7  -3  -5   86.19    8.10
   7   3   5   77.99    7.80
   7   3   5   75.69    5.40
  -8  -3  -5   12.10    4.90
  -8  -3  -5    4.80    4.30
   8   3   5    7.10    3.90
   8   3   5   10.00    6.60
   6  -4  -5    3.00    5.40
  -6   4   5   -7.70    5.90
   5  -4  -5   25.00    5.60
  -5   4   5   30.80    6.30
  -5   4   5   32.00    5.50
   4  -4  -5   51.99    5.20
  -4   4   5   56.19    5.40
  -4   4   5   50.09    5.60
   3  -4  -5    5.90    3.00
   3  -4  -5   -2.90    3.50
   3  -4  -5    0.40    1.70
  -3   4   5   -0.20    3.80
  -3   4   5    0.10    3.00
   2  -4  -5   19.20    3.90
   2  -4  -5   14.70    4.10
   2  -4  -5   13.80    2.40
  -2   4   5   19.40    3.50
  -2   4   5   22.70    4.20
   1  -4  -5   50.39    4.70
   1  -4  -5   48.00    4.80
   1  -4  -5   51.39    6.20
  -1   4   5   36.90    4.50
  -1   4   5   46.70    4.50
   0  -4  -5   68.99    5.90
   0  -4  -5   70.19    4.80
   0  -4  -5   74.89    4.80
   0   4   5   82.99    3.50
   0   4   5   77.19    4.50
   0   4   5   81.99    4.20
   0   4   5   75.59    2.70
  -1  -4  -5  505.65   22.80
  -1  -4  -5  501.35   18.40
  -1  -4  -5  522.85   15.90
   1   4   5  524.25   14.50
   1   4   5  562.04   18.70
   1   4   5  534.65   15.80
   1   4   5  539.65   16.20
  -2  -4  -5   54.29    3.90
  -2  -4  -5   51.19    3.50
  -2  -4  -5   51.19    5.90
   2   4   5   52.89    3.90
   2   4   5   53.79    3.40
   2   4   5   52.09    3.60
   2   4   5   52.89    3.40
  -3  -4  -5   -0.70    1.60
  -3  -4  -5    0.20    2.90
  -3  -4  -5   -2.30    1.90
   3   4   5   -0.50    1.70
   3   4   5   -0.40    2.60
   3   4   5    2.00    2.00
   3   4   5    2.00    1.80
  -4  -4  -5  350.76   12.70
  -4  -4  -5  329.67    9.80
  -4  -4  -5  345.67   16.40
   4   4   5  315.67   11.40
   4   4   5  346.07   10.00
   4   4   5  340.07   10.10
   4   4   5  344.97   10.80
  -5  -4  -5   32.10    4.90
  -5  -4  -5   32.60    3.60
   5   4   5   44.80    4.10
   5   4   5   40.80    5.10
  -6  -4  -5    4.10    2.80
  -6  -4  -5    1.30    4.20
  -6  -4  -5    4.60    3.90
   6   4   5    3.90    3.50
   6   4   5    3.10    2.40
  -7  -4  -5   -2.60    4.00
  -7  -4  -5    0.80    3.40
  -7  -4  -5   -5.60    3.50
   7   4   5    2.50    4.20
   7   4   5   -4.10    3.40
  -8  -4  -5    1.80    4.90
  -8  -4  -5   -1.60    4.90
   8   4   5    1.40    3.80
   8   4   5    5.20    4.80
   5  -5  -5    2.10    4.30
  -5   5   5    0.90    5.70
  -5   5   5    2.90    4.20
  -5   5   5    1.90    3.70
   4  -5  -5    8.10    5.20
   4  -5  -5   -0.40    5.10
  -4   5   5    4.80    5.00
  -4   5   5    1.60    3.30
  -4   5   5    4.20    4.00
   3  -5  -5    4.30    3.50
   3  -5  -5   -3.50    4.40
  -3   5   5    4.30    3.00
  -3   5   5    8.10    3.80
  -3   5   5   12.80    4.90
   2  -5  -5  183.48    9.20
   2  -5  -5  182.58   13.00
   2  -5  -5  173.98    7.50
  -2   5   5  184.28    9.50
  -2   5   5  163.88    9.10
  -2   5   5  180.68    7.40
   1  -5  -5   42.00    5.90
   1  -5  -5   37.70    4.10
  -1   5   5   51.19    3.10
  -1   5   5   47.50    4.60
  -1   5   5   41.40    4.60
   0  -5  -5    1.50    3.10
   0  -5  -5    3.60    3.50
   0  -5  -5    3.20    2.40
   0   5   5    3.20    3.50
   0   5   5    3.90    0.90
  -1  -5  -5    3.50    2.90
  -1  -5  -5    0.70    2.50
  -1  -5  -5    4.00    2.50
   1   5   5    0.30    1.90
   1   5   5    1.10    3.10
   1   5   5    6.00    2.70
  -2  -5  -5   49.70    4.30
  -2  -5  -5   50.59    7.00
  -2  -5  -5   46.40    4.30
   2   5   5   49.80    3.40
   2   5   5   50.59    4.00
   2   5   5   53.79    4.80
  -3  -5  -5   54.89    6.30
  -3  -5  -5   57.39    4.30
  -3  -5  -5   65.99    4.50
  -3  -5  -5   58.19    2.60
   3   5   5   65.69    4.30
   3   5   5   55.79    4.50
   3   5   5   63.69    4.50
  -4  -5  -5    1.10    1.80
  -4  -5  -5    2.80    3.60
  -4  -5  -5    2.50    2.30
   4   5   5    0.70    2.00
   4   5   5   -2.20    2.40
   4   5   5    1.20    3.00
   4   5   5    4.10    2.50
  -5  -5  -5    4.30    4.00
  -5  -5  -5    3.20    4.30
  -5  -5  -5    1.20    2.60
   5   5   5   -0.80    3.80
   5   5   5    0.50    3.20
   5   5   5    0.10    1.70
  -6  -5  -5   13.70    4.80
  -6  -5  -5   15.70    5.30
  -6  -5  -5   19.40    3.50
   6   5   5   14.80    3.20
   6   5   5    7.70    4.70
  -7  -5  -5   10.50    5.60
  -7  -5  -5   14.10    5.10
   7   5   5   16.40    4.50
   7   5   5   12.20    4.40
   5  -6  -5   26.60    7.20
  -5   6   5   15.40    5.00
  -5   6   5   26.20    7.40
   4  -6  -5  -10.80    5.80
   4  -6  -5    7.40    4.60
  -4   6   5    5.90    4.60
  -4   6   5    5.10    5.70
  -4   6   5    7.90    3.70
   3  -6  -5    6.20    5.50
   3  -6  -5   -2.80    5.90
  -3   6   5    5.40    5.40
  -3   6   5   -3.10    3.00
  -3   6   5   -2.90    4.90
   2  -6  -5    0.60    3.60
   2  -6  -5   -4.30    5.10
  -2   6   5    2.70    5.00
  -2   6   5   -0.80    4.80
  -2   6   5   -0.20    2.30
   1  -6  -5    9.40    4.60
   1  -6  -5    3.90    4.90
  -1   6   5    3.50    1.80
  -1   6   5    4.50    4.70
   0  -6  -5   33.80    4.90
   0  -6  -5   27.80    5.70
   0  -6  -5   35.60    4.30
   0   6   5   39.40    2.10
   0   6   5   36.60    5.40
  -1  -6  -5   51.59    4.70
  -1  -6  -5   53.49    5.60
  -1  -6  -5   49.10    6.90
   1   6   5   52.89    5.60
   1   6   5   59.19    3.90
  -2  -6  -5   31.80    5.70
  -2  -6  -5   45.90    5.30
  -2  -6  -5   50.89    4.80
   2   6   5   39.60    4.90
   2   6   5   45.40    4.30
  -3  -6  -5   15.80    3.30
  -3  -6  -5   10.50    2.90
  -3  -6  -5    9.40    4.60
   3   6   5   16.40    3.10
   3   6   5   10.80    3.70
  -4  -6  -5   42.20    4.50
  -4  -6  -5   38.90    4.80
  -4  -6  -5   27.10    5.70
   4   6   5   49.20    4.50
   4   6   5   35.50    4.70
  -5  -6  -5   11.90    3.00
  -5  -6  -5   13.30    5.10
  -5  -6  -5   11.30    4.90
   5   6   5   17.30    4.40
   5   6   5   19.30    4.60
   5   6   5   13.40    2.90
  -6  -6  -5    5.20    5.00
  -6  -6  -5    3.20    5.10
   6   6   5   -1.30    4.30
   6   6   5   -3.30    4.10
  -7  -6  -5   -1.40    4.90
  -7  -6  -5    2.00    5.40
   7   6   5    1.60    5.50
   7   6   5    0.70    3.50
   4  -7  -5  -21.30    5.90
   4  -7  -5   10.10    5.40
  -4   7   5   -1.50    6.30
  -4   7   5    0.00    6.40
   3  -7  -5   -4.50    6.50
   3  -7  -5   19.90    6.80
  -3   7   5   -2.10    5.70
  -3   7   5   -3.50    6.00
   2  -7  -5   19.70    7.30
   2  -7  -5   19.60    6.40
  -2   7   5   37.50    7.00
   1  -7  -5    9.20    4.20
   1  -7  -5   20.30    3.20
   1  -7  -5   14.30    6.60
  -1   7   5   19.20    6.10
   0  -7  -5    9.60    3.90
   0  -7  -5    3.00    5.60
   0   7   5   13.50    5.70
  -1  -7  -5   11.40    3.60
  -1  -7  -5    8.20    5.40
   1   7   5   19.70    5.40
   1   7   5   11.50    3.60
  -2  -7  -5   22.80    3.80
  -2  -7  -5   29.00    4.20
  -2  -7  -5   22.70    3.80
  -2  -7  -5   13.20    5.60
   2   7   5   24.80    5.30
   2   7   5   24.10    4.40
  -3  -7  -5    4.70    4.00
  -3  -7  -5    3.50    3.10
  -3  -7  -5    3.40    3.30
  -3  -7  -5    0.70    3.40
   3   7   5    4.30    4.40
   3   7   5    3.60    3.00
  -4  -7  -5    3.30    5.30
  -4  -7  -5    9.00    4.70
   4   7   5    0.70    4.30
   4   7   5    4.10    4.30
  -5  -7  -5    2.60    3.70
  -5  -7  -5   -1.40    5.30
   5   7   5    2.80    4.70
   5   7   5   -2.40    3.60
  -6  -7  -5    3.50    5.30
  -6  -7  -5    6.30    4.40
   6   7   5   -2.30    2.80
   6   7   5    1.40    5.00
   2  -8  -5    6.90    6.60
   2  -8  -5   -1.50    5.50
  -2   8   5    4.40    6.80
   1  -8  -5   -1.70    4.90
   1  -8  -5    2.90    5.80
  -1   8   5    3.50    6.80
   0  -8  -5   28.90    8.00
   0  -8  -5   35.20    4.60
   0  -8  -5   44.40    5.70
   0   8   5   41.00    7.60
  -1  -8  -5    4.00    3.60
  -1  -8  -5    0.70    5.00
  -1  -8  -5   -2.60    6.00
   1   8   5    0.60    4.30
   1   8   5    0.70    2.70
  -2  -8  -5   -0.30    2.90
  -2  -8  -5    2.90    6.30
  -2  -8  -5    6.80    4.80
   2   8   5    0.20    4.10
   2   8   5    7.70    5.80
  -3  -8  -5   26.80    5.60
  -3  -8  -5    6.70    6.20
   3   8   5   24.20    5.80
   3   8   5   15.40    5.10
  -4  -8  -5   -0.10    4.40
  -4  -8  -5    0.20    5.00
   4   8   5    5.10    5.30
   4   8   5   -0.90    3.80
  -5  -8  -5    2.30    4.60
  -5  -8  -5    7.30    4.60
   5   8   5    2.80    4.60
   5   8   5    2.10    5.60
   1  -9  -5  -13.10    7.40
  -1   9   5    6.70    7.70
   0  -9  -5   -5.20    5.50
   0  -9  -5   12.10    6.80
   0   9   5    7.60    4.10
   0   9   5    7.60    5.70
  -1  -9  -5    6.90    4.30
  -1  -9  -5   -6.90    5.20
  -1  -9  -5    9.00    4.50
   1   9   5    0.50    4.20
   1   9   5    8.20    7.10
  -2  -9  -5    7.20    4.70
  -2  -9  -5   -3.50    7.10
   2   9   5    5.00    3.60
   2   9   5   11.30    6.90
  -3  -9  -5   12.30    5.50
  -3  -9  -5    0.00    6.90
   3   9   5   -4.20    6.00
   3   9   5   -2.80    5.10
  -4  -9  -5    5.90    7.00
  -4  -9  -5    3.60    4.30
   4   9   5   -6.10    5.60
   4   9   5   -0.40    5.50
   2   9  -6    6.80    5.90
   2   9  -6    8.60    5.20
   2   9  -6  -10.90    5.20
  -2  -9   6    1.20    6.60
  -2  -9   6    1.20    7.00
  -2  -9   6   -7.10    9.10
   1   9  -6   -0.90    5.50
   1   9  -6   -8.10    4.50
   1   9  -6    3.00    5.50
  -1  -9   6   -2.80    6.90
  -1  -9   6   -0.50    7.00
  -1  -9   6   -9.20    5.50
   5   8  -6   -5.60    5.90
  -5  -8   6   -2.50    5.50
  -5  -8   6  -11.80    6.90
   4   8  -6    0.30    3.50
   4   8  -6    0.90    6.20
  -4  -8   6   -0.20    7.00
  -4  -8   6   -5.00    6.60
   3   8  -6    0.70    3.80
   3   8  -6    5.20    4.80
  -3  -8   6    5.10    4.90
  -3  -8   6   -3.90    6.80
  -3  -8   6   -0.60    5.80
   2   8  -6   -2.50    4.10
   2   8  -6   -5.90    4.60
   2   8  -6    3.10    4.80
  -2  -8   6   -6.60    5.80
  -2  -8   6  -11.80    7.30
  -2  -8   6   -1.20    6.00
   1   8  -6    3.30    4.50
   1   8  -6   14.40    5.40
   1   8  -6   14.70    6.90
  -1  -8   6    3.40    5.40
  -1  -8   6    7.50    5.00
  -1  -8   6   10.20    6.90
   0   8  -6   11.40    6.90
   0   8  -6   10.90    4.50
   0   8  -6    3.90    4.70
   0  -8   6    6.30    6.70
   0  -8   6   -3.30    5.50
   0  -8   6   -0.20    6.50
  -1   8  -6    1.90    4.70
  -1   8  -6    6.10    6.70
  -1   8  -6    0.20    5.70
   1  -8   6   -1.40    6.80
  -2   8  -6    3.50    5.10
  -2   8  -6   -0.60    6.30
  -2   8  -6    5.40    4.60
   2  -8   6    1.90    7.50
   6   7  -6    2.30    4.80
  -6  -7   6   -2.50    5.00
  -6  -7   6   -1.00    5.90
   5   7  -6   -1.70    4.60
  -5  -7   6   -7.20    6.40
  -5  -7   6    0.70    5.30
   4   7  -6   10.80    5.60
  -4  -7   6    4.10    6.10
  -4  -7   6   14.10    5.10
  -4  -7   6   11.50    6.60
   3   7  -6   19.90    5.90
  -3  -7   6    4.90    6.40
  -3  -7   6    9.90    6.00
  -3  -7   6    6.10    5.10
   2   7  -6    6.10    4.60
   2   7  -6   14.50    5.70
  -2  -7   6    5.40    6.80
  -2  -7   6    8.40    5.40
  -2  -7   6   10.90    5.80
   1   7  -6   -9.40    3.90
   1   7  -6    0.20    5.40
  -1  -7   6    0.40    3.50
  -1  -7   6    1.90    4.20
  -1  -7   6   -7.40    6.60
   0   7  -6   16.50    4.70
   0   7  -6   21.20    6.00
   0  -7   6    5.30    4.60
   0  -7   6   20.80    6.50
   0  -7   6   10.20    8.10
  -1   7  -6   16.80    4.80
  -1   7  -6    6.80    5.20
  -1   7  -6    6.40    4.30
   1  -7   6    4.70    6.20
   1  -7   6   -1.20    4.20
  -2   7  -6    2.70    4.20
  -2   7  -6   15.70    4.90
  -2   7  -6    5.50    5.70
   2  -7   6    9.80    6.60
  -3   7  -6    4.50    6.20
  -3   7  -6    5.20    5.80
  -3   7  -6    5.00    5.10
   3  -7   6   11.00    5.50
   6   6  -6    3.70    4.20
   6   6  -6    9.30    4.40
  -6  -6   6    2.50    4.70
  -6  -6   6    4.50    4.20
   5   6  -6   11.30    4.70
  -5  -6   6   -2.20    4.90
  -5  -6   6   11.50    6.10
   4   6  -6   10.90    4.60
  -4  -6   6    6.20    5.60
  -4  -6   6    4.40    5.20
  -4  -6   6    7.20    4.30
   3   6  -6    7.90    3.50
  -3  -6   6    4.10    4.20
  -3  -6   6    2.20    3.80
  -3  -6   6    0.60    4.90
   2   6  -6    9.60    3.70
   2   6  -6    8.10    3.40
  -2  -6   6    9.00    3.80
  -2  -6   6    7.50    4.50
  -2  -6   6    2.60    5.40
   1   6  -6  104.29    6.70
   1   6  -6  100.69    4.90
   1   6  -6   97.69    7.70
  -1  -6   6  100.09    8.80
  -1  -6   6  105.19   12.90
  -1  -6   6  108.99    8.20
   0   6  -6    0.30    3.70
   0   6  -6    6.80    4.70
   0  -6   6    6.50    5.00
   0  -6   6    2.00    6.20
   0  -6   6    4.60    4.10
  -1   6  -6   -2.80    3.70
  -1   6  -6    0.90    3.30
   1  -6   6   -6.20    3.30
   1  -6   6    2.50    5.10
  -2   6  -6   68.29    6.90
  -2   6  -6   72.69    7.60
   2  -6   6   69.19    6.70
  -3   6  -6   41.40    6.20
  -3   6  -6   41.80    5.30
  -3   6  -6   28.20    5.00
   3  -6   6   38.70    7.00
  -4   6  -6    7.10    5.60
  -4   6  -6   16.70    5.70
   4  -6   6   14.50    6.50
   7   5  -6    3.80    3.50
   7   5  -6    6.20    4.10
   7   5  -6    7.30    3.90
  -7  -5   6   -2.20    6.30
  -7  -5   6    1.70    4.30
   6   5  -6    0.30    3.30
   6   5  -6    1.50    3.10
   6   5  -6   -4.30    3.60
  -6  -5   6   -0.90    3.70
  -6  -5   6    4.10    5.90
   5   5  -6    1.10    3.80
   5   5  -6    7.10    2.90
  -5  -5   6    2.80    3.80
  -5  -5   6    8.80    5.30
  -5  -5   6    1.30    3.10
   4   5  -6   13.90    3.20
   4   5  -6   14.10    2.50
  -4  -5   6   11.30    5.10
  -4  -5   6   13.00    3.90
  -4  -5   6   10.10    4.40
   3   5  -6   28.40    3.80
  -3  -5   6   23.30    4.80
  -3  -5   6   24.90    3.50
  -3  -5   6   17.70    4.00
   2   5  -6    4.00    2.80
   2   5  -6    4.60    2.90
  -2  -5   6    1.20    3.70
  -2  -5   6    5.10    4.00
  -2  -5   6    3.30    4.30
   1   5  -6   40.80    4.80
   1   5  -6   49.20    3.10
   1   5  -6   46.70    4.50
  -1  -5   6   40.50    5.20
  -1  -5   6   46.50    5.10
  -1  -5   6   35.30    6.30
   0   5  -6  209.08    9.10
   0   5  -6  214.98    9.20
   0  -5   6  202.98    9.90
   0  -5   6  201.98    8.90
   0  -5   6  213.08   13.60
   0  -5   6  177.18    8.00
  -1   5  -6   44.30    5.00
  -1   5  -6   47.70    4.60
   1  -5   6   38.90    3.80
   1  -5   6   45.10    4.60
   1  -5   6   58.19    5.90
  -2   5  -6    9.90    3.20
  -2   5  -6    3.20    3.90
   2  -5   6    1.00    2.50
   2  -5   6    5.30    3.60
  -3   5  -6   55.19    6.20
  -3   5  -6   63.49    5.90
   3  -5   6   56.09    5.70
   3  -5   6   57.89    4.30
  -4   5  -6   25.50    4.60
  -4   5  -6   28.40    5.80
   4  -5   6   31.40    4.40
   4  -5   6   35.00    6.30
  -5   5  -6   52.09    7.30
  -5   5  -6   40.20    5.70
   5  -5   6   51.99    6.10
   5  -5   6   47.10    7.00
   7   4  -6    6.80    4.20
   7   4  -6    4.20    4.20
  -7  -4   6   -0.40    5.60
  -7  -4   6    7.00    5.90
   6   4  -6   -0.60    3.10
   6   4  -6    5.10    2.40
   6   4  -6    3.20    3.50
  -6  -4   6    2.40    5.30
  -6  -4   6    5.90    5.00
   5   4  -6    0.00    3.40
   5   4  -6    5.30    2.80
  -5  -4   6   -0.10    3.90
  -5  -4   6   -3.00    2.80
  -5  -4   6   -0.40    2.70
  -5  -4   6    0.50    4.60
   4   4  -6    5.90    2.50
   4   4  -6    8.80    2.50
   4   4  -6    2.70    3.30
  -4  -4   6    8.20    3.40
  -4  -4   6    8.80    3.50
  -4  -4   6    6.10    3.00
  -4  -4   6    4.80    3.10
   3   4  -6   78.19    5.50
   3   4  -6   75.49    3.50
  -3  -4   6   83.69    7.20
  -3  -4   6   88.59    8.00
  -3  -4   6   76.79    5.50
   2   4  -6   63.49    5.90
   2   4  -6   64.99    3.10
   2   4  -6   73.99    5.20
  -2  -4   6   73.89    7.50
  -2  -4   6   83.19    5.70
  -2  -4   6   63.29    4.40
   1   4  -6  133.39    6.50
   1   4  -6  137.69    7.30
   1   4  -6  132.09    5.40
  -1  -4   6  138.89    7.80
  -1  -4   6  136.69   10.00
  -1  -4   6  132.09    6.80
   0   4  -6   65.89    4.80
   0   4  -6   71.19    4.50
   0  -4   6   75.49    5.60
   0  -4   6   68.39    4.90
   0  -4   6   72.69    4.00
  -1   4  -6   84.99    4.90
  -1   4  -6   84.69    4.40
  -1   4  -6   88.29    5.50
   1  -4   6   97.29    6.10
   1  -4   6   76.69    4.50
   1  -4   6   92.19    6.20
  -2   4  -6  247.38   10.50
  -2   4  -6  235.18    9.70
  -2   4  -6  252.97    9.00
   2  -4   6  258.07    8.10
   2  -4   6  274.07    8.80
   2  -4   6  251.77   10.50
  -3   4  -6    8.10    3.10
  -3   4  -6    6.20    3.40
   3  -4   6    8.80    2.90
   3  -4   6    3.90    3.90
   3  -4   6    9.50    1.90
  -4   4  -6   12.60    3.00
  -4   4  -6    8.30    4.50
  -4   4  -6   11.30    3.60
  -4   4  -6    2.10    4.40
   4  -4   6   20.10    4.80
   4  -4   6   18.10    3.70
  -5   4  -6    3.70    3.70
  -5   4  -6    4.90    4.30
   5  -4   6    1.90    4.50
   5  -4   6    4.80    4.00
  -6   4  -6    6.40    3.90
  -6   4  -6    5.00    5.60
   6  -4   6    5.10    4.70
   6  -4   6   11.90    5.60
   7   3  -6   -2.70    4.30
   7   3  -6   -4.80    3.60
  -7  -3   6    1.30    4.10
  -7  -3   6   -5.80    4.90
   6   3  -6    7.40    3.80
   6   3  -6   12.40    2.20
   6   3  -6    9.20    3.50
  -6  -3   6   12.00    5.10
  -6  -3   6    9.00    3.80
   5   3  -6   37.20    4.00
   5   3  -6   52.29    4.50
   5   3  -6   52.09    3.00
  -5  -3   6   40.80    4.80
  -5  -3   6   51.79    4.60
  -5  -3   6   32.30    4.30
   4   3  -6  140.49    6.70
   4   3  -6  148.39    6.40
   4   3  -6  143.29    7.10
  -4  -3   6  147.99    7.90
  -4  -3   6  142.19    5.90
  -4  -3   6  142.89    6.70
  -4  -3   6  154.48    8.00
  -4  -3   6  139.19    8.70
   3   3  -6   13.40    2.70
   3   3  -6    8.10    2.30
   3   3  -6   10.00    2.30
  -3  -3   6    7.70    2.50
  -3  -3   6    6.90    2.60
  -3  -3   6    7.80    1.20
  -3  -3   6   13.30    3.00
  -3  -3   6   10.80    2.40
   2   3  -6   95.59    6.60
   2   3  -6   86.39    4.40
   2   3  -6   96.09    5.10
   2   3  -6   97.29    6.00
   2   3  -6   94.89    4.50
  -2  -3   6  106.09    6.50
  -2  -3   6  102.29    6.70
  -2  -3   6   93.89    5.30
   1   3  -6  245.58    9.80
   1   3  -6  240.38    8.40
   1   3  -6  245.68   12.10
   1   3  -6  257.87    8.90
  -1  -3   6  241.98    8.70
  -1  -3   6  262.97   10.40
   0   3  -6  345.57   12.20
   0   3  -6  331.77   12.40
   0   3  -6  346.47   11.30
   0  -3   6  365.36   11.80
   0  -3   6  366.46   12.90
   0  -3   6  350.16   11.60
  -1   3  -6    9.90    1.80
  -1   3  -6   13.90    2.70
  -1   3  -6    9.20    2.90
   1  -3   6   10.20    1.70
   1  -3   6    9.80    2.90
   1  -3   6    8.30    1.40
   1  -3   6   11.70    2.70
   1  -3   6    9.50    2.40
  -2   3  -6    0.00    2.20
  -2   3  -6   -2.00    1.90
  -2   3  -6   -0.40    1.40
   2  -3   6    3.30    1.80
   2  -3   6   -0.80    0.90
   2  -3   6    4.90    2.30
   2  -3   6    0.50    2.10
  -3   3  -6    6.20    1.50
  -3   3  -6    6.00    3.50
  -3   3  -6    5.90    2.00
  -3   3  -6    7.50    2.50
   3  -3   6    5.10    2.70
   3  -3   6    6.00    1.40
   3  -3   6    8.40    3.30
   3  -3   6    4.10    2.60
  -4   3  -6  212.78   10.10
  -4   3  -6  226.58    8.40
  -4   3  -6  220.08    8.60
   4  -3   6  224.08    9.20
   4  -3   6  212.38    8.80
  -5   3  -6   44.80    4.40
  -5   3  -6   58.79    6.50
  -5   3  -6   60.89    6.00
   5  -3   6   62.79    6.10
   5  -3   6   51.39    5.50
  -6   3  -6    0.50    4.20
  -6   3  -6    5.90    4.10
   6  -3   6    5.20    4.30
   6  -3   6    9.30    5.30
   7   2  -6   16.20    5.40
   7   2  -6   12.50    3.80
  -7  -2   6    6.90    4.30
  -7  -2   6    5.00    4.60
   6   2  -6   -1.20    3.50
  -6  -2   6    4.50    3.60
  -6  -2   6    1.70    4.00
   5   2  -6    4.20    2.70
   5   2  -6   -1.20    2.90
   5   2  -6   -0.50    1.20
  -5  -2   6   -0.80    2.70
  -5  -2   6   -0.60    3.40
  -5  -2   6    1.90    2.60
   4   2  -6   80.89    4.80
   4   2  -6   83.49    5.00
  -4  -2   6   80.59    4.90
  -4  -2   6   83.39    5.00
  -4  -2   6   80.39    5.60
  -4  -2   6   84.59    5.40
   3   2  -6  103.29    4.70
   3   2  -6  103.79    5.20
   3   2  -6  107.39    5.50
  -3  -2   6  108.59    6.60
  -3  -2   6  108.29    4.80
  -3  -2   6  105.69    5.30
  -3  -2   6  103.59    5.20
   2   2  -6  858.11   34.10
   2   2  -6  842.92   24.20
   2   2  -6  791.32   28.00
   2   2  -6  869.21   24.20
  -2  -2   6  861.21   25.50
  -2  -2   6  878.81   27.50
  -2  -2   6  882.21   24.40
  -2  -2   6  845.32   27.70
   1   2  -6   48.20    2.90
   1   2  -6   45.60    3.10
   1   2  -6   40.30    3.30
   1   2  -6   46.60    4.00
   1   2  -6   48.00    4.00
   1   2  -6   43.70    2.80
  -1  -2   6   49.20    3.70
  -1  -2   6   46.20    2.80
  -1  -2   6   49.99    2.80
  -1  -2   6   49.90    4.30
  -1  -2   6   47.20    3.10
   0   2  -6   17.60    2.40
   0   2  -6   17.70    2.20
   0   2  -6   17.10    2.30
   0   2  -6   21.40    2.40
   0   2  -6   13.30    2.50
   0   2  -6   16.40    1.90
   0  -2   6   16.10    2.00
   0  -2   6   19.10    2.20
   0  -2   6   20.50    2.00
   0  -2   6   17.60    1.40
   0  -2   6   19.20    2.60
  -1   2  -6 1020.50   28.60
  -1   2  -6 1040.20   31.90
  -1   2  -6 1019.30   31.20
   1  -2   6 1026.60   32.20
   1  -2   6 1040.30   28.80
   1  -2   6 1034.80   26.50
   1  -2   6 1023.20   28.50
  -2   2  -6  206.68    8.30
  -2   2  -6  199.98    7.50
  -2   2  -6  199.98    7.00
   2  -2   6  203.28    7.00
   2  -2   6  196.98    6.70
   2  -2   6  201.78    7.30
  -3   2  -6  112.09    4.90
  -3   2  -6  104.69    4.50
  -3   2  -6  112.29    4.90
  -3   2  -6  112.39    6.70
   3  -2   6  106.79    5.20
   3  -2   6   99.89    5.10
   3  -2   6  108.99    5.00
  -4   2  -6   33.10    3.10
  -4   2  -6   35.60    3.00
  -4   2  -6   38.10    4.20
  -4   2  -6   40.00    3.50
   4  -2   6   39.60    4.40
   4  -2   6   42.70    4.00
   4  -2   6   39.10    3.70
  -5   2  -6   33.40    5.10
  -5   2  -6   32.60    4.40
  -5   2  -6   34.60    3.50
   5  -2   6   35.70    3.90
   5  -2   6   28.00    4.90
  -6   2  -6   53.19    6.00
  -6   2  -6   52.99    5.50
  -6   2  -6   49.20    5.20
   6  -2   6   59.99    5.40
   6  -2   6   49.50    6.70
  -7   2  -6   15.80    4.80
   7  -2   6   28.60    3.70
   7  -2   6   30.40    5.80
   7   1  -6    7.80    3.80
   7   1  -6   14.10    6.00
  -7  -1   6   -2.10    5.50
  -7  -1   6   -1.50    4.20
   6   1  -6   11.40    3.60
  -6  -1   6   11.90    5.00
  -6  -1   6    7.90    3.90
   5   1  -6  188.78    7.90
   5   1  -6  186.88    7.60
  -5  -1   6  180.78    7.60
  -5  -1   6  181.58    8.90
  -5  -1   6  178.28    9.30
   4   1  -6   92.99    3.00
   4   1  -6   96.39    5.00
   4   1  -6   99.49    5.30
  -4  -1   6   92.39    5.70
  -4  -1   6  102.29    6.50
  -4  -1   6   91.19    5.10
   3   1  -6    5.00    2.70
   3   1  -6   10.20    2.50
   3   1  -6   11.20    2.40
  -3  -1   6    9.90    2.20
  -3  -1   6   10.30    2.10
  -3  -1   6    8.70    2.70
  -3  -1   6   12.30    2.60
   2   1  -6   65.79    3.70
   2   1  -6   58.39    4.20
   2   1  -6   60.89    4.00
   2   1  -6   67.19    3.80
   2   1  -6   64.59    3.70
  -2  -1   6   63.09    3.50
  -2  -1   6   69.69    3.70
  -2  -1   6   55.19    4.50
  -2  -1   6   65.19    3.90
   1   1  -6  346.57   10.70
   1   1  -6  343.27   10.80
   1   1  -6  354.16   12.20
   1   1  -6  353.56   12.40
   1   1  -6  358.36   11.90
  -1  -1   6  351.66   12.10
  -1  -1   6  357.46   12.50
  -1  -1   6  357.16   11.10
  -1  -1   6  358.56   10.60
  -1  -1   6  353.86   11.00
  -1  -1   6  372.76   11.90
   0   1  -6  804.42   25.20
   0   1  -6  811.72   22.40
   0   1  -6  822.72   24.30
   0   1  -6  800.02   22.30
   0   1  -6  781.32   26.10
   0  -1   6  789.52   25.40
   0  -1   6  826.52   22.30
   0  -1   6  796.92   22.50
   0  -1   6  804.32   24.20
   0  -1   6  777.72   23.00
  -1   1  -6   12.40    1.70
  -1   1  -6   11.00    1.90
  -1   1  -6    8.90    2.10
  -1   1  -6   10.50    1.90
  -1   1  -6   13.40    1.60
   1  -1   6   11.50    1.70
   1  -1   6    9.60    1.70
   1  -1   6   12.10    2.10
   1  -1   6   10.40    1.70
  -2   1  -6  251.17    7.50
  -2   1  -6  256.67    8.00
  -2   1  -6  247.58    7.80
  -2   1  -6  266.47    9.60
  -2   1  -6  247.38    9.00
   2  -1   6  253.57    8.10
   2  -1   6  253.97    7.90
   2  -1   6  241.68    8.00
  -3   1  -6  154.98    5.50
  -3   1  -6  156.58    5.40
  -3   1  -6  159.78    7.40
  -3   1  -6  160.78    6.60
   3  -1   6  157.48    5.80
   3  -1   6  153.98    6.40
   3  -1   6  154.78    5.60
  -4   1  -6  267.17    8.20
  -4   1  -6  266.57    9.20
  -4   1  -6  274.37   11.10
   4  -1   6  273.17    9.50
   4  -1   6  269.27    8.80
   4  -1   6  253.47    8.60
  -5   1  -6  198.78    9.60
  -5   1  -6  216.68    8.50
   5  -1   6  213.98    8.90
   5  -1   6  214.68    7.40
  -6   1  -6    3.30    2.70
  -6   1  -6   -0.80    3.10
  -6   1  -6    3.40    4.40
   6  -1   6    1.20    3.60
   6  -1   6   -0.40    2.10
  -7   1  -6   28.10    4.70
  -7   1  -6   36.50    5.60
   7  -1   6   21.40    6.70
  -7   0   6    9.30    4.50
   6   0  -6    7.20    3.70
  -6   0   6   -0.60    4.50
  -6   0   6   -4.10    3.10
   5   0  -6   19.00    3.30
   5   0  -6   13.60    3.60
  -5   0   6   20.80    3.70
  -5   0   6   15.10    3.20
  -5   0   6   15.30    4.40
   4   0  -6   18.10    3.20
   4   0  -6   25.50    3.20
  -4   0   6   22.00    3.30
  -4   0   6   23.00    3.30
  -4   0   6   19.90    3.10
   3   0  -6  171.98    6.60
   3   0  -6  137.39    8.80
   3   0  -6  170.18    6.40
  -3   0   6  171.28    7.50
  -3   0   6  170.98    7.10
  -3   0   6  174.78    6.50
   2   0  -6  153.08    7.70
   2   0  -6  164.98    6.70
   2   0  -6  165.98    6.20
   2   0  -6  164.18    6.30
   2   0  -6  153.68    5.80
   2   0  -6  156.58    6.70
  -2   0   6  159.18    7.00
  -2   0   6  167.48    6.70
  -2   0   6  158.78    6.30
  -2   0   6  170.98    7.10
  -2   0   6  165.08    6.60
   1   0  -6  178.68    7.00
   1   0  -6  181.08    7.30
   1   0  -6  184.58    6.20
   1   0  -6  180.58    6.30
   1   0  -6  183.88    6.40
   1   0  -6  183.48    6.60
  -1   0   6  180.98    6.30
  -1   0   6  192.98    7.10
  -1   0   6  182.18    6.60
  -1   0   6  175.28    7.10
  -1   0   6  188.38    6.20
  -1   0   6  190.18    6.70
   0   0  -6  360.16   10.80
   0   0  -6  363.76   12.30
   0   0  -6  359.86   11.50
   0   0  -6  352.86   10.50
   0   0  -6  357.86   12.50
   0   0  -6  359.36   10.70
   0   0   6  345.07   10.80
   0   0   6  370.76   11.50
   0   0   6  354.06   10.50
   0   0   6  364.46   12.40
   0   0   6  363.06   11.00
  -1   0  -6  684.93   22.90
  -1   0  -6  686.73   21.00
  -1   0  -6  693.83   20.00
  -1   0  -6  697.13   22.10
  -1   0  -6  705.43   19.30
   1   0   6  703.63   19.20
   1   0   6  665.03   20.90
   1   0   6  705.13   19.30
  -2   0  -6 1193.58   31.60
  -2   0  -6 1163.08   34.70
  -2   0  -6 1201.38   31.50
   2   0   6 1142.19   31.60
   2   0   6 1182.78   31.60
   2   0   6 1158.18   29.70
   2   0   6 1159.28   30.40
   2   0   6 1144.59   34.60
  -3   0  -6    3.40    1.10
  -3   0  -6    2.50    2.20
  -3   0  -6    3.70    1.20
  -3   0  -6    3.40    1.20
   3   0   6    3.60    1.70
   3   0   6    0.60    0.40
   3   0   6    2.90    1.30
   3   0   6    1.40    2.20
  -4   0  -6  172.38    5.30
  -4   0  -6  163.98    6.50
  -4   0  -6  174.98    5.20
  -4   0  -6  183.78    8.20
   4   0   6  172.08    5.50
   4   0   6  177.08    6.20
   4   0   6  171.18    7.50
   4   0   6  171.08    5.70
  -5   0  -6    6.10    2.60
  -5   0  -6    6.70    2.50
   5   0   6    1.10    3.90
   5   0   6    7.20    1.30
   5   0   6    5.30    1.30
  -6   0  -6   44.60    4.20
  -6   0  -6   41.80    3.90
  -6   0  -6   38.40    4.80
  -6   0  -6   43.60    4.40
   6   0   6   46.20    5.60
  -7   0  -6   12.10    4.10
  -7   0  -6   12.60    3.70
   7   0   6   27.70    6.80
   8   0   6   -3.10    4.70
   7  -1  -6   18.40    4.80
  -7   1   6   14.60    6.40
  -6   1   6   23.50    5.70
  -6   1   6   22.90    4.10
   5  -1  -6   52.19    4.90
  -5   1   6   58.09    5.60
  -5   1   6   55.49    5.00
  -5   1   6   61.49    6.10
   4  -1  -6    0.30    2.90
   4  -1  -6    3.70    2.90
  -4   1   6    3.40    2.50
  -4   1   6    1.20    2.70
  -4   1   6    6.10    2.70
   3  -1  -6  135.29    6.10
   3  -1  -6  135.59    6.00
   3  -1  -6  121.99    5.50
  -3   1   6  124.59    6.40
  -3   1   6  145.89    6.70
  -3   1   6  134.19    6.20
   2  -1  -6  585.14   17.20
   2  -1  -6  581.24   23.20
   2  -1  -6  600.74   17.40
   2  -1  -6  555.54   20.90
   2  -1  -6  600.24   19.20
  -2   1   6  597.44   18.70
  -2   1   6  589.14   19.20
  -2   1   6  579.24   17.30
   1  -1  -6  388.56   13.30
   1  -1  -6  382.86   11.90
   1  -1  -6  385.46   14.20
   1  -1  -6  391.66   12.50
   1  -1  -6  366.96   11.60
   1  -1  -6  398.96   16.00
  -1   1   6  383.36   12.70
  -1   1   6  422.96   14.10
  -1   1   6  383.56   10.10
  -1   1   6  388.76   11.60
  -1   1   6  389.16   11.90
  -1   1   6  411.16   12.50
   0  -1  -6   70.39    3.30
   0  -1  -6   59.19    2.90
   0  -1  -6   67.19    4.00
   0  -1  -6   65.09    3.90
   0  -1  -6   61.09    2.90
   0  -1  -6   62.69    3.00
   0   1   6   62.99    2.40
   0   1   6   67.09    3.70
   0   1   6   62.39    2.80
   0   1   6   65.79    3.60
   0   1   6   65.19    3.20
   0   1   6   64.19    3.40
  -1  -1  -6  258.87    8.00
  -1  -1  -6  264.37    8.80
  -1  -1  -6  267.87    7.90
  -1  -1  -6  260.07    8.60
  -1  -1  -6  271.57    9.70
   1   1   6  263.47    7.90
   1   1   6  253.57    8.00
   1   1   6  259.57    8.60
   1   1   6  266.67    9.60
   1   1   6  261.97    7.40
  -2  -1  -6  153.58    6.60
  -2  -1  -6  156.58    5.90
  -2  -1  -6  152.18    4.80
  -2  -1  -6  155.88    4.90
   2   1   6  151.48    5.90
   2   1   6  145.29    4.90
   2   1   6  146.89    4.90
   2   1   6  148.29    4.80
  -3  -1  -6   35.40    3.10
  -3  -1  -6   34.70    1.60
  -3  -1  -6   35.50    1.50
  -3  -1  -6   26.70    2.80
   3   1   6   45.60    3.70
   3   1   6   32.70    1.80
   3   1   6   33.00    2.50
   3   1   6   31.60    1.80
  -4  -1  -6  259.87   10.00
   4   1   6  241.68    9.00
   4   1   6  254.97    7.90
  -5  -1  -6   23.20    3.10
  -5  -1  -6   15.60    3.60
   5   1   6   25.30    4.50
   5   1   6   22.70    2.50
  -6  -1  -6   91.49    6.50
  -6  -1  -6   80.19    6.20
  -6  -1  -6   90.39    6.20
   6   1   6   79.79    7.40
   6   1   6   91.89    5.00
  -7  -1  -6   16.40    5.30
  -7  -1  -6   20.60    4.20
  -7  -1  -6   17.70    3.90
   7   1   6    8.80    5.80
  -8  -1  -6   15.70    5.90
  -8  -1  -6   17.50    5.10
   8   1   6   11.10    5.70
   7  -2  -6    2.60    4.70
  -7   2   6   -4.00    6.10
   6  -2  -6   15.70    4.60
  -6   2   6    8.20    5.70
   5  -2  -6   72.09    5.40
  -5   2   6   70.59    5.80
  -5   2   6   65.59    6.70
   4  -2  -6   28.30    3.10
   4  -2  -6   23.20    4.10
  -4   2   6   34.70    4.20
  -4   2   6   28.40    4.10
  -4   2   6   26.70    2.70
   3  -2  -6   86.39    4.90
   3  -2  -6   85.69    5.80
   3  -2  -6   70.39    4.60
  -3   2   6   82.99    6.40
  -3   2   6   91.29    4.80
  -3   2   6   90.59    5.50
   2  -2  -6    2.00    1.80
   2  -2  -6   -0.80    3.10
   2  -2  -6    2.10    1.70
   2  -2  -6    1.00    1.80
  -2   2   6    0.60    1.20
  -2   2   6   -2.80    2.40
  -2   2   6   -0.20    2.60
   1  -2  -6   11.70    1.90
   1  -2  -6   11.20    1.90
   1  -2  -6    8.20    1.90
   1  -2  -6    8.50    1.70
   1  -2  -6   11.50    2.30
   1  -2  -6    9.40    2.20
  -1   2   6   11.30    2.10
  -1   2   6   12.70    1.10
  -1   2   6   12.60    1.80
  -1   2   6   10.40    2.00
  -1   2   6   13.50    1.80
   0  -2  -6 1905.91   50.69
   0  -2  -6 1879.01   72.49
   0  -2  -6 1925.81   54.49
   0  -2  -6 1757.92   59.89
   0  -2  -6 1858.81   50.49
   0   2   6 2008.70   60.19
   0   2   6 1881.21   46.50
   0   2   6 1865.81   50.49
   0   2   6 1861.11   54.59
   0   2   6 1821.62   50.69
   0   2   6 1837.52   53.59
  -1  -2  -6  377.46   15.90
  -1  -2  -6  366.86   10.80
  -1  -2  -6  372.06   13.00
  -1  -2  -6  323.87   10.90
  -1  -2  -6  366.56   10.90
  -1  -2  -6  370.46   12.20
   1   2   6  377.96   13.00
   1   2   6  368.96   10.00
   1   2   6  364.16   11.00
   1   2   6  359.46   11.00
   1   2   6  374.16   10.80
  -2  -2  -6  126.79    4.40
  -2  -2  -6  136.29    6.10
  -2  -2  -6  139.19    4.50
  -2  -2  -6  136.99    5.00
   2   2   6  136.89    4.40
   2   2   6  121.29    5.10
   2   2   6  132.99    4.70
   2   2   6  124.19    4.50
  -3  -2  -6  393.86   14.10
  -3  -2  -6  390.66   12.70
  -3  -2  -6  395.76   10.80
  -3  -2  -6  388.46   10.90
   3   2   6  402.76   11.20
   3   2   6  386.16   11.00
   3   2   6  391.36   10.90
   3   2   6  389.66   12.20
  -4  -2  -6   65.09    4.80
  -4  -2  -6   57.09    4.30
   4   2   6   59.19    3.20
   4   2   6   46.70    4.00
  -5  -2  -6   52.79    5.10
   5   2   6   50.09    5.50
   5   2   6   47.30    3.80
  -6  -2  -6   10.40    3.80
  -6  -2  -6   10.00    3.30
   6   2   6   10.20    4.90
   6   2   6   13.60    3.20
  -7  -2  -6    3.90    3.60
  -7  -2  -6    3.70    3.70
  -7  -2  -6    2.30    4.20
   7   2   6    0.70    3.30
   7   2   6    4.50    5.20
  -8  -2  -6    7.50    4.70
  -8  -2  -6    4.70    3.90
  -8  -2  -6    6.80    4.60
   8   2   6    9.80    4.00
   8   2   6   -7.40    6.30
   6  -3  -6    2.90    4.90
  -6   3   6   15.60    6.40
   5  -3  -6    5.30    4.50
  -5   3   6    2.40    3.90
  -5   3   6    5.40    4.00
   4  -3  -6    1.70    3.80
  -4   3   6   -0.60    4.30
  -4   3   6    0.20    2.60
   3  -3  -6  376.46   13.00
   3  -3  -6  315.97   17.10
   3  -3  -6  369.76   13.00
  -3   3   6  407.86   16.50
  -3   3   6  372.86   14.50
  -3   3   6  377.76   12.80
   2  -3  -6  188.08   10.90
   2  -3  -6  178.48    9.70
   2  -3  -6  209.18    8.00
  -2   3   6  195.58    9.20
  -2   3   6  197.78    5.50
  -2   3   6  209.58   10.00
  -2   3   6  196.68    8.40
   1  -3  -6   21.00    3.10
   1  -3  -6   22.70    3.60
  -1   3   6   22.50    1.70
  -1   3   6   24.70    2.90
  -1   3   6   25.20    3.50
  -1   3   6   22.20    3.60
   0  -3  -6   52.69    4.40
   0  -3  -6   52.59    4.80
   0   3   6   52.79    5.10
   0   3   6   58.09    3.10
   0   3   6   58.49    4.20
   0   3   6   46.90    3.90
   0   3   6   48.80    2.40
   0   3   6   48.90    2.40
  -1  -3  -6   55.79    3.60
  -1  -3  -6   53.29    4.50
  -1  -3  -6   54.39    3.30
   1   3   6   53.99    2.70
   1   3   6   54.39    3.80
   1   3   6   57.99    3.20
   1   3   6   50.99    3.10
  -2  -3  -6  206.08   10.40
  -2  -3  -6  198.58    8.20
  -2  -3  -6  184.98    6.30
  -2  -3  -6  197.28    6.60
   2   3   6  201.18    8.50
   2   3   6  200.78    6.60
   2   3   6  196.68    6.70
   2   3   6  194.98    6.40
  -3  -3  -6  114.59    4.20
  -3  -3  -6  119.89    7.30
  -3  -3  -6  118.19    5.90
  -3  -3  -6  116.69    4.80
  -3  -3  -6  110.49    4.00
   3   3   6  113.09    4.50
   3   3   6  110.19    5.80
   3   3   6  111.29    4.70
  -4  -3  -6   24.10    3.20
  -4  -3  -6   22.90    3.40
  -4  -3  -6   27.90    3.00
   4   3   6   27.50    1.40
   4   3   6   26.30    3.00
   4   3   6   30.30    3.60
   4   3   6   26.70    1.30
  -5  -3  -6   19.90    3.40
  -5  -3  -6   21.70    3.60
   5   3   6   27.00    2.90
   5   3   6   20.80    4.50
  -6  -3  -6   57.89    6.10
  -6  -3  -6   48.50    5.70
  -6  -3  -6   58.99    7.90
   6   3   6   50.69    3.90
   6   3   6   55.19    5.70
  -7  -3  -6   36.10    5.10
  -7  -3  -6   42.90    5.60
  -7  -3  -6   38.20    5.30
  -7  -3  -6   29.40    5.40
  -7  -3  -6   33.00    5.40
   7   3   6   44.20    4.50
   7   3   6   24.60    6.20
  -8  -3  -6    8.40    4.80
  -8  -3  -6    8.50    4.90
  -8  -3  -6    8.10    5.00
  -8  -3  -6    6.60    4.80
  -8  -3  -6    9.30    4.80
   8   3   6   11.90    4.20
   8   3   6    2.80    6.30
   6  -4  -6   31.90    6.50
  -6   4   6   20.50    7.20
   5  -4  -6   13.60    5.40
  -5   4   6    7.70    4.70
  -5   4   6    9.10    4.60
   4  -4  -6    6.80    3.90
   4  -4  -6    7.10    4.70
  -4   4   6   20.50    4.90
  -4   4   6    9.30    4.10
   3  -4  -6    6.00    4.00
   3  -4  -6   -3.90    3.80
   3  -4  -6   -1.60    2.00
  -3   4   6   -0.80    3.80
  -3   4   6    1.30    3.10
   2  -4  -6   75.79    6.10
   2  -4  -6   77.79    7.90
  -2   4   6   81.29    6.40
  -2   4   6   69.99    5.90
  -2   4   6   73.89    3.00
   1  -4  -6  122.09    6.50
   1  -4  -6  117.99    7.90
   1  -4  -6  119.19    8.50
  -1   4   6  132.49    4.50
  -1   4   6  123.09    7.80
  -1   4   6  124.19    6.80
   0  -4  -6  327.27   16.10
   0  -4  -6  326.57   13.40
   0  -4  -6  361.36   11.80
   0   4   6  353.46   11.70
   0   4   6  348.07   10.30
   0   4   6  353.36   10.20
   0   4   6  365.66   10.00
  -1  -4  -6    4.50    2.70
  -1  -4  -6    4.10    2.30
  -1  -4  -6    2.50    2.30
   1   4   6    5.00    2.30
   1   4   6    4.40    1.40
   1   4   6    7.60    2.80
  -2  -4  -6    2.90    2.00
  -2  -4  -6    9.20    2.30
  -2  -4  -6    4.30    2.90
   2   4   6    1.90    1.40
   2   4   6    6.60    2.00
   2   4   6    1.80    2.50
  -3  -4  -6   47.10    2.70
  -3  -4  -6   40.00    5.20
  -3  -4  -6   45.40    4.50
  -3  -4  -6   48.70    3.20
   3   4   6   52.49    3.70
   3   4   6   45.20    3.70
   3   4   6   52.79    3.10
  -4  -4  -6  144.99    9.70
  -4  -4  -6  140.99    6.80
  -4  -4  -6  122.29    4.40
  -4  -4  -6  136.79    5.80
   4   4   6  129.79    4.70
   4   4   6  119.49    6.90
   4   4   6  130.79    5.90
   4   4   6  127.09    5.00
  -5  -4  -6   30.80    5.00
  -5  -4  -6   33.10    3.80
   5   4   6   30.90    5.10
   5   4   6   40.70    4.10
  -6  -4  -6    2.20    3.30
  -6  -4  -6    2.00    3.10
  -6  -4  -6    4.80    4.20
   6   4   6   -1.30    3.20
   6   4   6   -5.40    4.30
  -7  -4  -6    6.10    4.90
  -7  -4  -6    2.80    3.50
  -7  -4  -6    0.40    4.40
   7   4   6    1.80    5.60
   7   4   6    7.70    4.00
  -8  -4  -6   -5.60    4.40
  -8  -4  -6   -0.20    4.60
  -8  -4  -6    6.00    5.00
   8   4   6    3.30    6.60
   5  -5  -6    0.50    5.70
  -5   5   6    2.20    4.70
  -5   5   6    5.20    5.60
   4  -5  -6    1.70    5.20
   4  -5  -6   12.80    5.50
  -4   5   6   13.90    4.80
  -4   5   6   20.00    4.50
   3  -5  -6   74.69   10.20
   3  -5  -6  103.99    8.20
  -3   5   6   95.09    7.90
  -3   5   6  112.29    8.50
   2  -5  -6    7.40    3.40
   2  -5  -6    4.60    2.40
   2  -5  -6   10.20    4.50
  -2   5   6   11.40    1.90
  -2   5   6    5.10    3.40
  -2   5   6    6.70    2.30
  -2   5   6    8.50    3.60
   1  -5  -6    4.00    2.80
   1  -5  -6   -1.30    3.50
   1  -5  -6   -1.50    3.80
  -1   5   6    2.70    3.10
  -1   5   6    2.10    1.60
  -1   5   6    1.10    4.10
  -1   5   6    1.10    1.40
   0  -5  -6    5.30    3.60
   0  -5  -6    7.50    2.70
   0  -5  -6    8.90    3.50
   0   5   6    4.90    2.00
   0   5   6   12.60    3.90
  -1  -5  -6   96.29    8.60
  -1  -5  -6  108.39    6.00
  -1  -5  -6   97.89    6.40
   1   5   6  106.39    4.90
   1   5   6  103.89    6.40
  -2  -5  -6   49.20    5.90
  -2  -5  -6   47.50    4.70
  -2  -5  -6   48.50    4.30
   2   5   6   44.40    4.30
   2   5   6   52.59    4.10
   2   5   6   49.70    4.00
  -3  -5  -6    9.70    2.70
  -3  -5  -6    8.10    0.90
  -3  -5  -6    8.10    3.90
  -3  -5  -6   14.90    2.90
  -3  -5  -6    6.70    0.90
   3   5   6    9.00    2.90
   3   5   6   10.90    2.70
   3   5   6   10.50    2.30
  -4  -5  -6    0.40    1.60
  -4  -5  -6    1.80    2.80
  -4  -5  -6   -2.00    2.50
   4   5   6    3.00    3.10
   4   5   6   -1.40    3.50
   4   5   6    0.40    2.50
  -5  -5  -6    0.40    2.80
  -5  -5  -6    1.20    3.00
   5   5   6    0.30    1.60
   5   5   6    2.60    3.40
   5   5   6    1.60    3.10
  -6  -5  -6    9.30    3.80
  -6  -5  -6   11.80    3.60
  -6  -5  -6   15.80    4.30
   6   5   6   15.20    4.20
   6   5   6    9.20    5.00
  -7  -5  -6    3.30    4.90
  -7  -5  -6    8.40    4.30
   7   5   6   14.60    5.90
   7   5   6    2.30    4.30
   4  -6  -6  -14.80    5.50
   4  -6  -6    4.00    6.20
  -4   6   6   -1.40    3.70
  -4   6   6    0.40    5.60
  -4   6   6   -5.40    5.80
   3  -6  -6   -4.20    5.30
   3  -6  -6    9.40    4.30
  -3   6   6    1.70    2.70
  -3   6   6    7.70    4.40
  -3   6   6    2.20    5.70
   2  -6  -6    2.10    4.90
   2  -6  -6   -2.50    3.70
  -2   6   6    6.50    5.30
  -2   6   6    2.20    2.00
  -2   6   6    0.80    2.10
  -2   6   6   -2.80    4.90
   1  -6  -6   87.09   10.60
   1  -6  -6  102.39    6.70
  -1   6   6   91.79    4.40
  -1   6   6   89.79    4.60
  -1   6   6  108.69    8.50
   0  -6  -6   16.30    4.50
   0  -6  -6   13.30    3.50
   0  -6  -6    8.20    4.60
   0   6   6   21.50    5.00
   0   6   6   17.60    2.80
  -1  -6  -6    5.80    2.90
  -1  -6  -6    6.10    3.20
  -1  -6  -6    4.00    4.30
   1   6   6    2.30    2.70
   1   6   6    5.20    4.10
  -2  -6  -6   66.09    5.60
  -2  -6  -6   68.59    6.20
  -2  -6  -6   72.89    9.30
   2   6   6   62.89    5.20
   2   6   6   76.09    5.10
  -3  -6  -6   10.30    3.90
  -3  -6  -6   10.10    3.20
  -3  -6  -6   18.10    3.40
   3   6   6   16.80    3.90
   3   6   6   21.30    3.40
  -4  -6  -6   27.20    5.70
  -4  -6  -6   25.90    3.50
   4   6   6   33.20    4.70
   4   6   6   31.90    4.10
  -5  -6  -6   -4.30    4.40
  -5  -6  -6    0.90    4.70
  -5  -6  -6    0.50    2.90
   5   6   6   -0.30    2.60
   5   6   6    5.60    4.00
   5   6   6   -3.60    3.80
  -6  -6  -6   -0.50    4.60
  -6  -6  -6    1.60    3.70
   6   6   6   -2.90    4.20
   6   6   6    0.20    4.80
  -7  -6  -6    4.70    5.50
  -7  -6  -6   -2.30    3.90
   7   6   6   -4.10    4.60
   7   6   6   10.30    6.10
  -4   7   6   15.60    7.00
   3  -7  -6  -12.20    6.00
   3  -7  -6    9.70    5.00
  -3   7   6    6.90    6.50
  -3   7   6    8.10    4.90
   2  -7  -6   -1.30    4.10
   2  -7  -6   -4.90    4.20
  -2   7   6    8.40    4.80
  -2   7   6    2.40    2.50
   1  -7  -6    8.30    6.20
   1  -7  -6    3.90    5.40
  -1   7   6   10.30    4.60
  -1   7   6    6.10    3.00
   0  -7  -6    7.20    5.70
   0  -7  -6   15.90    5.30
   0   7   6   14.40    4.50
   0   7   6   15.30    3.30
  -1  -7  -6   13.60    4.30
  -1  -7  -6   21.10    4.90
  -1  -7  -6   15.20    4.70
   1   7   6   30.70    6.00
   1   7   6   18.70    3.60
  -2  -7  -6   10.60    4.40
  -2  -7  -6   19.50    4.40
  -2  -7  -6    9.20    4.00
   2   7   6    4.50    2.80
   2   7   6   12.00    3.90
  -3  -7  -6    1.80    3.10
  -3  -7  -6   -0.40    3.80
   3   7   6    1.00    4.30
   3   7   6    2.40    3.10
  -4  -7  -6   10.40    5.10
  -4  -7  -6    0.80    5.20
   4   7   6    0.00    4.30
   4   7   6   -1.90    4.10
  -5  -7  -6    7.80    5.60
  -5  -7  -6   15.30    5.60
   5   7   6    6.40    3.80
   5   7   6    3.10    3.70
  -6  -7  -6    9.10    5.80
  -6  -7  -6    6.00    5.70
   6   7   6   -1.60    5.30
   2  -8  -6    0.70    4.90
   2  -8  -6   -3.60    5.20
  -2   8   6   -1.30    5.00
   1  -8  -6   -6.40    6.40
   1  -8  -6    7.30    6.20
  -1   8   6    3.00    3.10
  -1   8   6    0.70    4.90
   0  -8  -6   44.20    7.00
   0  -8  -6   28.10    7.80
   0  -8  -6   58.99    6.20
   0   8   6   44.20    4.40
   0   8   6   43.70    6.30
  -1  -8  -6    3.70    3.60
  -1  -8  -6   -1.10    4.60
  -1  -8  -6   10.30    5.00
   1   8   6    6.80    6.10
   1   8   6    2.00    2.80
  -2  -8  -6   10.10    6.60
  -2  -8  -6   15.10    4.10
  -2  -8  -6   13.80    5.10
  -2  -8  -6    9.60    4.50
   2   8   6   12.30    4.60
   2   8   6   20.50    6.40
  -3  -8  -6    2.40    6.10
  -3  -8  -6    3.00    3.50
   3   8   6   -5.70    4.90
   3   8   6   -3.10    4.60
  -4  -8  -6    4.50    6.10
  -4  -8  -6    1.20    3.80
   4   8   6   -1.50    5.20
   4   8   6    2.30    4.60
  -5  -8  -6    4.60    5.70
  -5  -8  -6   -1.20    6.00
   5   8   6   -7.10    3.60
   5   8   6   -2.40    3.90
   0  -9  -6    1.60    6.20
   0  -9  -6   -5.80    7.40
   0   9   6    5.60    3.90
   0   9   6    6.60    7.50
  -1  -9  -6   -2.40    5.40
  -1  -9  -6    5.10    5.80
  -1  -9  -6    1.80    4.00
   1   9   6    3.10    4.40
   1   9   6    7.00    5.40
  -2  -9  -6   -0.50    4.60
  -2  -9  -6    0.70    7.30
   2   9   6    9.10    6.50
   2   9   6   -8.20    4.60
  -3  -9  -6    7.90    5.30
  -3  -9  -6   -0.30    7.10
   3   9   6    3.70    5.40
   3   9   6    3.60    6.10
  -4  -9  -6   -1.10    5.20
  -4  -9  -6    2.50    5.80
   4   9   6   -8.10    5.40
   4   9   6    8.20    6.40
   4   8  -7    1.60    6.60
   4   8  -7   -4.70    3.40
  -4  -8   7   -0.30    7.30
  -4  -8   7   -2.60    5.20
   3   8  -7    2.50    6.60
  -3  -8   7   -4.90    4.80
  -3  -8   7   -6.90    7.20
  -3  -8   7    2.90    5.70
   2   8  -7    4.50    5.30
   2   8  -7   11.50    7.00
  -2  -8   7   -0.90    6.50
  -2  -8   7   15.40    5.30
  -2  -8   7    6.30    8.30
   1   8  -7    2.80    6.70
   1   8  -7   -4.50    4.50
  -1  -8   7   -2.30    6.40
  -1  -8   7   -5.50    5.40
  -1  -8   7   -2.50    6.10
   0   8  -7   -1.30    5.20
   0   8  -7    7.80    6.90
   0   8  -7    0.40    4.90
   0  -8   7   -3.70    6.90
   0  -8   7  -12.90    5.60
  -1   8  -7    3.20    5.10
  -1   8  -7   13.70    6.90
  -1   8  -7    4.60    4.50
   1  -8   7    8.10    5.70
  -2   8  -7   -0.80    5.20
  -2   8  -7   -1.20    6.70
  -2   8  -7   -9.10    5.80
   2  -8   7    2.90    5.80
   5   7  -7    5.90    5.50
  -5  -7   7   -4.30    6.80
   4   7  -7    2.90    4.10
  -4  -7   7    6.50    5.90
  -4  -7   7   13.20    4.20
  -4  -7   7    0.60    6.50
   3   7  -7   10.70    5.70
  -3  -7   7    5.70    6.20
  -3  -7   7   -1.70    6.10
  -3  -7   7   -0.10    3.80
   2   7  -7    2.70    4.30
   2   7  -7   -7.50    4.60
  -2  -7   7    1.90    5.00
  -2  -7   7   -3.30    5.40
  -2  -7   7    3.70    5.60
   1   7  -7   10.30    4.90
   1   7  -7   12.70    6.10
  -1  -7   7    6.10    7.60
  -1  -7   7   15.40    6.20
  -1  -7   7   11.20    5.70
   0   7  -7    0.90    5.60
   0   7  -7    6.10    4.80
   0  -7   7   -2.60    4.60
   0  -7   7    4.10    6.20
  -1   7  -7    8.50    4.90
  -1   7  -7    8.30    4.50
   1  -7   7   -2.30    4.50
   1  -7   7    8.90    6.50
  -2   7  -7   62.99    6.70
  -2   7  -7   40.50    6.20
  -2   7  -7   37.00    5.80
   2  -7   7   40.40    7.80
  -3   7  -7    4.10    5.10
  -3   7  -7    2.50    5.90
  -3   7  -7   -3.90    5.60
   3  -7   7    2.20    5.10
   6   6  -7    1.10    4.60
  -6  -6   7    8.80    5.90
  -6  -6   7   -5.00    4.70
   5   6  -7    1.70    4.80
  -5  -6   7   -0.10    4.80
  -5  -6   7   -3.20    5.90
   4   6  -7    9.40    4.80
  -4  -6   7    8.20    4.30
  -4  -6   7    1.90    5.80
  -4  -6   7    1.20    5.10
   3   6  -7   13.80    5.00
  -3  -6   7   10.70    4.90
  -3  -6   7    5.80    5.20
  -3  -6   7   11.80    4.40
   2   6  -7   19.70    4.90
   2   6  -7   25.00    4.40
  -2  -6   7   21.30    5.80
  -2  -6   7   26.50    5.50
  -2  -6   7   16.50    6.00
   1   6  -7   85.19    4.60
   1   6  -7   83.99    6.40
   1   6  -7   65.79    6.50
  -1  -6   7   63.69    9.00
  -1  -6   7   94.69    8.10
  -1  -6   7   84.09    7.30
   0   6  -7    0.50    3.40
   0   6  -7   -3.50    2.80
   0  -6   7   -2.30    4.90
   0  -6   7   -4.60    4.50
  -1   6  -7   19.60    4.90
  -1   6  -7   27.40    4.50
   1  -6   7   19.00    4.80
   1  -6   7   36.00    6.30
  -2   6  -7    0.60    3.60
  -2   6  -7    6.70    4.60
   2  -6   7   -0.10    5.40
  -3   6  -7   17.00    5.50
  -3   6  -7   24.50    5.70
  -3   6  -7   16.90    5.80
   3  -6   7    9.60    6.30
  -4   6  -7   11.60    6.10
  -4   6  -7    3.20    4.00
   4  -6   7    0.40    6.40
   7   5  -7    1.80    4.70
   7   5  -7    6.30    4.20
  -7  -5   7    1.70    6.00
  -7  -5   7    0.50    6.80
   6   5  -7    3.20    3.60
   6   5  -7    5.50    3.30
   6   5  -7    4.40    4.80
  -6  -5   7   -1.40    5.20
  -6  -5   7    0.00    6.20
   5   5  -7   24.40    3.20
   5   5  -7   31.30    5.00
  -5  -5   7   24.50    5.10
  -5  -5   7   24.60    5.10
   4   5  -7   16.80    4.60
   4   5  -7   14.70    2.50
  -4  -5   7    6.50    3.90
  -4  -5   7   12.60    4.20
  -4  -5   7   13.00    4.50
   3   5  -7    2.40    3.00
  -3  -5   7    0.20    3.80
  -3  -5   7   -2.00    3.70
  -3  -5   7   -1.20    4.50
   2   5  -7    4.20    1.10
   2   5  -7    9.00    3.30
   2   5  -7    3.00    2.90
  -2  -5   7    4.90    4.40
  -2  -5   7    0.30    3.20
  -2  -5   7    6.90    4.10
   1   5  -7   43.20    4.70
   1   5  -7   52.19    5.40
   1   5  -7   53.69    3.60
  -1  -5   7   51.59    5.80
  -1  -5   7   58.59    5.70
   0   5  -7   25.00    4.50
   0   5  -7   35.70    4.90
   0  -5   7   31.40    5.10
   0  -5   7   20.80    2.80
   0  -5   7   25.10    4.70
  -1   5  -7   51.59    5.40
  -1   5  -7   37.80    4.40
   1  -5   7   47.40    4.80
   1  -5   7   40.30    4.90
   1  -5   7   27.10    3.20
  -2   5  -7   30.40    5.10
  -2   5  -7   25.60    4.70
   2  -5   7   17.50    3.30
   2  -5   7   22.20    5.30
  -3   5  -7   28.00    4.50
  -3   5  -7   30.80    4.90
   3  -5   7   28.20    5.80
  -4   5  -7   18.10    4.50
  -4   5  -7   25.30    5.90
   4  -5   7   23.60    6.00
   4  -5   7   24.80    3.90
  -5   5  -7   20.00    6.00
  -5   5  -7   20.50    5.00
   5  -5   7   19.30    4.70
   5  -5   7   11.80    6.00
   7   4  -7    5.70    4.30
   7   4  -7   -2.10    3.80
  -7  -4   7   -6.60    5.70
  -7  -4   7    5.30    6.30
   6   4  -7   -0.70    2.20
   6   4  -7    2.00    3.40
   6   4  -7    4.80    3.80
  -6  -4   7    6.30    3.80
  -6  -4   7    0.80    5.50
   5   4  -7   -0.40    2.50
   5   4  -7   -3.20    3.60
  -5  -4   7   -1.30    3.20
  -5  -4   7   -1.40    3.50
  -5  -4   7    1.40    4.30
   4   4  -7    3.90    2.80
   4   4  -7    2.70    2.30
   4   4  -7    4.00    2.30
  -4  -4   7    8.70    4.50
  -4  -4   7    9.50    3.60
  -4  -4   7    4.40    3.30
  -4  -4   7    3.70    2.90
   3   4  -7  277.67   10.10
  -3  -4   7  301.97   14.90
  -3  -4   7  278.37   12.40
  -3  -4   7  283.67   10.40
   2   4  -7   50.69    3.30
   2   4  -7   53.69    5.10
   2   4  -7   46.30    5.10
  -2  -4   7   47.30    5.30
  -2  -4   7   49.90    4.30
   1   4  -7   36.80    3.00
   1   4  -7   30.50    3.70
   1   4  -7   35.70    3.60
  -1  -4   7   36.90    3.80
  -1  -4   7   28.80    4.40
   0   4  -7   81.79    5.60
   0   4  -7   71.19    5.30
   0  -4   7   75.69    6.20
   0  -4   7   76.69    5.90
   0  -4   7   80.49    4.10
  -1   4  -7   67.09    6.10
  -1   4  -7   62.19    4.50
   1  -4   7   61.19    3.80
   1  -4   7   65.09    5.90
   1  -4   7   62.19    5.40
  -2   4  -7  114.49    7.80
  -2   4  -7  119.19    5.50
  -2   4  -7  118.39    6.60
   2  -4   7  125.59    4.80
   2  -4   7  120.69    7.40
   2  -4   7  123.09    5.00
  -3   4  -7    3.20    3.10
  -3   4  -7   -1.30    3.10
   3  -4   7    1.00    3.90
   3  -4   7    2.30    2.70
  -4   4  -7    8.90    4.80
  -4   4  -7   10.10    3.60
   4  -4   7   10.00    3.50
   4  -4   7    8.40    4.40
  -5   4  -7    8.30    5.40
  -5   4  -7   16.10    5.30
   5  -4   7   12.80    4.40
   5  -4   7   13.10    5.40
  -6   4  -7   24.50    6.00
  -6   4  -7   18.10    5.30
   6  -4   7   34.90    6.30
   6  -4   7   43.20    5.90
   7   3  -7   -4.50    4.20
   7   3  -7   -2.70    4.50
  -7  -3   7   -2.10    5.30
  -7  -3   7   -0.80    4.10
   6   3  -7   55.59    5.40
   6   3  -7   66.99    6.00
  -6  -3   7   50.19    5.90
  -6  -3   7   54.29    5.90
   5   3  -7   60.19    5.40
  -5  -3   7   75.19    7.50
  -5  -3   7   54.39    6.30
  -5  -3   7   52.99    5.10
   4   3  -7   12.10    2.00
   4   3  -7   19.60    3.70
  -4  -3   7   14.50    3.50
  -4  -3   7   12.60    1.90
  -4  -3   7   18.90    3.50
  -4  -3   7   15.20    3.70
   3   3  -7    4.90    2.30
   3   3  -7    7.70    2.00
   3   3  -7    8.70    3.10
  -3  -3   7   12.20    3.00
  -3  -3   7    9.80    2.60
  -3  -3   7    7.70    1.40
  -3  -3   7   11.90    3.20
   2   3  -7   51.39    4.40
   2   3  -7   49.30    3.70
   2   3  -7   50.09    4.80
   2   3  -7   53.99    4.40
  -2  -3   7   50.89    3.90
  -2  -3   7   61.69    5.80
  -2  -3   7   53.29    3.90
   1   3  -7  245.88    9.00
   1   3  -7  256.97    9.90
   1   3  -7  253.27    9.30
  -1  -3   7  262.27   10.90
  -1  -3   7  247.68    9.30
   0   3  -7   78.99    4.30
   0   3  -7   75.29    4.80
   0   3  -7   83.59    5.70
   0  -3   7   75.49    4.50
   0  -3   7   72.69    4.90
  -1   3  -7   -1.70    1.50
  -1   3  -7   -1.60    2.80
  -1   3  -7    4.60    2.50
   1  -3   7    0.80    2.20
   1  -3   7    1.70    2.50
   1  -3   7   -2.50    1.90
   1  -3   7   -0.20    0.80
  -2   3  -7   11.40    2.90
  -2   3  -7    6.50    2.60
  -2   3  -7    5.80    1.80
   2  -3   7   13.10    2.50
   2  -3   7    8.50    2.60
   2  -3   7    7.80    0.90
   2  -3   7   16.50    3.40
  -3   3  -7  167.68    9.00
  -3   3  -7  161.18    6.60
  -3   3  -7  165.08    6.90
   3  -3   7  157.88    7.00
   3  -3   7  162.58    6.70
   3  -3   7  170.38    7.70
  -4   3  -7  263.67    9.40
  -4   3  -7  250.57    9.10
  -4   3  -7  238.58   11.10
   4  -3   7  248.68   10.30
   4  -3   7  239.48    9.60
  -5   3  -7   27.60    5.00
  -5   3  -7   25.10    5.70
   5  -3   7   30.90    4.40
   5  -3   7   20.50    4.80
  -6   3  -7    6.90    4.70
  -6   3  -7    1.80    5.30
   6  -3   7    3.80    5.20
   6  -3   7   -0.20    3.80
   7   2  -7    4.40    3.80
   7   2  -7    6.00    5.10
  -7  -2   7    3.90    4.30
  -7  -2   7    0.80    4.80
   6   2  -7   -6.00    3.40
  -6  -2   7    3.20    3.60
  -6  -2   7    2.90    4.40
   5   2  -7   19.10    1.80
   5   2  -7   15.50    3.70
  -5  -2   7   15.00    3.40
  -5  -2   7   20.70    4.50
  -5  -2   7   10.60    4.30
   4   2  -7   69.89    5.10
   4   2  -7   79.09    4.90
  -4  -2   7   74.79    4.70
  -4  -2   7   72.79    5.20
  -4  -2   7   76.89    6.70
  -4  -2   7   68.19    6.10
   3   2  -7  195.68    7.50
   3   2  -7  180.68    9.00
   3   2  -7  203.18    7.30
   3   2  -7  174.48    8.60
  -3  -2   7  203.68    8.20
  -3  -2   7  204.68    7.60
  -3  -2   7  184.78    7.30
  -3  -2   7  194.48    9.30
   2   2  -7   27.70    3.10
   2   2  -7   18.60    2.60
   2   2  -7   25.50    3.00
   2   2  -7   23.30    2.60
   2   2  -7   25.20    2.90
  -2  -2   7   25.20    2.30
  -2  -2   7   19.00    2.90
  -2  -2   7   29.60    3.10
  -2  -2   7   22.70    3.20
   1   2  -7    9.10    1.70
   1   2  -7    7.10    2.00
   1   2  -7    8.50    2.60
   1   2  -7    6.80    2.30
  -1  -2   7   10.20    2.70
  -1  -2   7    7.40    1.50
  -1  -2   7    9.90    2.90
  -1  -2   7    7.70    1.30
   0   2  -7  104.39    4.80
   0   2  -7   98.59    5.00
   0   2  -7   95.09    4.60
   0   2  -7   94.59    4.70
   0   2  -7   98.09    6.10
   0  -2   7  102.79    5.80
   0  -2   7  104.79    4.60
   0  -2   7   91.79    4.50
   0  -2   7   93.99    3.40
  -1   2  -7 1006.10   28.20
  -1   2  -7 1000.80   31.00
  -1   2  -7 1008.40   31.60
   1  -2   7 1004.20   28.50
   1  -2   7 1018.30   28.30
   1  -2   7 1045.50   32.10
  -2   2  -7  138.69    6.10
  -2   2  -7  150.68    7.40
  -2   2  -7  140.19    5.70
   2  -2   7  139.69    5.70
   2  -2   7  150.58    6.10
   2  -2   7  153.68    5.70
  -3   2  -7   -0.30    2.20
  -3   2  -7    0.70    1.80
  -3   2  -7    2.20    1.20
  -3   2  -7   -3.40    1.60
   3  -2   7    0.20    2.40
   3  -2   7    0.30    2.30
   3  -2   7    3.50    2.00
  -4   2  -7   -1.20    2.50
  -4   2  -7    3.00    1.90
  -4   2  -7    2.00    1.80
  -4   2  -7    1.10    1.80
   4  -2   7    4.10    2.50
   4  -2   7    4.60    3.10
   4  -2   7    3.40    2.60
  -5   2  -7   47.10    5.90
  -5   2  -7   43.20    4.30
   5  -2   7   41.80    4.10
   5  -2   7   53.89    5.90
  -6   2  -7   62.39    7.20
  -6   2  -7   59.49    5.80
   6  -2   7   69.69    5.40
   6  -2   7   67.39    7.40
  -7   2  -7    7.60    5.90
   7  -2   7    7.70    5.00
   7   1  -7    7.30    4.10
  -7  -1   7   11.40    5.90
  -7  -1   7    2.90    4.50
   6   1  -7   41.30    4.80
  -6  -1   7   33.20    5.80
  -6  -1   7   37.70    5.30
   5   1  -7    6.30    3.40
  -5  -1   7    8.60    3.30
  -5  -1   7    5.60    2.80
  -5  -1   7   11.30    4.30
   4   1  -7    0.50    2.90
   4   1  -7    3.00    2.50
  -4  -1   7   -1.80    3.10
  -4  -1   7    0.60    2.80
  -4  -1   7    0.80    2.30
   3   1  -7   46.10    5.40
   3   1  -7   70.79    2.90
   3   1  -7   76.09    4.40
   3   1  -7   68.99    4.60
  -3  -1   7   69.29    4.70
  -3  -1   7   73.69    4.40
  -3  -1   7   72.59    4.90
  -3  -1   7   72.09    4.50
   2   1  -7  194.18    8.50
   2   1  -7  192.48    6.90
   2   1  -7  188.78    6.90
   2   1  -7  192.38    8.60
  -2  -1   7  195.68    8.10
  -2  -1   7  191.58    7.40
  -2  -1   7  193.08    7.40
  -2  -1   7  196.98    7.60
   1   1  -7  154.78    6.40
   1   1  -7  148.69    5.60
   1   1  -7  144.39    6.40
   1   1  -7  143.09    6.40
   1   1  -7  148.29    5.80
  -1  -1   7  150.08    5.50
  -1  -1   7  155.98    6.40
  -1  -1   7  148.49    6.60
  -1  -1   7  151.28    6.00
  -1  -1   7  146.29    5.40
  -1  -1   7  143.89    6.00
   0   1  -7   12.20    1.70
   0   1  -7   10.00    2.10
   0   1  -7    7.10    1.70
   0   1  -7   11.30    2.10
   0   1  -7   12.90    1.90
   0  -1   7   11.40    1.60
   0  -1   7    9.80    1.80
   0  -1   7   10.30    1.10
   0  -1   7   11.50    2.50
   0  -1   7   12.00    2.10
   0  -1   7   11.40    1.50
  -1   1  -7   20.80    2.40
  -1   1  -7   20.80    2.50
  -1   1  -7   22.70    2.20
  -1   1  -7   27.90    3.00
  -1   1  -7   25.60    2.40
   1  -1   7   23.60    2.60
   1  -1   7   22.40    2.60
   1  -1   7   24.40    2.00
  -2   1  -7   15.50    2.40
  -2   1  -7   11.90    2.10
  -2   1  -7   11.40    1.80
   2  -1   7   15.10    2.40
   2  -1   7   14.20    1.90
   2  -1   7   12.70    2.30
  -3   1  -7  505.55   15.20
  -3   1  -7  547.45   17.30
  -3   1  -7  491.95   17.20
  -3   1  -7  508.15   14.80
   3  -1   7  511.15   15.00
   3  -1   7  525.45   15.20
   3  -1   7  504.35   15.00
  -4   1  -7  191.48    6.40
  -4   1  -7  181.98    8.60
  -4   1  -7  195.78    8.10
  -4   1  -7  205.18    7.20
   4  -1   7  189.88    6.90
   4  -1   7  189.38    7.80
   4  -1   7  193.38    6.90
  -5   1  -7    0.60    2.10
  -5   1  -7    0.60    3.70
   5  -1   7    1.20    2.10
   5  -1   7    4.00    4.10
  -6   1  -7    0.80    4.40
  -6   1  -7    2.90    3.00
  -6   1  -7   -1.40    2.90
   6  -1   7   10.00    5.00
   6  -1   7    0.80    2.10
  -7   1  -7   36.50    6.60
   7  -1   7   28.40    7.00
   7   0  -7    5.00    4.30
  -7   0   7   -3.00    5.60
   6   0  -7   10.10    4.20
  -6   0   7    3.80    4.90
  -6   0   7    6.90    3.80
   5   0  -7    4.00    3.50
  -5   0   7    0.00    3.20
  -5   0   7    3.90    4.20
  -5   0   7   -1.00    2.80
   4   0  -7   42.40    4.10
  -4   0   7   35.10    4.10
  -4   0   7   45.50    4.30
  -4   0   7   27.60    4.30
   3   0  -7  119.59    5.30
   3   0  -7  125.49    5.80
   3   0  -7  101.39    7.70
  -3   0   7  117.19    6.00
  -3   0   7  127.19    6.00
  -3   0   7  122.99    6.60
   2   0  -7   97.59    6.20
   2   0  -7  102.89    4.60
   2   0  -7   98.69    4.50
   2   0  -7  100.79    5.10
  -2   0   7  107.19    5.20
  -2   0   7   99.09    5.80
  -2   0   7  105.79    5.30
  -2   0   7  106.89    5.40
   1   0  -7 1201.78   33.00
   1   0  -7 1177.38   38.90
   1   0  -7 1172.88   37.10
   1   0  -7 1183.98   35.20
   1   0  -7 1205.38   32.90
   1   0  -7 1209.38   34.80
  -1   0   7 1256.27   35.50
  -1   0   7 1195.88   32.80
  -1   0   7 1171.98   34.90
  -1   0   7 1163.48   33.10
  -1   0   7 1240.98   38.80
  -1   0   7 1159.98   37.30
   0   0  -7  294.67    9.30
   0   0  -7  291.67   10.90
   0   0  -7  315.57   10.00
   0   0  -7  287.77    9.20
   0   0  -7  292.97   10.60
   0   0  -7  298.87    9.20
   0   0   7  299.77   10.10
   0   0   7  309.47    9.70
   0   0   7  280.47    9.30
   0   0   7  297.27    9.10
   0   0   7  313.87   10.80
  -1   0  -7  490.85   13.90
  -1   0  -7  499.95   14.30
  -1   0  -7  485.35   15.30
  -1   0  -7  489.65   16.80
  -1   0  -7  484.45   14.10
  -1   0  -7  475.05   16.20
   1   0   7  480.15   14.20
   1   0   7  494.95   13.90
   1   0   7  470.75   15.40
  -2   0  -7   24.20    2.60
  -2   0  -7   21.80    2.70
  -2   0  -7   19.60    1.80
  -2   0  -7   18.50    1.80
   2   0   7   18.00    1.90
   2   0   7   27.10    3.00
   2   0   7   20.70    2.20
   2   0   7   15.50    2.30
   2   0   7   21.90    1.80
  -3   0  -7    4.10    2.40
  -3   0  -7    5.40    1.40
  -3   0  -7    4.10    1.30
  -3   0  -7    3.40    1.20
   3   0   7    2.60    1.90
   3   0   7    4.40    1.50
   3   0   7    6.10    2.70
   3   0   7    2.30    1.60
  -4   0  -7   36.50    3.10
  -4   0  -7   38.60    2.00
  -4   0  -7   31.10    4.00
   4   0   7   38.00    2.70
   4   0   7   38.40    2.60
   4   0   7   37.10    4.40
  -5   0  -7   49.30    5.20
  -5   0  -7   51.79    4.30
   5   0   7   51.99    2.60
   5   0   7   61.19    5.10
   5   0   7   49.60    2.60
  -6   0  -7   71.29    5.30
  -6   0  -7   65.09    4.70
  -6   0  -7   71.09    6.30
   6   0   7   69.29    6.20
  -7   0  -7    0.70    3.50
  -7   0  -7   -3.50    3.00
   7   0   7    3.10    5.80
   7  -1  -7    6.10    5.10
  -7   1   7   -0.60    6.10
   6  -1  -7   18.70    4.70
  -6   1   7   21.40    3.90
  -6   1   7   24.20    6.10
   5  -1  -7   20.60    4.30
  -5   1   7   20.80    4.20
  -5   1   7   21.50    3.40
  -5   1   7   16.00    3.40
   4  -1  -7  168.58    7.90
  -4   1   7  174.68    8.50
  -4   1   7  164.48    7.80
  -4   1   7  177.88    8.50
   3  -1  -7  102.39    4.70
   3  -1  -7   96.99    5.50
   3  -1  -7   89.59    8.00
  -3   1   7  101.89    5.80
  -3   1   7   97.79    5.10
  -3   1   7  107.49    6.00
   2  -1  -7   93.29    4.90
   2  -1  -7  100.19    6.10
   2  -1  -7   97.59    5.10
   2  -1  -7   96.79    4.90
  -2   1   7  102.79    5.60
  -2   1   7  108.59    5.50
  -2   1   7   96.69    4.80
  -2   1   7   95.99    5.50
   1  -1  -7  379.56   13.10
   1  -1  -7  381.86   12.30
   1  -1  -7  387.86   11.90
   1  -1  -7  380.06   15.70
   1  -1  -7  360.76   14.00
   1  -1  -7  357.96   11.50
  -1   1   7  408.96   14.00
  -1   1   7  370.16   11.80
  -1   1   7  401.86   12.50
  -1   1   7  367.86   11.50
  -1   1   7  373.16   12.60
   0  -1  -7   23.10    2.20
   0  -1  -7   19.10    2.50
   0  -1  -7   21.60    2.30
   0  -1  -7   21.40    2.00
   0  -1  -7   19.20    2.30
   0  -1  -7   20.70    2.30
   0   1   7   23.10    2.60
   0   1   7   22.10    1.50
   0   1   7   19.50    2.50
   0   1   7   21.60    2.20
   0   1   7   21.00    2.50
   0   1   7   25.00    2.30
  -1  -1  -7   23.50    2.50
  -1  -1  -7   28.10    2.30
  -1  -1  -7   25.10    2.50
  -1  -1  -7   22.40    2.00
  -1  -1  -7   27.50    2.20
   1   1   7   26.80    2.30
   1   1   7   27.60    2.30
   1   1   7   23.10    1.60
   1   1   7   21.10    2.20
   1   1   7   21.80    2.00
  -2  -1  -7  325.77    9.60
  -2  -1  -7  327.07   12.10
  -2  -1  -7  331.77    9.50
  -2  -1  -7  320.07   10.80
   2   1   7  314.77    9.50
   2   1   7  324.17    9.30
   2   1   7  319.17   10.70
   2   1   7  326.67    9.70
   2   1   7  327.07   10.10
  -3  -1  -7  324.77    9.10
  -3  -1  -7  319.67    9.20
  -3  -1  -7  323.37   12.40
  -3  -1  -7  321.47   11.30
   3   1   7  316.07    9.30
   3   1   7  310.87   10.30
   3   1   7  327.67    9.40
  -4  -1  -7    0.60    1.80
   4   1   7    0.60    2.10
   4   1   7    2.30    0.90
   4   1   7    0.40    0.90
   4   1   7   -2.70    2.90
  -5  -1  -7   17.90    2.90
  -5  -1  -7   16.60    3.10
   5   1   7   19.50    2.60
   5   1   7   17.30    4.60
  -6  -1  -7   37.50    4.00
  -6  -1  -7   40.90    5.50
   6   1   7   47.40    4.20
   6   1   7   36.60    6.30
  -7  -1  -7   37.70    6.30
  -7  -1  -7   59.69    6.00
  -7  -1  -7   62.59    6.30
   7   1   7   66.59    8.00
  -8  -1  -7    6.50    5.30
   8   1   7   -0.40    6.50
   7  -2  -7    0.90    5.20
  -7   2   7    1.80    5.00
   6  -2  -7    3.90    4.70
  -6   2   7    2.40    5.60
  -5   2   7   24.50    4.50
  -5   2   7   20.30    5.40
   4  -2  -7   11.10    3.10
  -4   2   7   10.70    3.30
  -4   2   7   15.00    3.10
   3  -2  -7  406.86   18.60
   3  -2  -7  452.25   14.50
   3  -2  -7  422.56   18.00
  -3   2   7  467.75   14.80
  -3   2   7  463.55   16.10
   2  -2  -7   34.20    4.70
   2  -2  -7   42.30    4.00
   2  -2  -7   36.80    4.00
   2  -2  -7   30.90    3.10
  -2   2   7   38.30    3.50
  -2   2   7   27.00    3.70
   1  -2  -7  557.54   18.40
   1  -2  -7  524.05   19.70
   1  -2  -7  529.15   16.30
   1  -2  -7  543.15   22.50
  -1   2   7  552.14   17.90
  -1   2   7  533.15   16.40
  -1   2   7  590.14   17.20
  -1   2   7  555.14   14.10
   0  -2  -7   18.10    2.40
   0  -2  -7   28.20    2.60
   0  -2  -7   27.50    3.50
   0  -2  -7   27.00    2.80
   0   2   7   26.60    2.20
   0   2   7   26.90    2.30
   0   2   7   20.90    3.10
   0   2   7   26.30    2.50
   0   2   7   24.80    1.70
  -1  -2  -7   50.89    4.00
  -1  -2  -7   56.29    3.00
  -1  -2  -7   46.00    3.70
  -1  -2  -7   56.79    2.70
  -1  -2  -7   53.69    3.00
   1   2   7   56.99    2.50
   1   2   7   56.09    3.00
   1   2   7   54.49    2.70
   1   2   7   53.19    3.30
  -2  -2  -7   16.90    2.60
  -2  -2  -7   21.80    2.00
  -2  -2  -7   17.50    1.80
  -2  -2  -7   21.40    2.00
   2   2   7   21.80    2.10
   2   2   7   23.50    2.20
   2   2   7   20.30    2.00
  -3  -2  -7  164.98    6.70
  -3  -2  -7  171.08    5.30
  -3  -2  -7  178.38    7.80
   3   2   7  159.28    6.70
   3   2   7  167.08    5.80
   3   2   7  174.38    5.60
  -4  -2  -7  155.38    7.00
  -4  -2  -7  155.68    7.80
   4   2   7  149.29    6.80
   4   2   7  150.08    5.70
  -5  -2  -7  108.09    6.60
  -5  -2  -7  117.59    7.20
   5   2   7   96.19    6.90
   5   2   7  101.69    4.80
  -6  -2  -7   30.30    4.10
  -6  -2  -7   29.70    4.60
   6   2   7   34.70    4.10
   6   2   7   29.90    5.80
  -7  -2  -7    3.70    4.40
  -7  -2  -7    2.40    3.70
  -7  -2  -7    1.00    3.60
   7   2   7   -6.10    4.00
   7   2   7    2.20    3.30
  -8  -2  -7   13.50    4.70
  -8  -2  -7    8.30    4.30
  -8  -2  -7    5.00    4.90
   8   2   7   15.20    5.60
   8   2   7   21.80    4.20
   6  -3  -7   20.10    5.80
  -6   3   7   12.20    5.20
   5  -3  -7    5.10    3.60
  -5   3   7   -0.30    5.40
  -5   3   7    5.50    3.20
   4  -3  -7   80.49    6.80
  -4   3   7   71.19    6.80
  -4   3   7   72.39    6.70
   3  -3  -7    7.50    2.50
   3  -3  -7    3.00    2.90
  -3   3   7   11.80    3.40
  -3   3   7    6.00    3.90
  -3   3   7    4.00    2.00
   2  -3  -7   84.79    5.00
   2  -3  -7   89.99    6.70
   2  -3  -7   82.99    7.70
   2  -3  -7   92.39    5.30
  -2   3   7   96.79    5.80
  -2   3   7   95.09    5.40
  -2   3   7   91.79    3.00
  -2   3   7   91.29    6.00
   1  -3  -7   59.29    4.90
   1  -3  -7   57.79    5.20
   1  -3  -7   52.99    3.70
  -1   3   7   64.89    5.80
  -1   3   7   53.09    2.40
  -1   3   7   58.09    4.10
  -1   3   7   67.69    3.60
   0  -3  -7   46.30    3.70
   0  -3  -7   45.10    3.90
   0  -3  -7   61.09    5.20
   0   3   7   52.99    4.20
   0   3   7   52.79    2.50
   0   3   7   46.70    4.50
   0   3   7   59.89    3.70
   0   3   7   48.30    2.70
  -1  -3  -7   65.19    4.70
  -1  -3  -7   62.79    5.70
   1   3   7   68.69    4.20
   1   3   7   70.09    3.40
   1   3   7   71.69    3.20
  -2  -3  -7  157.18    7.30
  -2  -3  -7  175.58    6.00
  -2  -3  -7  170.78    5.70
  -2  -3  -7  174.58    9.30
   2   3   7  175.78    6.50
   2   3   7  170.28    5.90
   2   3   7  165.88    5.70
  -3  -3  -7  165.68    7.50
  -3  -3  -7  157.28    6.00
  -3  -3  -7  161.78    5.40
  -3  -3  -7  151.28    9.00
   3   3   7  157.58    5.60
   3   3   7  159.08    7.00
   3   3   7  147.19    5.10
   3   3   7  154.38    5.60
  -4  -3  -7    7.20    2.60
  -4  -3  -7    8.70    2.30
  -4  -3  -7    9.30    2.20
   4   3   7    5.10    2.00
   4   3   7    9.00    1.40
   4   3   7    9.60    1.10
   4   3   7    9.60    2.90
  -5  -3  -7   17.90    3.50
  -5  -3  -7   17.00    3.10
  -5  -3  -7   14.80    3.40
   5   3   7   23.30    4.70
   5   3   7   22.60    3.40
  -6  -3  -7   38.00    5.60
  -6  -3  -7   42.30    4.90
  -6  -3  -7   41.90    5.00
   6   3   7   38.70    6.00
   6   3   7   52.09    4.60
  -7  -3  -7   13.60    4.70
  -7  -3  -7   13.30    4.60
  -7  -3  -7   11.10    4.00
  -7  -3  -7   10.30    4.60
  -7  -3  -7    6.40    4.60
   7   3   7   12.90    3.80
   7   3   7   12.60    5.00
  -8  -3  -7   -3.10    4.60
  -8  -3  -7    4.70    4.90
  -8  -3  -7    4.00    4.60
  -8  -3  -7    5.40    4.50
  -8  -3  -7    0.70    4.50
   8   3   7    5.30    4.10
   8   3   7   -1.10    6.60
   6  -4  -7    9.30    4.70
  -6   4   7   -3.10    4.90
   5  -4  -7    1.90    5.10
  -5   4   7    3.30    6.00
  -5   4   7    7.10    5.00
   4  -4  -7    0.90    3.50
   4  -4  -7   -3.20    3.50
  -4   4   7    1.70    4.50
  -4   4   7   -3.30    5.10
   3  -4  -7   12.30    4.40
   3  -4  -7   18.50    4.60
  -3   4   7   12.00    3.80
  -3   4   7   24.10    4.10
   2  -4  -7   39.60    5.20
   2  -4  -7   48.00    4.70
   2  -4  -7   37.70    5.00
  -2   4   7   55.89    5.70
  -2   4   7   50.79    4.90
  -2   4   7   52.69    2.40
   1  -4  -7   85.69    7.50
   1  -4  -7   90.49    7.40
   1  -4  -7  103.19    6.20
  -1   4   7  106.09    6.60
  -1   4   7   95.29    7.40
  -1   4   7  100.39    3.70
   0  -4  -7  111.49    7.20
   0  -4  -7  133.99    6.40
   0  -4  -7  127.39    8.50
   0   4   7  133.69    4.70
   0   4   7  122.59    4.20
   0   4   7  122.59    6.00
  -1  -4  -7   39.80    3.90
  -1  -4  -7   45.10    4.70
  -1  -4  -7   46.00    5.90
   1   4   7   51.79    3.10
   1   4   7   53.99    4.50
   1   4   7   48.30    3.70
  -2  -4  -7   -1.60    2.10
  -2  -4  -7    2.00    2.40
  -2  -4  -7    2.60    3.00
   2   4   7    3.00    1.90
   2   4   7    1.70    1.60
   2   4   7    3.90    2.70
  -3  -4  -7   71.19    5.20
  -3  -4  -7   69.49    3.30
  -3  -4  -7   68.19    3.80
  -3  -4  -7   76.19    6.50
   3   4   7   69.79    4.40
   3   4   7   75.69    3.80
   3   4   7   69.49    3.80
  -4  -4  -7   22.00    3.30
  -4  -4  -7   22.80    2.50
  -4  -4  -7   22.80    2.10
  -4  -4  -7   17.10    4.20
   4   4   7   24.00    2.50
   4   4   7   23.10    3.40
   4   4   7   22.90    4.40
   4   4   7   20.20    2.00
  -5  -4  -7   29.10    3.50
  -5  -4  -7   22.30    4.90
  -5  -4  -7   33.60    4.00
   5   4   7   29.20    3.40
   5   4   7   27.10    5.10
  -6  -4  -7    0.30    3.30
  -6  -4  -7    5.60    3.30
  -6  -4  -7    1.50    4.20
   6   4   7    3.30    3.40
   6   4   7    2.10    4.80
  -7  -4  -7   -0.40    4.50
  -7  -4  -7    1.10    3.70
  -7  -4  -7    2.00    4.10
  -7  -4  -7    0.60    4.60
   7   4   7    1.50    5.60
   7   4   7    1.60    4.10
   5  -5  -7   13.40    6.30
  -5   5   7    7.00    5.60
  -5   5   7    3.70    5.00
   4  -5  -7   -0.70    4.90
   4  -5  -7   11.30    4.40
  -4   5   7   16.10    5.90
  -4   5   7   11.60    6.00
   3  -5  -7    9.80    4.80
   3  -5  -7   17.70    4.30
  -3   5   7   16.30    4.30
  -3   5   7    9.30    4.20
   2  -5  -7    3.30    4.40
   2  -5  -7    0.20    4.10
  -2   5   7    0.80    1.60
  -2   5   7    4.90    4.70
  -2   5   7   -2.60    4.50
   1  -5  -7    1.00    3.50
   1  -5  -7   -0.50    2.90
   1  -5  -7    2.70    3.90
  -1   5   7    1.30    1.40
  -1   5   7    4.90    1.70
  -1   5   7    2.10    3.20
  -1   5   7    3.00    4.40
   0  -5  -7   39.60    4.60
   0  -5  -7   35.60    4.30
   0  -5  -7   49.10    5.90
   0   5   7   47.30    3.20
   0   5   7   52.59    5.30
  -1  -5  -7   84.09    8.30
  -1  -5  -7   79.99    6.40
  -1  -5  -7   81.99    5.50
   1   5   7   79.79    6.20
   1   5   7   79.29    4.40
  -2  -5  -7   76.99    8.30
  -2  -5  -7   66.59    4.90
  -2  -5  -7   73.49    5.80
   2   5   7   68.49    4.00
   2   5   7   78.39    5.50
   2   5   7   77.59    4.70
  -3  -5  -7   17.00    3.00
  -3  -5  -7   16.60    3.40
  -3  -5  -7   10.20    3.30
   3   5   7   18.70    3.60
   3   5   7   16.60    2.90
   3   5   7   17.30    2.80
  -4  -5  -7   12.40    3.10
  -4  -5  -7   12.90    4.40
  -4  -5  -7   10.90    1.90
   4   5   7   14.80    3.10
   4   5   7   14.10    3.60
  -5  -5  -7   17.00    3.40
  -5  -5  -7   16.40    2.80
  -5  -5  -7   12.80    3.90
   5   5   7   21.30    3.40
   5   5   7   18.10    2.10
   5   5   7   18.00    4.90
  -6  -5  -7    7.70    3.10
  -6  -5  -7    6.30    3.30
  -6  -5  -7    2.30    4.60
  -6  -5  -7    0.60    4.80
   6   5   7   11.30    5.30
   6   5   7    4.00    3.10
  -7  -5  -7   -6.60    4.80
  -7  -5  -7   -0.90    5.30
   7   5   7    0.60    4.10
   7   5   7    2.60    5.50
   4  -6  -7   -0.40    6.20
  -4   6   7   -1.70    3.80
  -4   6   7   -0.10    6.20
  -4   6   7   -2.20    4.30
   3  -6  -7   -6.60    5.50
   3  -6  -7   -4.20    5.20
  -3   6   7    8.00    4.60
  -3   6   7    1.40    5.70
  -3   6   7   -1.70    2.90
   2  -6  -7   -4.70    4.70
   2  -6  -7    1.20    3.70
  -2   6   7    7.70    5.50
  -2   6   7    2.60    2.20
  -2   6   7    1.70    2.00
  -2   6   7    4.50    4.00
   1  -6  -7  245.68   11.40
   1  -6  -7  224.58   15.50
  -1   6   7  259.67   11.10
  -1   6   7  242.38    8.10
   0  -6  -7    2.20    3.00
   0  -6  -7   -0.60    4.00
   0  -6  -7    5.90    4.20
   0   6   7   -1.10    2.30
   0   6   7    3.30    3.50
  -1  -6  -7   22.70    4.30
  -1  -6  -7   13.00    4.00
  -1  -6  -7   13.30    3.90
   1   6   7   18.60    3.30
   1   6   7   27.20    5.00
  -2  -6  -7    2.30    3.30
  -2  -6  -7   -2.10    3.00
  -2  -6  -7    2.10    3.20
   2   6   7    2.50    2.30
   2   6   7   -1.10    3.60
  -3  -6  -7   10.90    3.30
  -3  -6  -7   18.70    3.60
  -3  -6  -7   11.40    4.90
   3   6   7   15.00    4.20
   3   6   7    9.50    2.90
  -4  -6  -7   13.60    4.20
  -4  -6  -7   17.70    3.70
   4   6   7    9.60    3.70
   4   6   7   13.20    4.20
  -5  -6  -7   -1.50    4.60
  -5  -6  -7   -4.40    2.60
   5   6   7    1.40    3.00
   5   6   7   -3.20    2.70
  -6  -6  -7    1.10    3.80
  -6  -6  -7    1.50    5.20
   6   6   7   -5.70    4.80
   6   6   7    4.80    4.80
  -7  -6  -7   18.10    6.50
  -7  -6  -7   11.90    5.90
   7   6   7   15.20    5.50
   7   6   7   -1.90    5.80
   3  -7  -7   10.30    5.10
   3  -7  -7   -8.20    5.90
  -3   7   7   -5.00    4.40
  -3   7   7   -3.00    4.60
   2  -7  -7   -6.30    5.60
   2  -7  -7   -9.90    5.20
  -2   7   7    4.00    6.20
   1  -7  -7   17.40    4.70
   1  -7  -7    6.80    5.90
  -1   7   7   19.30    6.50
  -1   7   7   14.50    3.20
   0  -7  -7    9.90    4.70
   0  -7  -7   17.30    4.30
   0  -7  -7   13.10    5.70
   0   7   7   18.80    3.50
   0   7   7   25.70    6.20
  -1  -7  -7    8.30    5.60
  -1  -7  -7   15.80    4.80
  -1  -7  -7   17.20    4.50
   1   7   7   14.50    3.70
   1   7   7   15.50    4.30
  -2  -7  -7   -1.20    3.80
  -2  -7  -7   -0.30    3.90
  -2  -7  -7    0.50    3.80
   2   7   7    2.20    4.70
   2   7   7    1.20    2.70
  -3  -7  -7   -0.80    3.50
  -3  -7  -7   -2.50    5.10
   3   7   7   -2.20    2.90
   3   7   7   -0.80    4.20
  -4  -7  -7    6.70    3.70
  -4  -7  -7    6.10    4.40
   4   7   7    7.50    4.60
   4   7   7   10.10    3.60
  -5  -7  -7    3.40    4.40
  -5  -7  -7    9.30    4.20
   5   7   7    8.80    5.10
   5   7   7   13.30    4.00
  -6  -7  -7   -0.70    5.70
  -6  -7  -7    8.30    5.80
   6   7   7    2.90    4.10
   2  -8  -7   -4.30    4.70
   2  -8  -7  -10.20    6.20
  -2   8   7    2.20    6.90
   1  -8  -7   -1.80    6.60
   1  -8  -7   13.20    5.10
  -1   8   7   19.70    6.00
  -1   8   7    8.40    3.30
   0  -8  -7    4.30    5.00
   0  -8  -7   -1.40    4.00
   0   8   7   16.10    7.00
   0   8   7    4.90    3.50
  -1  -8  -7    8.70    5.20
  -1  -8  -7    0.10    4.50
   1   8   7    4.60    4.70
   1   8   7    1.40    3.70
  -2  -8  -7   -0.10    3.90
  -2  -8  -7    2.50    6.10
   2   8   7    4.90    4.30
   2   8   7   10.70    5.70
  -3  -8  -7    1.50    4.90
  -3  -8  -7    1.70    6.10
   3   8   7    3.50    4.70
   3   8   7   -0.60    5.10
  -4  -8  -7    6.50    5.40
  -4  -8  -7    1.20    6.30
   4   8   7    2.20    4.90
   4   8   7    3.70    4.70
  -5  -8  -7    1.60    6.40
  -5  -8  -7    0.30    4.10
   5   8   7   -2.20    5.50
   5   8   7    4.20    4.50
   0  -9  -7    3.10    4.70
   0  -9  -7    2.20    5.90
   0   9   7   -1.20    7.70
   0   9   7    2.90    3.90
  -1  -9  -7    1.40    5.50
  -1  -9  -7    7.60    4.60
   1   9   7   -0.80    4.40
   1   9   7    3.00    7.20
  -2  -9  -7   -0.90    7.40
  -2  -9  -7    4.20    4.70
   2   9   7    2.90    6.90
   2   9   7    4.30    5.00
  -3  -9  -7    2.10    7.20
  -3  -9  -7    1.40    5.20
   3   9   7    3.30    6.20
   3   9   7   -2.80    3.80
   4   8  -8   -1.40    6.70
  -4  -8   8   -7.20    5.40
  -4  -8   8  -10.80    7.30
   3   8  -8    0.60    5.10
  -3  -8   8   -8.40    7.20
  -3  -8   8   -2.40    5.10
  -3  -8   8    7.90    6.40
   2   8  -8   10.90    5.80
   2   8  -8   18.60    7.40
  -2  -8   8   17.30    7.30
  -2  -8   8   10.10    7.20
   1   8  -8    1.50    5.00
   1   8  -8   -6.00    5.10
  -1  -8   8   -1.90    6.50
  -1  -8   8   -1.90    6.20
   0   8  -8   -3.80    5.20
   0   8  -8  -10.60    6.50
   0  -8   8    5.40    7.20
  -1   8  -8    7.40    6.90
  -1   8  -8    0.90    4.50
  -1   8  -8  -12.90    5.10
   1  -8   8    1.00    5.40
   5   7  -8   -1.50    5.90
  -5  -7   8   -4.90    5.00
  -5  -7   8    1.60    7.40
   4   7  -8    5.40    5.80
  -4  -7   8   -4.40    6.80
  -4  -7   8   -1.20    5.30
  -4  -7   8    0.00    5.80
   3   7  -8    0.00    4.30
  -3  -7   8    2.30    6.60
  -3  -7   8    1.00    6.30
  -3  -7   8    5.00    5.60
   2   7  -8  -10.10    4.70
   2   7  -8   -1.80    4.20
  -2  -7   8    5.00    5.90
  -2  -7   8   -6.50    4.20
   1   7  -8   -1.10    5.80
   1   7  -8    3.60    3.80
  -1  -7   8   -2.90    5.80
  -1  -7   8   -1.10    5.70
   0   7  -8   11.50    4.10
   0   7  -8   17.40    6.40
   0  -7   8   10.50    6.40
   0  -7   8    0.10    5.20
  -1   7  -8   15.60    4.90
  -1   7  -8   20.40    5.70
   1  -7   8   22.10    7.10
  -2   7  -8   -0.90    3.80
  -2   7  -8   -0.40    5.60
  -2   7  -8   -3.00    3.90
   2  -7   8   -2.70    6.80
  -3   7  -8    1.40    4.10
  -3   7  -8   -2.10    4.50
   3  -7   8    8.10    5.50
   6   6  -8   -0.70    5.00
  -6  -6   8    4.00    4.40
  -6  -6   8   -7.50    4.80
   5   6  -8    2.70    5.20
  -5  -6   8   -8.40    6.20
  -5  -6   8    6.50    5.10
   4   6  -8   39.30    6.00
  -4  -6   8   26.50    6.20
  -4  -6   8   25.90    7.10
  -4  -6   8   43.80    5.90
   3   6  -8    0.80    4.90
  -3  -6   8   -5.00    4.80
  -3  -6   8    2.80    5.60
  -3  -6   8    7.20    3.80
   2   6  -8   30.10    4.70
   2   6  -8   24.30    5.40
  -2  -6   8   26.50    5.20
  -2  -6   8   30.90    5.80
   1   6  -8    0.30    3.30
   1   6  -8    3.10    3.70
   1   6  -8    5.30    2.20
  -1  -6   8    6.70    5.20
  -1  -6   8    3.50    5.20
   0   6  -8   -4.40    4.30
   0   6  -8   -1.10    3.40
   0  -6   8   -6.40    4.30
   0  -6   8    3.00    5.20
  -1   6  -8    9.60    4.70
  -1   6  -8   14.00    5.20
   1  -6   8   11.80    4.60
   1  -6   8    2.50    4.40
  -2   6  -8    2.50    4.90
  -2   6  -8    4.80    4.70
   2  -6   8    0.60    5.80
  -3   6  -8   18.60    5.80
  -3   6  -8   36.20    6.10
   3  -6   8   35.10    7.20
  -4   6  -8    1.40    5.70
  -4   6  -8   -0.20    5.50
   4  -6   8   -5.90    6.30
   6   5  -8    4.20    3.60
   6   5  -8    9.20    4.80
  -6  -5   8   11.20    4.40
  -6  -5   8    4.60    6.50
   5   5  -8    8.20    3.00
   5   5  -8   19.20    5.00
  -5  -5   8   18.10    5.20
  -5  -5   8    4.30    4.40
   4   5  -8   13.70    4.70
  -4  -5   8   24.80    4.40
  -4  -5   8    8.20    4.20
  -4  -5   8   14.20    4.50
   3   5  -8    7.70    4.20
  -3  -5   8    1.40    4.80
  -3  -5   8   -3.00    3.90
   2   5  -8   12.30    1.90
   2   5  -8   16.50    3.70
   2   5  -8   18.00    3.90
  -2  -5   8   18.20    5.20
  -2  -5   8   15.40    3.60
   1   5  -8   39.50    3.70
   1   5  -8   41.50    5.20
   1   5  -8   33.50    5.20
  -1  -5   8   40.40    5.00
  -1  -5   8   45.40    5.60
   0   5  -8   29.60    4.10
   0   5  -8   33.30    3.80
   0   5  -8   26.90    4.90
   0  -5   8   34.80    4.60
   0  -5   8   27.00    3.00
   0  -5   8   29.60    5.00
  -1   5  -8   18.30    3.80
  -1   5  -8   17.40    4.50
   1  -5   8   10.30    3.90
   1  -5   8   16.10    5.10
  -2   5  -8   13.30    3.80
  -2   5  -8   11.60    4.20
   2  -5   8   13.30    4.10
  -3   5  -8   82.09    8.50
  -3   5  -8   70.29    6.80
   3  -5   8   77.99    6.80
  -4   5  -8   31.50    5.40
   4  -5   8   45.40    6.70
  -5   5  -8   12.80    6.30
  -5   5  -8    8.70    5.40
   5  -5   8    6.20    5.70
   5  -5   8   13.00    4.40
   7   4  -8    1.50    4.30
   7   4  -8   -3.40    4.10
  -7  -4   8   -4.40    6.20
  -7  -4   8    6.30    6.00
   6   4  -8   41.90    5.30
   6   4  -8   36.70    4.70
   6   4  -8   40.80    3.70
  -6  -4   8   39.60    7.20
  -6  -4   8   29.50    6.20
   5   4  -8    5.40    3.00
   5   4  -8    6.00    3.90
  -5  -4   8    4.70    4.30
  -5  -4   8    1.60    3.90
  -5  -4   8    1.20    3.70
   4   4  -8   43.60    5.10
  -4  -4   8   43.30    5.40
  -4  -4   8   46.70    4.90
  -4  -4   8   42.80    5.00
   3   4  -8   59.79    5.80
  -3  -4   8   59.29    5.50
  -3  -4   8   76.79    7.90
  -3  -4   8   53.79    5.40
   2   4  -8   24.10    4.60
   2   4  -8   19.90    4.00
   2   4  -8   21.10    2.50
  -2  -4   8   21.90    4.00
  -2  -4   8   22.10    3.60
   1   4  -8    7.20    1.90
   1   4  -8   11.90    2.90
   1   4  -8    6.50    3.70
  -1  -4   8    3.20    2.70
  -1  -4   8    4.60    3.00
   0   4  -8  211.58    8.60
   0   4  -8  227.68    9.80
   0   4  -8  227.18    9.10
   0  -4   8  226.28    9.70
   0  -4   8  242.38   10.80
  -1   4  -8   90.59    6.20
  -1   4  -8   99.19    6.40
   1  -4   8   97.59    5.90
   1  -4   8  101.69    6.80
   1  -4   8   95.59    4.10
  -2   4  -8   60.39    5.70
  -2   4  -8   56.39    4.50
   2  -4   8   63.79    2.70
   2  -4   8   66.09    5.30
  -3   4  -8   39.60    5.70
  -3   4  -8   37.10    4.50
   3  -4   8   42.60    4.70
   3  -4   8   44.90    4.10
  -4   4  -8    3.70    3.70
   4  -4   8    6.60    4.60
   4  -4   8    2.80    3.70
  -5   4  -8   46.90    6.90
  -5   4  -8   42.90    5.40
   5  -4   8   36.30    5.50
   5  -4   8   50.39    6.50
  -6   4  -8   16.80    4.60
  -6   4  -8   27.80    7.10
   6  -4   8   30.00    6.00
   6  -4   8   27.30    6.10
   7   3  -8    6.00    4.70
   7   3  -8   14.60    4.50
  -7  -3   8   -1.70    5.70
  -7  -3   8    6.00    6.20
   6   3  -8    1.10    4.10
  -6  -3   8    6.00    5.10
  -6  -3   8   -1.20    3.80
   5   3  -8   32.60    4.60
  -5  -3   8   21.10    4.10
  -5  -3   8   25.20    5.00
  -5  -3   8   21.60    5.40
   4   3  -8    1.60    3.50
   4   3  -8    1.80    1.60
  -4  -3   8    3.10    3.40
  -4  -3   8    0.90    1.60
  -4  -3   8    1.20    3.40
  -4  -3   8    8.10    4.40
   3   3  -8    3.90    2.20
   3   3  -8    4.80    2.40
   3   3  -8    3.50    2.30
  -3  -3   8    7.40    1.50
  -3  -3   8    5.90    2.80
  -3  -3   8   12.20    4.10
  -3  -3   8    5.00    3.40
   2   3  -8   39.90    4.50
   2   3  -8   48.30    4.70
   2   3  -8   44.60    3.70
   2   3  -8   46.50    4.70
  -2  -3   8   51.79    4.20
  -2  -3   8   42.30    4.00
  -2  -3   8   45.20    5.00
   1   3  -8  127.49    5.70
   1   3  -8  118.59    7.10
   1   3  -8  122.49    6.20
  -1  -3   8  126.09    6.60
  -1  -3   8  126.49    5.10
  -1  -3   8  114.29    6.80
   0   3  -8  195.68    8.00
   0   3  -8  191.38    7.40
   0   3  -8  193.88    8.50
   0  -3   8  200.88    8.30
   0  -3   8  216.18    9.40
   0  -3   8  191.08    6.40
  -1   3  -8   22.60    3.30
  -1   3  -8   19.50    3.10
   1  -3   8   21.00    3.50
   1  -3   8   23.40    3.70
  -2   3  -8  178.08    7.90
  -2   3  -8  176.88    7.30
  -2   3  -8  169.48    8.90
   2  -3   8  173.98    6.60
   2  -3   8  171.78    7.80
   2  -3   8  169.78    7.20
  -3   3  -8  209.08    8.30
  -3   3  -8  216.18   10.70
  -3   3  -8  214.78    8.40
   3  -3   8  235.18    9.20
   3  -3   8  204.78    8.40
   3  -3   8  210.18    8.10
  -4   3  -8   40.40    5.00
  -4   3  -8   46.00    4.20
   4  -3   8   44.00    4.90
   4  -3   8   45.90    4.70
  -5   3  -8   21.90    4.70
   5  -3   8   13.10    4.50
   5  -3   8   19.70    4.10
  -6   3  -8   10.50    5.90
  -6   3  -8   13.90    4.90
   6  -3   8   12.90    4.30
   6  -3   8   18.90    5.90
   7   2  -8    4.70    5.30
   7   2  -8   10.90    4.80
  -7  -2   8   -3.40    5.60
  -7  -2   8   -0.50    5.30
   6   2  -8    6.50    4.00
  -6  -2   8    5.40    5.20
  -6  -2   8    2.10    4.80
   5   2  -8    4.90    3.70
  -5  -2   8    0.70    3.00
  -5  -2   8    2.30    3.10
  -5  -2   8    2.60    3.40
   4   2  -8  131.39    6.90
  -4  -2   8  131.69    7.80
  -4  -2   8  123.69    6.80
  -4  -2   8  117.79    7.40
   3   2  -8  163.18    6.70
   3   2  -8  137.19    8.00
   3   2  -8  147.69    8.00
  -3  -2   8  162.38    7.30
  -3  -2   8  168.98    8.20
  -3  -2   8  169.08    7.60
  -3  -2   8  171.18    6.80
   2   2  -8  113.59    6.10
   2   2  -8  109.29    6.00
   2   2  -8  108.19    5.70
   2   2  -8  113.79    6.50
  -2  -2   8  117.39    5.00
  -2  -2   8  120.99    5.50
  -2  -2   8  115.09    5.40
  -2  -2   8  116.49    7.20
   1   2  -8   15.40    2.50
   1   2  -8   17.50    2.30
   1   2  -8   15.20    2.80
   1   2  -8   19.20    2.70
  -1  -2   8   16.00    1.90
  -1  -2   8   17.00    3.20
  -1  -2   8   15.70    2.80
  -1  -2   8   12.60    1.70
   0   2  -8  256.87    8.80
   0   2  -8  269.07   10.10
   0   2  -8  262.77   10.30
   0  -2   8  276.47    9.50
   0  -2   8  256.47    8.90
   0  -2   8  286.27   11.00
   0  -2   8  263.67    8.20
  -1   2  -8  126.89    6.80
  -1   2  -8  131.29    6.40
  -1   2  -8  124.49    5.50
   1  -2   8  132.29    6.40
   1  -2   8  121.99    5.90
   1  -2   8  131.89    5.50
  -2   2  -8  164.08    8.20
  -2   2  -8  165.08    7.10
  -2   2  -8  166.78    6.40
   2  -2   8  161.28    6.30
   2  -2   8  162.58    6.50
   2  -2   8  160.38    6.40
  -3   2  -8   11.30    1.10
  -3   2  -8    6.60    2.70
  -3   2  -8   15.00    2.50
  -3   2  -8    9.00    2.50
   3  -2   8   12.90    2.90
   3  -2   8   10.90    3.00
   3  -2   8   14.90    2.70
  -4   2  -8   35.80    3.20
  -4   2  -8   23.40    2.30
  -4   2  -8   20.70    3.90
   4  -2   8   31.40    4.40
   4  -2   8   24.60    3.30
  -5   2  -8  142.19    9.50
   5  -2   8  131.39    6.60
   5  -2   8  137.19    8.10
  -6   2  -8   24.20    6.10
  -6   2  -8   32.40    4.90
   6  -2   8   25.40    3.80
   6  -2   8   36.20    6.50
  -7   2  -8   -1.80    4.30
   7  -2   8   -4.70    4.40
   7   1  -8    7.70    4.50
  -7  -1   8    9.40    6.20
  -7  -1   8    2.10    5.30
   6   1  -8   26.80    4.70
  -6  -1   8   26.40    5.20
  -6  -1   8   28.20    5.00
   5   1  -8   22.30    4.30
  -5  -1   8   12.60    4.20
  -5  -1   8   11.50    4.40
  -5  -1   8   17.70    3.90
   4   1  -8   -4.10    3.00
  -4  -1   8    0.60    2.50
  -4  -1   8    1.90    3.20
  -4  -1   8    0.70    3.40
   3   1  -8   44.30    4.80
   3   1  -8   46.90    2.90
   3   1  -8   56.29    3.90
  -3  -1   8   55.39    5.70
  -3  -1   8   58.79    4.80
  -3  -1   8   56.59    4.90
   2   1  -8  344.97   11.20
   2   1  -8  342.57   14.80
   2   1  -8  356.06   13.50
  -2  -1   8  372.36   12.70
  -2  -1   8  346.57   11.90
  -2  -1   8  347.67   13.30
  -2  -1   8  347.37   11.50
   1   1  -8  258.07   10.00
   1   1  -8  248.28    8.60
   1   1  -8  262.07    8.50
   1   1  -8  259.07    9.70
  -1  -1   8  250.07    8.80
  -1  -1   8  268.37    8.80
  -1  -1   8  263.87    9.60
  -1  -1   8  252.47   10.10
   0   1  -8  144.89    6.30
   0   1  -8  141.79    5.60
   0   1  -8  134.19    5.90
   0  -1   8  135.89    5.40
   0  -1   8  132.49    5.50
   0  -1   8  134.39    5.70
   0  -1   8  140.49    4.90
   0  -1   8  124.29    6.30
  -1   1  -8  111.99    4.60
  -1   1  -8  102.59    5.20
  -1   1  -8  110.19    5.30
  -1   1  -8   95.99    5.70
   1  -1   8  104.19    4.90
   1  -1   8  103.19    4.30
  -2   1  -8  331.57   13.20
  -2   1  -8  359.06   13.00
  -2   1  -8  372.86   11.10
  -2   1  -8  355.66   13.60
   2  -1   8  372.06   11.10
   2  -1   8  363.46   11.30
   2  -1   8  369.06   11.20
  -3   1  -8   65.79    5.50
  -3   1  -8   68.69    3.30
  -3   1  -8   55.49    2.70
   3  -1   8   70.09    4.20
   3  -1   8   73.19    3.80
   3  -1   8   65.19    4.10
  -4   1  -8   24.80    2.40
  -4   1  -8   19.70    2.10
  -4   1  -8   19.60    4.10
   4  -1   8   23.90    2.90
   4  -1   8   23.70    4.20
   4  -1   8   26.50    2.80
  -5   1  -8    0.60    2.10
  -5   1  -8    3.10    4.00
   5  -1   8    2.70    2.30
   5  -1   8    3.30    3.10
  -6   1  -8   57.59    5.20
  -6   1  -8   62.89    7.00
   6  -1   8   62.99    3.90
   6  -1   8   66.69    7.40
  -7   1  -8   23.00    6.30
   7  -1   8   27.10    7.10
   7   0  -8   10.80    4.90
  -7   0   8    0.00    6.00
   6   0  -8   -1.50    4.10
  -6   0   8    1.10    5.10
  -6   0   8   -3.60    3.60
   5   0  -8    2.80    3.80
  -5   0   8    0.00    3.50
  -5   0   8    1.60    2.50
  -5   0   8    1.40    3.20
   4   0  -8  611.04   19.20
  -4   0   8  607.74   19.30
  -4   0   8  640.34   22.00
  -4   0   8  671.63   21.70
   3   0  -8    6.30    2.90
   3   0  -8    7.30    3.80
  -3   0   8    7.90    2.40
  -3   0   8   10.30    2.60
  -3   0   8   10.30    2.50
   2   0  -8  119.19    6.40
   2   0  -8  116.29    5.10
  -2   0   8  114.79    6.60
  -2   0   8  116.19    5.40
  -2   0   8  116.39    5.80
   1   0  -8   26.90    2.80
   1   0  -8   35.00    3.80
   1   0  -8   32.70    2.50
   1   0  -8   33.70    3.10
  -1   0   8   32.70    3.30
  -1   0   8   38.50    3.50
  -1   0   8   36.80    3.10
  -1   0   8   29.80    2.40
  -1   0   8   33.10    3.10
  -1   0   8   34.90    3.50
   0   0  -8  221.08    8.60
   0   0  -8  194.48    7.50
   0   0  -8  210.08    6.90
   0   0  -8  208.88    7.10
   0   0   8  214.18    7.80
   0   0   8  207.98    6.90
   0   0   8  193.18    7.10
   0   0   8  209.38    7.40
   0   0   8  208.28    8.10
  -1   0  -8  372.66   12.70
  -1   0  -8  390.16   13.80
  -1   0  -8  391.16   11.50
  -1   0  -8  387.76   11.50
   1   0   8  382.66   11.40
   1   0   8  366.46   12.70
   1   0   8  389.56   11.80
  -2   0  -8    2.10    2.20
  -2   0  -8    0.60    1.10
  -2   0  -8    2.50    1.40
  -2   0  -8    1.10    2.10
   2   0   8    1.80    1.50
   2   0   8    0.30    2.10
   2   0   8    0.90    1.70
  -3   0  -8   96.29    3.80
  -3   0  -8   91.69    5.80
  -3   0  -8  103.19    5.70
   3   0   8   96.59    4.00
   3   0   8   89.99    4.10
   3   0   8  104.59    5.60
  -4   0  -8  268.97    7.90
  -4   0  -8  277.67    9.10
  -4   0  -8  257.77   10.60
   4   0   8  273.77    9.90
   4   0   8  263.67    8.40
  -5   0  -8  122.59    7.20
  -5   0  -8  116.99    5.80
   5   0   8  121.39    7.60
   5   0   8  124.79    4.40
   5   0   8  125.59    4.60
  -6   0  -8   15.80    3.30
  -6   0  -8   13.80    3.80
   6   0   8   21.10    5.50
  -7   0  -8    4.10    3.80
   7   0   8   11.00    4.70
  -7   1   8   21.40    5.80
   6  -1  -8    2.10    4.40
  -6   1   8    2.30    5.40
  -6   1   8   -2.80    3.90
   5  -1  -8    2.10    4.10
  -5   1   8    0.40    2.60
  -5   1   8    2.60    3.20
  -5   1   8    2.00    3.50
   4  -1  -8   20.10    4.20
  -4   1   8   37.80    4.60
  -4   1   8   27.00    4.00
  -4   1   8   31.00    4.10
   3  -1  -8  176.48    8.50
   3  -1  -8  209.68    8.30
   3  -1  -8  187.68   11.00
  -3   1   8  215.78    9.10
  -3   1   8  218.68    9.40
  -3   1   8  210.48    8.50
   2  -1  -8  289.27   10.00
   2  -1  -8  307.17   13.00
   2  -1  -8  310.07   12.80
  -2   1   8  300.27   10.40
  -2   1   8  308.47   11.00
  -2   1   8  315.07   11.80
   1  -1  -8   32.50    3.10
   1  -1  -8   29.30    3.50
   1  -1  -8   33.40    2.90
  -1   1   8   30.90    3.10
  -1   1   8   32.00    3.10
  -1   1   8   35.30    3.40
   0  -1  -8    2.60    1.40
   0  -1  -8    6.10    1.60
   0  -1  -8    4.50    2.30
   0  -1  -8    2.80    1.50
   0   1   8    7.10    2.30
   0   1   8    5.20    1.80
   0   1   8    4.40    1.60
   0   1   8    4.60    1.70
   0   1   8    5.90    1.30
  -1  -1  -8  280.97    9.30
  -1  -1  -8  273.17   10.60
  -1  -1  -8  280.97    9.40
  -1  -1  -8  279.97    8.70
   1   1   8  275.07    8.90
   1   1   8  274.57    8.00
   1   1   8  271.37    9.40
   1   1   8  279.47    8.60
  -2  -1  -8  585.74   16.30
  -2  -1  -8  568.84   17.80
  -2  -1  -8  587.04   18.20
  -2  -1  -8  577.94   20.20
   2   1   8  565.74   15.60
   2   1   8  581.04   18.10
   2   1   8  584.74   16.40
   2   1   8  582.34   16.60
  -3  -1  -8  152.38    5.30
  -3  -1  -8  149.69    7.50
  -3  -1  -8  149.69    6.80
  -3  -1  -8  155.48    5.00
   3   1   8  147.19    5.30
   3   1   8  151.48    6.40
   3   1   8  147.89    5.60
  -4  -1  -8    9.20    2.30
  -4  -1  -8    9.20    2.60
  -4  -1  -8    9.40    1.00
  -4  -1  -8    9.90    0.90
   4   1   8    6.40    1.30
   4   1   8    7.90    1.40
   4   1   8   12.00    2.60
   4   1   8   12.90    3.10
  -5  -1  -8   56.79    4.70
  -5  -1  -8   62.29    6.00
   5   1   8   65.89    5.40
   5   1   8   59.09    3.80
  -6  -1  -8   65.99    5.30
  -6  -1  -8   70.59    7.20
   6   1   8   65.19    7.10
   6   1   8   66.99    4.30
  -7  -1  -8   38.60    6.10
  -7  -1  -8   30.20    4.50
  -7  -1  -8   37.50    4.70
   7   1   8   27.40    6.50
   6  -2  -8    0.00    4.90
  -6   2   8   -0.50    4.40
   5  -2  -8   16.10    4.90
  -5   2   8   23.80    4.80
  -5   2   8   11.20    4.30
   4  -2  -8   81.69    6.80
  -4   2   8   84.29    8.30
  -4   2   8   87.49    6.70
   3  -2  -8   10.30    5.00
   3  -2  -8   12.90    3.70
   3  -2  -8    8.90    2.50
  -3   2   8   16.30    3.30
  -3   2   8   20.00    3.40
   2  -2  -8   87.89    5.70
   2  -2  -8   91.69    7.40
   2  -2  -8   93.59    5.50
  -2   2   8   92.99    5.20
  -2   2   8   97.29    5.70
   1  -2  -8  271.07    9.40
   1  -2  -8  263.57   11.40
   1  -2  -8  277.77   12.60
  -1   2   8  290.47    9.80
  -1   2   8  289.67   10.50
  -1   2   8  280.67    7.70
  -1   2   8  300.97   10.00
   0  -2  -8    8.10    2.50
   0  -2  -8   11.30    2.20
   0  -2  -8   10.90    2.30
   0  -2  -8    3.50    2.10
   0   2   8   13.40    2.70
   0   2   8    8.30    2.80
   0   2   8   11.60    1.90
   0   2   8    7.90    1.30
   0   2   8    9.30    1.60
  -1  -2  -8   94.99    5.60
  -1  -2  -8   98.89    4.00
  -1  -2  -8   96.09    5.00
  -1  -2  -8   97.59    4.20
   1   2   8   98.09    4.20
   1   2   8   97.09    4.60
   1   2   8  100.29    4.10
   1   2   8   94.09    3.80
  -2  -2  -8    9.60    1.60
  -2  -2  -8   10.80    2.30
  -2  -2  -8   12.10    1.90
  -2  -2  -8   11.80    2.60
   2   2   8   11.70    1.70
   2   2   8   10.90    1.80
   2   2   8   12.50    2.20
  -3  -2  -8  128.89    5.80
  -3  -2  -8  138.19    7.00
  -3  -2  -8  128.79    4.50
   3   2   8  132.49    4.90
   3   2   8  131.79    5.00
   3   2   8  130.49    6.60
  -4  -2  -8  182.38    7.90
  -4  -2  -8  192.78    8.90
   4   2   8  180.78    8.30
   4   2   8  176.58    5.50
   4   2   8  177.38    5.30
  -5  -2  -8   78.59    5.90
  -5  -2  -8   76.59    5.80
   5   2   8   80.09    5.80
   5   2   8   78.19    4.90
  -6  -2  -8    3.60    3.00
  -6  -2  -8    7.60    3.90
  -6  -2  -8    7.00    4.10
   6   2   8    4.70    4.90
   6   2   8    4.20    3.40
  -7  -2  -8   13.40    4.60
  -7  -2  -8   12.90    3.90
  -7  -2  -8   10.30    4.20
  -7  -2  -8   12.10    4.80
   7   2   8   12.90    3.20
   7   2   8   15.00    6.10
   6  -3  -8    4.80    5.60
  -6   3   8   -3.50    6.40
   5  -3  -8   10.70    5.20
  -5   3   8    5.20    4.40
  -5   3   8    6.50    4.50
   4  -3  -8   14.50    3.10
  -4   3   8   32.60    5.20
  -4   3   8   24.10    5.50
   3  -3  -8   21.60    4.40
   3  -3  -8   11.80    3.40
  -3   3   8   19.00    4.80
  -3   3   8   23.00    4.60
   2  -3  -8   31.90    4.50
   2  -3  -8   46.10    4.60
   2  -3  -8   28.90    3.90
  -2   3   8   41.70    5.00
  -2   3   8   42.70    1.90
  -2   3   8   45.20    4.90
   1  -3  -8   11.00    3.10
   1  -3  -8    6.30    2.40
   1  -3  -8    6.40    2.60
  -1   3   8    7.30    3.20
  -1   3   8    6.20    2.70
  -1   3   8    7.50    1.30
  -1   3   8    7.40    1.90
   0  -3  -8   80.89    6.10
   0  -3  -8   70.89    4.50
   0  -3  -8   72.59    5.00
   0   3   8   73.69    3.50
   0   3   8   67.69    6.10
   0   3   8   72.29    3.10
   0   3   8   71.79    4.30
   0   3   8   74.69    4.30
  -1  -3  -8  306.07   14.20
  -1  -3  -8  297.87    9.80
  -1  -3  -8  300.97   11.80
   1   3   8  299.77    9.20
   1   3   8  302.57   10.20
   1   3   8  290.37    8.90
   1   3   8  311.87    9.80
  -2  -3  -8  292.37    9.40
  -2  -3  -8  317.57   14.40
  -2  -3  -8  291.47   11.80
   2   3   8  310.67    9.50
   2   3   8  293.37    9.70
   2   3   8  288.27    9.10
  -3  -3  -8    0.30    2.40
  -3  -3  -8    3.10    2.90
  -3  -3  -8    1.60    1.50
  -3  -3  -8    1.80    1.60
   3   3   8    2.20    1.70
   3   3   8   -0.40    1.80
   3   3   8    2.90    1.50
  -4  -3  -8    9.50    1.10
  -4  -3  -8    7.40    2.20
  -4  -3  -8    5.20    3.50
  -4  -3  -8    9.70    3.10
  -4  -3  -8    9.50    0.90
   4   3   8    6.20    2.10
   4   3   8    8.50    3.00
   4   3   8   10.00    1.30
   4   3   8    8.20    1.70
  -5  -3  -8   24.30    4.00
  -5  -3  -8   18.70    4.60
  -5  -3  -8   21.50    3.40
   5   3   8   25.80    3.10
   5   3   8   14.40    4.50
  -6  -3  -8   14.70    4.60
  -6  -3  -8   14.90    4.20
  -6  -3  -8   20.60    4.00
   6   3   8   18.80    4.00
   6   3   8   12.70    5.60
  -7  -3  -8    5.50    3.90
  -7  -3  -8    7.10    4.50
  -7  -3  -8    5.00    4.40
  -7  -3  -8   10.40    3.90
  -7  -3  -8    6.60    4.90
   7   3   8   11.20    6.00
   7   3   8   10.40    4.00
   6  -4  -8    7.80    6.30
  -6   4   8  -12.20    6.80
   5  -4  -8    5.10    5.70
  -5   4   8   -4.60    5.90
  -5   4   8    7.30    5.30
   4  -4  -8   -4.00    3.70
   4  -4  -8   -0.20    3.60
  -4   4   8    4.80    4.90
  -4   4   8    0.30    5.40
   3  -4  -8    4.80    4.40
   3  -4  -8    1.40    3.60
  -3   4   8    7.10    4.90
  -3   4   8   10.70    3.60
   2  -4  -8  550.14   17.60
   2  -4  -8  503.75   23.80
   2  -4  -8  503.85   21.20
  -2   4   8  551.94   18.00
  -2   4   8  515.05   13.70
  -2   4   8  526.95   19.40
   1  -4  -8   46.80    6.20
   1  -4  -8   40.10    5.30
   1  -4  -8   52.99    4.90
  -1   4   8   51.19    5.70
  -1   4   8   55.09    3.70
  -1   4   8   50.29    4.70
  -1   4   8   52.49    2.80
   0  -4  -8    3.00    2.90
   0  -4  -8    0.70    2.70
   0  -4  -8   -2.70    2.90
   0   4   8   -1.00    2.30
   0   4   8    1.20    1.60
   0   4   8    0.60    0.90
  -1  -4  -8   17.30    3.40
  -1  -4  -8   23.20    3.20
  -1  -4  -8   14.60    3.60
   1   4   8   19.10    2.40
   1   4   8   19.70    2.90
   1   4   8   21.60    3.00
  -2  -4  -8   20.30    3.50
  -2  -4  -8   25.70    3.60
  -2  -4  -8   25.10    2.90
   2   4   8   25.80    3.30
   2   4   8   23.80    2.80
   2   4   8   29.80    2.90
  -3  -4  -8  117.89    8.30
  -3  -4  -8  115.79    5.00
  -3  -4  -8  120.99    6.90
   3   4   8  114.29    5.60
   3   4   8  114.99    5.40
   3   4   8  115.59    4.90
  -4  -4  -8   25.40    2.70
  -4  -4  -8   21.40    4.60
  -4  -4  -8   27.00    3.30
   4   4   8   30.50    2.40
   4   4   8   33.20    3.70
   4   4   8   30.30    2.90
   4   4   8   35.40    4.40
  -5  -4  -8   -1.80    3.90
  -5  -4  -8    2.30    3.20
  -5  -4  -8    2.40    2.50
   5   4   8   -1.90    3.10
   5   4   8   -3.50    3.00
  -6  -4  -8   23.20    4.10
  -6  -4  -8   24.10    5.60
  -6  -4  -8   23.30    4.30
   6   4   8   25.40    3.70
   6   4   8   25.40    4.90
  -7  -4  -8    3.60    5.20
  -7  -4  -8   10.30    5.40
  -7  -4  -8   18.10    4.70
  -7  -4  -8    3.20    3.80
   7   4   8    9.20    6.20
   7   4   8   16.70    4.50
   5  -5  -8   26.70    6.90
  -5   5   8   25.90    5.40
  -5   5   8   11.00    7.30
   4  -5  -8    5.50    5.70
  -4   5   8    4.70    5.50
  -4   5   8    0.70    6.00
   3  -5  -8    5.40    5.20
   3  -5  -8    0.90    4.70
  -3   5   8    9.50    4.20
  -3   5   8   10.30    5.50
   2  -5  -8   81.89    7.80
   2  -5  -8   78.59    9.00
   2  -5  -8   80.29    6.30
  -2   5   8   87.49    6.80
  -2   5   8   78.09    7.30
  -2   5   8   86.89    3.70
   1  -5  -8   34.30    5.20
   1  -5  -8   31.70    5.50
   1  -5  -8   43.30    4.60
  -1   5   8   40.80    2.80
  -1   5   8   36.80    5.50
  -1   5   8   32.80    5.80
   0  -5  -8   60.79    5.80
   0  -5  -8   59.19    7.70
   0  -5  -8   50.79    5.70
   0   5   8   55.79    5.20
   0   5   8   60.29    3.60
  -1  -5  -8   73.09    6.50
  -1  -5  -8   56.49    5.30
  -1  -5  -8   65.99    8.00
   1   5   8   68.99    6.10
   1   5   8   57.49    3.90
  -2  -5  -8   21.60    4.70
  -2  -5  -8   24.40    3.50
  -2  -5  -8   30.50    3.60
   2   5   8   37.50    3.70
   2   5   8   33.80    4.20
   2   5   8   27.70    3.50
  -3  -5  -8    6.80    3.30
  -3  -5  -8   10.70    3.30
  -3  -5  -8    6.20    2.50
   3   5   8   10.70    3.40
   3   5   8    7.40    3.10
  -4  -5  -8   22.60    4.00
  -4  -5  -8   28.10    5.30
   4   5   8   29.80    3.60
   4   5   8   25.70    4.00
  -5  -5  -8   33.70    4.40
  -5  -5  -8   29.40    5.00
   5   5   8   34.20    4.70
   5   5   8   32.10    4.90
   5   5   8   30.80    2.90
  -6  -5  -8   11.30    3.90
  -6  -5  -8   16.10    4.60
   6   5   8   24.20    4.80
   6   5   8   19.40    5.90
  -7  -5  -8   -2.00    3.80
  -7  -5  -8    1.80    5.30
   7   5   8    2.00    3.40
   7   5   8   -5.00    5.90
   4  -6  -8    6.60    6.40
  -4   6   8    6.00    6.40
  -4   6   8   -5.70    4.80
   3  -6  -8    0.00    5.70
   3  -6  -8   -3.10    5.00
  -3   6   8    3.80    6.20
  -3   6   8    8.60    6.10
   2  -6  -8   31.90    6.60
   2  -6  -8   35.20    5.20
  -2   6   8   37.50    5.70
  -2   6   8   38.50    5.60
   1  -6  -8   11.20    5.10
   1  -6  -8    9.30    4.80
   1  -6  -8    9.20    3.80
  -1   6   8    9.90    2.60
  -1   6   8   12.40    4.40
   0  -6  -8    0.60    3.00
   0  -6  -8   -3.60    4.10
   0  -6  -8    0.80    4.20
   0   6   8    4.60    4.90
   0   6   8    2.00    2.40
  -1  -6  -8    4.10    3.70
  -1  -6  -8    4.50    4.40
  -1  -6  -8   10.50    3.90
   1   6   8    4.60    2.70
   1   6   8    6.00    4.60
  -2  -6  -8    8.00    3.70
  -2  -6  -8    9.50    3.60
  -2  -6  -8    5.70    3.60
   2   6   8    3.50    3.20
   2   6   8    7.60    4.00
  -3  -6  -8   19.90    5.60
  -3  -6  -8   24.40    4.10
   3   6   8   27.80    4.20
   3   6   8   26.10    4.80
  -4  -6  -8    7.30    4.10
  -4  -6  -8   13.80    3.60
   4   6   8   10.50    3.80
   4   6   8   10.80    4.10
  -5  -6  -8    0.30    3.20
  -5  -6  -8   -2.40    4.70
   5   6   8   -2.60    2.60
   5   6   8    6.90    4.50
  -6  -6  -8    8.20    4.60
  -6  -6  -8   11.40    5.70
   6   6   8    7.80    3.80
   6   6   8   13.70    5.70
   3  -7  -8    6.10    6.70
   3  -7  -8   -6.60    5.90
  -3   7   8    4.80    5.10
  -3   7   8    1.00    5.00
   2  -7  -8   -1.60    5.80
   2  -7  -8   -0.20    6.10
  -2   7   8    2.80    6.50
   1  -7  -8    4.70    5.50
   1  -7  -8   12.80    5.80
  -1   7   8   14.60    6.50
  -1   7   8   12.20    3.10
   0  -7  -8    5.80    5.10
   0  -7  -8    3.50    4.10
   0  -7  -8   -1.50    4.80
   0   7   8    2.70    3.00
   0   7   8    6.80    4.40
  -1  -7  -8   -0.90    4.20
  -1  -7  -8   -2.20    5.10
  -1  -7  -8    5.20    4.50
   1   7   8    0.30    2.30
   1   7   8   -0.80    5.20
  -2  -7  -8    0.20    3.90
  -2  -7  -8    3.60    5.10
  -2  -7  -8    5.20    4.00
   2   7   8   -2.20    4.80
   2   7   8   -0.90    3.50
  -3  -7  -8    1.80    5.50
  -3  -7  -8    3.50    3.70
   3   7   8    5.10    3.20
   3   7   8   16.00    5.30
  -4  -7  -8   11.00    4.80
  -4  -7  -8    0.40    3.80
   4   7   8    1.60    3.40
   4   7   8    1.90    4.50
  -5  -7  -8    7.10    4.70
   5   7   8   10.70    4.20
   5   7   8   10.00    4.00
  -6  -7  -8   -0.20    5.90
  -6  -7  -8    5.10    4.50
   6   7   8   -2.90    5.30
   2  -8  -8    0.00    6.80
   2  -8  -8   -7.50    6.60
  -2   8   8    0.60    7.30
   1  -8  -8    1.70    6.50
   1  -8  -8    5.10    4.80
  -1   8   8    1.50    3.30
  -1   8   8    5.70    7.20
   0  -8  -8   37.70    5.70
   0  -8  -8   29.00    7.60
   0   8   8   36.70    4.80
   0   8   8   34.60    7.70
  -1  -8  -8   -8.10    4.80
  -1  -8  -8   -4.30    4.30
  -1  -8  -8   12.60    5.50
   1   8   8    8.10    4.00
   1   8   8    0.80    6.40
  -2  -8  -8   -0.30    6.10
  -2  -8  -8   -3.90    4.00
   2   8   8    0.40    4.30
   2   8   8   -2.00    5.70
  -3  -8  -8    4.70    6.40
   3   8   8    5.10    5.40
   3   8   8    5.70    3.70
  -4  -8  -8    4.70    5.40
  -4  -8  -8    0.90    6.30
   4   8   8    2.20    4.00
   4   8   8    2.00    5.30
  -5  -8  -8   -2.50    6.40
  -5  -8  -8    7.30    4.70
   5   8   8   -4.20    4.10
   5   8   8    4.70    4.40
  -1  -9  -8   -0.80    5.50
  -1  -9  -8    2.90    4.40
   1   9   8    1.90    7.40
   1   9   8   -2.40    4.40
  -2  -9  -8   11.70    5.20
  -2  -9  -8   -3.10    7.10
   2   9   8    1.60    6.80
   2   9   8   -1.50    4.80
  -3  -9  -8   -0.10    7.20
  -3  -9  -8    8.30    5.40
   3   9   8   -4.90    5.70
   3   9   8    5.80    5.50
   3   8  -9    3.30    7.30
  -3  -8   9   -8.40    7.20
  -3  -8   9    4.70    6.50
   2   8  -9   -0.20    5.20
   2   8  -9   -1.00    5.60
  -2  -8   9   11.70    7.20
  -2  -8   9   -5.20    7.20
   1   8  -9   -8.60    5.40
   1   8  -9   -1.40    5.10
  -1  -8   9   -2.10    5.20
  -1  -8   9  -20.00    6.20
   0   8  -9   -8.10    4.90
   0   8  -9   -1.10    5.60
   0  -8   9   -5.30    5.20
  -1   8  -9    4.00    4.80
  -1   8  -9  -11.30    5.40
  -1   8  -9   -1.30    5.00
   1  -8   9  -13.90    7.30
   5   7  -9   10.90    6.50
  -5  -7   9    4.70    5.40
  -5  -7   9    7.50    6.00
   4   7  -9    4.00    4.60
  -4  -7   9    0.40    5.50
  -4  -7   9    5.80    4.50
  -4  -7   9   -7.10    7.10
   3   7  -9   -7.30    5.90
  -3  -7   9   -1.50    4.20
  -3  -7   9   -6.20    6.70
   2   7  -9   -2.00    6.10
   2   7  -9   -8.80    5.20
  -2  -7   9    2.00    4.40
  -2  -7   9    1.00    4.90
   1   7  -9    5.30    5.90
   1   7  -9    0.40    5.20
  -1  -7   9    4.00    6.30
  -1  -7   9    1.80    6.40
   0   7  -9   23.50    6.60
   0   7  -9   11.30    5.70
   0  -7   9   -1.80    5.70
   0  -7   9    9.70    5.10
  -1   7  -9    1.60    5.40
  -1   7  -9   -0.80    4.30
   1  -7   9   -1.60    6.60
  -2   7  -9    7.10    6.00
  -2   7  -9    3.90    4.10
   2  -7   9    2.40    7.10
  -3   7  -9   10.20    4.80
   6   6  -9   -6.90    5.30
  -6  -6   9    2.20    5.80
  -6  -6   9   -0.10    7.40
   5   6  -9    1.40    5.40
  -5  -6   9    7.80    5.10
  -5  -6   9    3.90    6.80
   4   6  -9    5.60    5.40
  -4  -6   9   11.20    4.40
  -4  -6   9   -1.80    6.60
  -4  -6   9   10.20    5.20
   3   6  -9    5.00    3.90
  -3  -6   9    4.90    5.10
  -3  -6   9    4.60    6.30
   2   6  -9    4.30    3.80
   2   6  -9   25.20    5.80
  -2  -6   9   23.10    4.70
  -2  -6   9   20.00    5.20
   1   6  -9    5.90    5.10
   1   6  -9   10.50    4.10
  -1  -6   9   -4.30    5.40
  -1  -6   9    5.50    4.20
   0   6  -9   -0.60    4.70
   0   6  -9    1.90    3.80
   0   6  -9    3.00    2.70
   0  -6   9    6.10    4.20
   0  -6   9   -3.80    4.90
  -1   6  -9   28.90    5.90
  -1   6  -9   25.70    5.60
   1  -6   9    8.50    5.40
   1  -6   9   31.20    5.50
  -2   6  -9   26.00    5.00
  -2   6  -9   29.70    6.10
   2  -6   9   31.60    7.00
  -3   6  -9    3.80    4.10
   3  -6   9    6.40    4.90
  -4   6  -9    6.70    6.10
  -4   6  -9    7.00    4.70
   4  -6   9   -3.70    6.20
   6   5  -9   14.90    5.20
   6   5  -9    9.50    3.90
  -6  -5   9   17.40    7.30
  -6  -5   9   12.50    5.80
   5   5  -9    8.30    5.20
  -5  -5   9   11.30    5.00
  -5  -5   9    0.20    4.40
   4   5  -9    7.00    4.60
  -4  -5   9    3.50    3.30
  -4  -5   9    4.40    3.70
  -4  -5   9    0.00    4.00
   3   5  -9    1.30    3.30
  -3  -5   9    0.80    3.10
  -3  -5   9   -7.00    3.50
  -3  -5   9    4.60    3.50
   2   5  -9   22.40    2.50
   2   5  -9   18.90    4.30
   2   5  -9   30.90    5.20
  -2  -5   9   23.00    6.00
  -2  -5   9   31.30    4.50
   1   5  -9   86.69    6.90
   1   5  -9   85.09    7.40
   1   5  -9   86.59    5.10
  -1  -5   9   91.89    7.80
  -1  -5   9  109.29    8.00
   0   5  -9   41.10    5.50
   0   5  -9   35.90    5.60
   0   5  -9   43.60    4.30
   0  -5   9   48.10    5.30
   0  -5   9   38.90    5.60
  -1   5  -9    3.50    4.30
  -1   5  -9   -6.40    4.10
   1  -5   9    4.60    4.00
   1  -5   9    5.00    3.70
  -2   5  -9   46.40    5.60
  -2   5  -9   44.70    5.30
   2  -5   9   51.29    6.60
  -3   5  -9   40.30    5.50
  -3   5  -9   29.30    5.10
   3  -5   9   33.70    6.40
  -4   5  -9   34.40    6.70
   4  -5   9   44.50    6.90
  -5   5  -9   -1.60    4.20
  -5   5  -9    1.00    4.20
   5  -5   9    1.40    5.70
   7   4  -9    3.00    4.80
   7   4  -9    3.50    4.40
  -7  -4   9    7.50    7.00
  -7  -4   9    1.50    4.70
   6   4  -9   16.90    4.00
   6   4  -9   14.10    5.10
  -6  -4   9    9.50    4.40
  -6  -4   9   10.20    6.40
   5   4  -9   27.70    5.10
  -5  -4   9   31.50    4.90
  -5  -4   9   23.90    4.30
  -5  -4   9   25.90    5.20
   4   4  -9   48.70    5.50
  -4  -4   9   49.60    5.20
  -4  -4   9   37.10    5.10
  -4  -4   9   36.80    5.50
   3   4  -9    1.70    2.90
   3   4  -9   -1.30    1.90
  -3  -4   9    0.10    2.90
  -3  -4   9    3.30    2.80
  -3  -4   9    2.90    3.40
   2   4  -9    6.50    3.80
   2   4  -9   16.50    4.50
   2   4  -9    9.40    2.40
  -2  -4   9   16.50    4.30
  -2  -4   9   17.40    4.90
  -2  -4   9   14.20    2.60
   1   4  -9   15.30    2.50
   1   4  -9   16.70    3.30
   1   4  -9   15.10    3.50
  -1  -4   9   12.10    2.20
  -1  -4   9   14.40    4.70
  -1  -4   9   17.50    3.50
   0   4  -9   88.59    6.30
   0   4  -9   91.99    5.60
   0   4  -9   75.09    6.10
   0  -4   9   89.09    7.60
   0  -4   9   77.39    5.70
  -1   4  -9  134.89    7.40
  -1   4  -9  144.39    8.80
   1  -4   9  130.89    8.80
   1  -4   9  140.49    4.50
   1  -4   9  143.89    8.20
  -2   4  -9   97.09    6.40
  -2   4  -9   87.29    8.00
   2  -4   9   99.69    7.40
  -3   4  -9    0.90    3.20
  -3   4  -9    2.70    2.70
   3  -4   9    1.00    4.20
   3  -4   9    0.80    2.90
  -4   4  -9   29.00    6.20
   4  -4   9   39.30    5.60
   4  -4   9   32.90    4.80
  -5   4  -9   29.50    5.60
   5  -4   9   29.30    5.50
   5  -4   9   30.60    5.10
   7   3  -9    9.40    4.90
   7   3  -9    9.40    5.00
  -7  -3   9    8.50    6.40
  -7  -3   9    4.20    4.70
   6   3  -9    2.80    4.50
  -6  -3   9    2.40    5.20
  -6  -3   9    2.50    4.10
   5   3  -9    6.20    4.20
  -5  -3   9    7.40    5.20
  -5  -3   9    4.70    3.40
  -5  -3   9   13.70    4.00
   4   3  -9    2.30    3.80
  -4  -3   9    4.70    4.50
  -4  -3   9    0.80    3.70
  -4  -3   9    4.20    3.60
   3   3  -9   50.09    4.90
   3   3  -9   59.79    4.70
   3   3  -9   63.29    5.50
  -3  -3   9   54.49    5.20
  -3  -3   9   69.19    6.00
  -3  -3   9   59.69    3.50
  -3  -3   9   74.19    7.70
   2   3  -9  135.49    6.20
   2   3  -9  133.09    7.90
   2   3  -9  124.49    6.40
  -2  -3   9  143.49    8.80
  -2  -3   9  116.19    7.10
  -2  -3   9  130.99    6.00
   1   3  -9  189.48    7.90
   1   3  -9  191.68    8.00
   1   3  -9  191.38    8.60
  -1  -3   9  182.48    8.40
  -1  -3   9  190.58    6.90
  -1  -3   9  174.38    8.90
   0   3  -9    8.60    2.30
   0   3  -9   11.80    2.90
   0   3  -9   16.30    3.30
   0  -3   9    9.50    3.70
   0  -3   9    6.60    1.20
   0  -3   9    6.60    2.70
  -1   3  -9   44.70    4.40
  -1   3  -9   38.80    3.60
  -1   3  -9   36.40    4.70
   1  -3   9   40.20    4.40
   1  -3   9   42.60    4.40
  -2   3  -9   46.30    4.40
  -2   3  -9   38.00    5.10
   2  -3   9   39.70    3.50
   2  -3   9   45.70    4.20
  -3   3  -9   87.09    7.70
  -3   3  -9   74.39    5.10
   3  -3   9   72.29    4.90
   3  -3   9   74.69    6.00
  -4   3  -9   31.20    5.40
   4  -3   9   36.70    4.70
   4  -3   9   32.30    4.60
  -5   3  -9    6.70    4.00
   5  -3   9    4.00    3.60
   5  -3   9    5.00    4.30
  -6   3  -9    8.80    4.70
  -6   3  -9   14.40    4.90
   6  -3   9   20.10    5.70
   6  -3   9   10.60    4.30
   7   2  -9   -4.90    4.30
  -7  -2   9   10.80    6.50
  -7  -2   9   -2.00    5.70
   6   2  -9    3.60    4.20
  -6  -2   9    5.70    5.20
  -6  -2   9    0.10    5.10
   5   2  -9  269.97   11.00
  -5  -2   9  258.37   12.30
  -5  -2   9  263.27   12.50
  -5  -2   9  246.58   10.60
   4   2  -9   28.80    3.70
  -4  -2   9   13.10    3.70
  -4  -2   9   19.50    3.40
  -4  -2   9   23.80    4.20
   3   2  -9   -3.10    2.50
   3   2  -9   -0.50    2.30
   3   2  -9    0.50    1.60
  -3  -2   9    2.70    2.80
  -3  -2   9    2.20    2.70
  -3  -2   9    0.10    3.30
  -3  -2   9   -0.10    1.70
   2   2  -9   -0.90    1.70
   2   2  -9   -2.20    2.10
   2   2  -9    1.40    2.20
   2   2  -9   -0.30    2.80
  -2  -2   9    1.90    2.10
  -2  -2   9    1.50    2.50
  -2  -2   9    1.50    1.60
  -2  -2   9    0.40    2.30
   1   2  -9   59.59    6.00
   1   2  -9   68.39    4.70
   1   2  -9   61.09    4.00
   1   2  -9   69.99    4.70
  -1  -2   9   65.29    3.70
  -1  -2   9   65.29    5.10
  -1  -2   9   65.19    3.80
  -1  -2   9   62.39    4.30
   0   2  -9  287.37   11.50
   0   2  -9  289.57    9.90
   0   2  -9  304.07   11.40
   0  -2   9  302.27   12.20
   0  -2   9  316.37   10.70
   0  -2   9  299.07    9.20
  -1   2  -9  103.49    6.50
  -1   2  -9   99.49    5.80
  -1   2  -9   89.29    4.90
   1  -2   9   96.39    5.60
   1  -2   9  104.49    5.00
  -2   2  -9    0.70    2.30
  -2   2  -9    4.20    2.20
  -2   2  -9   -2.90    3.00
   2  -2   9    3.10    2.10
   2  -2   9    5.30    2.50
   2  -2   9    6.70    1.90
  -3   2  -9  117.99    5.30
  -3   2  -9  107.79    6.80
   3  -2   9  114.39    5.90
   3  -2   9  120.29    5.50
   3  -2   9  107.99    5.90
  -4   2  -9   82.69    6.50
   4  -2   9   84.59    5.30
   4  -2   9   77.69    6.00
  -5   2  -9   47.80    5.70
   5  -2   9   68.49    6.60
   5  -2   9   58.79    5.30
  -6   2  -9    6.80    4.20
   6  -2   9   10.20    4.50
   6  -2   9   14.00    3.50
   7   1  -9   -4.40    4.50
  -7  -1   9   -3.90    5.00
  -7  -1   9    6.40    6.50
   6   1  -9    6.40    4.50
  -6  -1   9   -0.60    3.80
  -6  -1   9    6.00    4.90
   5   1  -9   42.70    5.20
  -5  -1   9   42.90    5.10
  -5  -1   9   33.20    5.30
  -5  -1   9   34.20    4.80
   4   1  -9   85.39    6.40
  -4  -1   9   95.29    7.40
  -4  -1   9   93.69    5.60
  -4  -1   9   97.69    7.70
   3   1  -9  179.98    7.60
   3   1  -9  159.58    7.50
   3   1  -9  143.49    9.20
  -3  -1   9  173.38    8.00
  -3  -1   9  158.18    7.10
  -3  -1   9  164.28    9.00
   2   1  -9  142.19    7.50
   2   1  -9  142.99    7.30
   2   1  -9  145.79    6.60
  -2  -1   9  145.79    6.40
  -2  -1   9  148.49    6.40
  -2  -1   9  138.89    8.00
   1   1  -9  124.49    4.70
   1   1  -9  123.69    6.30
   1   1  -9  117.09    6.20
   1   1  -9  109.79    5.10
  -1  -1   9  114.09    5.40
  -1  -1   9  126.79    7.10
  -1  -1   9  115.79    5.30
   0   1  -9   45.80    3.60
   0   1  -9   37.80    3.00
   0   1  -9   38.70    3.30
   0  -1   9   38.30    3.70
   0  -1   9   37.10    2.80
   0  -1   9   43.80    3.40
   0  -1   9   38.90    4.00
  -1   1  -9  318.57   10.30
  -1   1  -9  333.57   12.40
  -1   1  -9  303.87   11.40
   1  -1   9  323.27   10.70
   1  -1   9  323.67   10.30
  -2   1  -9  243.88    8.10
  -2   1  -9  240.28    9.90
  -2   1  -9  231.78    9.50
   2  -1   9  240.38    8.50
   2  -1   9  245.08    8.20
   2  -1   9  240.28    8.50
  -3   1  -9  188.28    6.50
  -3   1  -9  183.58    8.40
  -3   1  -9  181.48    5.60
   3  -1   9  191.28    7.80
   3  -1   9  183.08    6.80
   3  -1   9  178.18    7.20
  -4   1  -9    0.60    3.40
  -4   1  -9    1.90    1.80
  -4   1  -9    0.30    1.30
   4  -1   9   -1.70    3.40
   4  -1   9    3.40    2.10
   4  -1   9   -0.80    2.50
  -5   1  -9   29.90    5.30
  -5   1  -9   38.30    3.60
   5  -1   9   38.70    5.60
   5  -1   9   42.20    3.90
  -6   1  -9   60.49    7.10
   6  -1   9   57.99    7.40
   6  -1   9   61.89    4.00
  -7   1  -9    6.40    5.60
   7  -1   9    4.50    6.40
   7   0  -9   -0.10    5.00
  -7   0   9    4.70    6.70
   6   0  -9   14.50    5.00
  -6   0   9    6.10    5.70
  -6   0   9   14.20    4.60
   5   0  -9   63.69    5.90
  -5   0   9   60.19    5.70
  -5   0   9   55.19    5.60
  -5   0   9   50.59    5.70
   4   0  -9  136.59    7.50
  -4   0   9  117.49    7.40
  -4   0   9  135.19    8.40
  -4   0   9  132.89    7.40
   3   0  -9    6.30    0.80
   3   0  -9    7.10    3.00
   3   0  -9    5.00    1.00
   3   0  -9    5.90    2.50
  -3   0   9    7.60    3.30
  -3   0   9   10.70    3.20
  -3   0   9    6.90    3.40
   2   0  -9   83.49    4.60
   2   0  -9   85.29    5.60
  -2   0   9   87.79    5.60
  -2   0   9   90.89    5.00
  -2   0   9   89.99    4.80
   1   0  -9   60.69    4.40
   1   0  -9   66.29    3.80
   1   0  -9   68.59    3.50
   1   0  -9   63.59    4.90
  -1   0   9   66.39    4.10
  -1   0   9   62.59    4.70
  -1   0   9   70.19    4.20
   0   0  -9  321.37   10.40
   0   0  -9  329.57   12.40
   0   0  -9  318.57   10.20
   0   0  -9  314.17   11.00
   0   0   9  332.67   10.20
   0   0   9  328.97   10.80
   0   0   9  324.77   10.70
  -1   0  -9   86.69    5.30
  -1   0  -9   81.59    4.10
  -1   0  -9   83.49    3.30
  -1   0  -9   91.49    4.90
   1   0   9   80.79    4.00
   1   0   9   77.19    4.00
  -2   0  -9   51.59    2.60
  -2   0  -9   48.00    3.00
  -2   0  -9   53.69    4.70
  -2   0  -9   49.50    4.30
   2   0   9   51.29    3.90
   2   0   9   49.40    3.30
  -3   0  -9  180.68    8.90
  -3   0  -9  180.48    6.20
  -3   0  -9  195.78    8.50
   3   0   9  181.38    6.70
   3   0   9  179.38    6.30
   3   0   9  186.98    7.90
  -4   0  -9  251.97    7.90
  -4   0  -9  262.07    8.80
  -4   0  -9  262.17   11.20
   4   0   9  263.97    8.40
   4   0   9  254.27   10.20
  -5   0  -9   63.19    4.30
  -5   0  -9   67.89    6.90
   5   0   9   63.59    6.60
   5   0   9   64.39    3.40
  -6   0  -9    8.60    4.50
   6   0   9    2.40    5.10
  -7   0  -9   18.40    5.70
   7   0   9    7.80    4.80
  -7   1   9   -6.00    6.40
   6  -1  -9    3.20    4.90
  -6   1   9    4.60    4.20
  -6   1   9    7.40    4.60
   5  -1  -9    4.90    3.40
  -5   1   9    1.30    3.70
  -5   1   9    5.20    3.60
  -5   1   9    4.90    3.10
   4  -1  -9   23.80    3.70
  -4   1   9   22.20    4.40
  -4   1   9   22.30    4.90
  -4   1   9   16.20    3.70
   3  -1  -9   88.09    8.50
   3  -1  -9   79.09    4.80
   3  -1  -9   91.79    5.20
  -3   1   9   95.79    6.40
  -3   1   9   91.09    7.00
  -3   1   9  101.09    6.70
   2  -1  -9   12.20    1.90
   2  -1  -9   19.70    3.30
   2  -1  -9   15.30    3.80
  -2   1   9   11.80    3.40
  -2   1   9   19.10    3.30
   1  -1  -9   -0.70    2.40
   1  -1  -9    0.40    1.90
  -1   1   9   -2.50    1.70
  -1   1   9    0.10    1.90
  -1   1   9    1.10    2.30
   0  -1  -9  224.38    7.80
   0  -1  -9  211.68    7.60
   0  -1  -9  209.08    9.00
   0  -1  -9  215.78    7.90
   0   1   9  204.98    7.30
   0   1   9  212.68    7.70
   0   1   9  213.98    6.40
   0   1   9  225.98    8.50
   0   1   9  224.68    8.30
  -1  -1  -9  566.14   16.70
  -1  -1  -9  544.15   19.00
  -1  -1  -9  527.85   15.70
  -1  -1  -9  553.94   16.90
   1   1   9  528.25   17.00
   1   1   9  522.95   14.50
   1   1   9  519.05   15.80
   1   1   9  541.75   15.70
  -2  -1  -9  141.79    6.20
  -2  -1  -9  151.28    5.20
  -2  -1  -9  153.18    5.90
  -2  -1  -9  142.89    6.80
   2   1   9  136.29    5.50
   2   1   9  136.99    5.00
   2   1   9  134.59    6.00
   2   1   9  137.09    5.10
  -3  -1  -9   56.09    2.90
  -3  -1  -9   59.49    4.60
  -3  -1  -9   52.59    5.10
   3   1   9   54.39    3.00
   3   1   9   52.19    3.10
   3   1   9   55.39    4.30
   3   1   9   52.99    3.40
  -4  -1  -9    2.80    2.40
  -4  -1  -9    0.20    1.00
  -4  -1  -9    0.60    2.00
   4   1   9    1.80    1.90
   4   1   9    1.10    1.50
   4   1   9    0.30    1.40
   4   1   9   -0.50    3.50
  -5  -1  -9   40.20    4.90
  -5  -1  -9   33.40    4.30
  -5  -1  -9   41.80    4.10
   5   1   9   39.60    5.00
   5   1   9   35.70    3.50
  -6  -1  -9   53.69    6.20
  -6  -1  -9   68.39    7.20
  -6  -1  -9   61.69    5.50
   6   1   9   55.39    7.40
   6   1   9   60.69    5.10
  -7  -1  -9    4.20    4.90
   7   1   9    7.00    4.80
  -6   2   9    0.80    6.10
   5  -2  -9   19.50    5.50
  -5   2   9   21.00    5.90
  -5   2   9   21.20    5.10
   4  -2  -9   35.90    4.40
  -4   2   9   30.30    5.60
  -4   2   9   37.00    5.20
   3  -2  -9  347.07   15.70
   3  -2  -9  378.86   12.90
   3  -2  -9  323.77   15.60
  -3   2   9  365.46   12.70
  -3   2   9  374.26   13.90
   2  -2  -9   53.89    4.70
   2  -2  -9   66.49    5.80
   2  -2  -9   57.89    4.20
  -2   2   9   63.99    5.10
  -2   2   9   58.49    4.50
   1  -2  -9   55.99    4.60
   1  -2  -9   64.09    5.80
   1  -2  -9   59.19    4.50
  -1   2   9   55.89    2.50
  -1   2   9   63.69    5.50
  -1   2   9   58.89    4.00
  -1   2   9   50.99    4.00
   0  -2  -9  174.38    6.90
   0  -2  -9  186.38    9.50
   0  -2  -9  182.18    8.20
   0   2   9  179.08    7.30
   0   2   9  186.58    5.70
   0   2   9  177.38    6.70
   0   2   9  179.98    7.00
   0   2   9  174.08    8.30
  -1  -2  -9    2.00    2.00
  -1  -2  -9    1.90    1.50
  -1  -2  -9    3.20    1.90
  -1  -2  -9    3.00    1.90
   1   2   9    2.30    1.80
   1   2   9    1.60    1.60
   1   2   9    4.60    1.90
   1   2   9    1.80    1.40
  -2  -2  -9   99.39    4.70
  -2  -2  -9   87.29    5.10
  -2  -2  -9   90.09    4.20
  -2  -2  -9   96.29    5.50
   2   2   9   97.69    4.50
   2   2   9  101.29    4.50
   2   2   9   91.09    3.90
   2   2   9   97.49    4.20
  -3  -2  -9  144.69    7.80
  -3  -2  -9  152.18    5.20
  -3  -2  -9  154.48    6.60
   3   2   9  148.19    5.60
   3   2   9  157.28    5.60
   3   2   9  158.38    7.40
   3   2   9  147.39    5.20
  -4  -2  -9   67.29    4.90
  -4  -2  -9   64.59    5.00
  -4  -2  -9   55.69    2.20
  -4  -2  -9   58.99    2.30
   4   2   9   57.99    3.70
   4   2   9   59.19    2.90
   4   2   9   61.39    5.80
   4   2   9   59.09    2.70
  -5  -2  -9    1.90    3.00
  -5  -2  -9    1.80    3.60
   5   2   9   -2.60    2.80
   5   2   9    2.10    3.00
  -6  -2  -9    3.90    2.90
  -6  -2  -9    3.50    3.20
  -6  -2  -9    3.90    3.70
   6   2   9    3.90    3.50
   6   2   9    7.00    5.20
  -7  -2  -9   10.20    3.70
  -7  -2  -9   12.90    4.80
  -7  -2  -9   12.00    5.10
   7   2   9   16.90    7.10
   7   2   9   17.90    4.30
   6  -3  -9   17.30    6.10
  -6   3   9    5.20    6.90
   5  -3  -9   -1.10    5.10
  -5   3   9    9.80    5.10
  -5   3   9  -11.30    5.60
  -4   3   9   29.80    6.30
  -4   3   9   44.90    5.90
   3  -3  -9  161.58   10.10
   3  -3  -9  157.88   10.50
   3  -3  -9  185.88    9.00
  -3   3   9  165.38    9.20
  -3   3   9  184.18    8.50
   2  -3  -9   20.00    4.10
   2  -3  -9   17.00    3.30
   2  -3  -9    6.80    4.50
  -2   3   9   18.60    1.40
  -2   3   9   15.40    3.50
  -2   3   9   16.70    4.20
   1  -3  -9   20.30    3.20
   1  -3  -9   33.80    4.00
   1  -3  -9   24.60    3.70
  -1   3   9   28.60    3.00
  -1   3   9   26.70    4.40
  -1   3   9   29.00    3.50
  -1   3   9   28.10    2.10
   0  -3  -9  164.78    9.20
   0  -3  -9  150.08    8.30
   0  -3  -9  151.48    6.70
   0   3   9  154.88    6.00
   0   3   9  162.18    7.20
   0   3   9  147.49    8.40
   0   3   9  155.88    5.20
  -1  -3  -9  142.49    7.30
  -1  -3  -9  151.58    6.20
  -1  -3  -9  158.18    9.30
   1   3   9  153.58    5.30
   1   3   9  151.38    6.20
   1   3   9  142.79    5.40
   1   3   9  160.98    6.10
  -2  -3  -9    4.80    3.00
  -2  -3  -9    9.80    2.10
  -2  -3  -9    7.00    1.50
  -2  -3  -9    5.30    2.20
   2   3   9    8.80    1.90
   2   3   9    7.70    2.10
   2   3   9    6.00    2.40
  -3  -3  -9   -1.90    2.60
  -3  -3  -9   -2.10    3.00
  -3  -3  -9   -1.50    1.60
  -3  -3  -9   -0.80    1.70
   3   3   9    1.80    2.10
   3   3   9   -0.70    1.70
   3   3   9    0.30    1.50
  -4  -3  -9   53.79    4.20
  -4  -3  -9   51.99    6.30
  -4  -3  -9   59.69    5.80
   4   3   9   55.09    2.70
   4   3   9   52.69    3.30
   4   3   9   60.59    4.40
   4   3   9   59.79    5.10
  -5  -3  -9  109.49    8.90
  -5  -3  -9  104.49    7.70
  -5  -3  -9  115.09    6.50
   5   3   9  110.69    6.00
   5   3   9  103.49    6.80
  -6  -3  -9    9.30    4.90
  -6  -3  -9    2.20    3.70
  -6  -3  -9    8.10    4.10
   6   3   9    7.30    3.70
   6   3   9    5.80    5.00
  -7  -3  -9    6.90    3.70
  -7  -3  -9   -2.70    4.30
  -7  -3  -9   -5.20    4.70
  -7  -3  -9    0.10    4.00
   7   3   9    2.10    4.60
   7   3   9   -3.10    3.80
   5  -4  -9    5.60    5.90
  -5   4   9    4.50    5.50
  -5   4   9    2.70    4.90
   4  -4  -9   -0.40    3.80
  -4   4   9    3.60    4.40
  -4   4   9    2.60    5.10
   3  -4  -9   34.20    5.60
   3  -4  -9   33.70    5.20
  -3   4   9   32.90    5.00
  -3   4   9   43.10    6.00
   2  -4  -9   83.59    8.90
   2  -4  -9   74.19    7.40
   2  -4  -9   90.69    7.20
  -2   4   9   95.29    8.60
  -2   4   9   88.79    7.60
   1  -4  -9   29.00    4.20
   1  -4  -9   40.20    4.10
   1  -4  -9   29.00    4.40
  -1   4   9   36.80    5.10
  -1   4   9   30.80    5.30
  -1   4   9   34.00    3.50
  -1   4   9   36.90    2.50
   0  -4  -9    5.80    3.60
   0  -4  -9   12.10    3.40
   0  -4  -9    9.00    3.30
   0   4   9   12.40    2.00
   0   4   9   16.50    4.00
   0   4   9   10.10    1.40
  -1  -4  -9   11.50    3.50
  -1  -4  -9   14.10    2.90
  -1  -4  -9   11.10    3.00
   1   4   9   17.90    3.10
   1   4   9   11.00    3.50
   1   4   9   11.90    2.20
  -2  -4  -9   79.59    6.90
  -2  -4  -9   74.59    4.50
  -2  -4  -9   72.19    6.10
   2   4   9   85.79    5.30
   2   4   9   75.79    3.90
   2   4   9   80.59    4.30
  -3  -4  -9   89.59    7.60
  -3  -4  -9   89.79    4.60
  -3  -4  -9   87.29    3.90
  -3  -4  -9  100.39    6.50
   3   4   9   90.49    5.10
   3   4   9   90.09    4.90
   3   4   9   93.29    4.50
  -4  -4  -9   -1.00    2.80
  -4  -4  -9    4.20    2.00
  -4  -4  -9   -2.80    2.90
   4   4   9    2.90    2.30
   4   4   9    2.80    2.30
  -5  -4  -9   -3.30    2.30
  -5  -4  -9   -0.70    4.20
  -5  -4  -9    0.90    3.40
   5   4   9    2.30    2.50
   5   4   9   -0.70    4.50
  -6  -4  -9   16.30    4.50
  -6  -4  -9   13.30    4.30
  -6  -4  -9   19.60    3.70
   6   4   9   21.20    4.50
   6   4   9   25.70    6.50
  -7  -4  -9    7.60    4.10
  -7  -4  -9   12.80    4.20
  -7  -4  -9   10.30    4.70
  -7  -4  -9   15.60    5.90
   7   4   9   23.00    4.00
   7   4   9    9.80    6.60
   5  -5  -9   -1.30    6.30
  -5   5   9    0.20    4.50
  -5   5   9   -4.30    6.90
   4  -5  -9   29.40    6.80
  -4   5   9   13.70    6.90
  -4   5   9   28.90    5.50
   3  -5  -9    3.80    4.60
   3  -5  -9    6.10    5.40
  -3   5   9    1.50    5.70
  -3   5   9   11.20    5.70
   2  -5  -9   -0.50    3.50
   2  -5  -9    0.40    3.90
   2  -5  -9    4.90    4.00
  -2   5   9    8.70    4.00
  -2   5   9    0.20    3.80
   1  -5  -9    0.90    4.50
   1  -5  -9   -2.50    3.50
   1  -5  -9   -5.20    4.00
  -1   5   9    6.30    4.80
  -1   5   9    1.50    4.90
  -1   5   9    2.00    1.90
   0  -5  -9   17.70    4.20
   0  -5  -9   17.00    4.60
   0  -5  -9    7.20    4.00
   0   5   9   18.90    4.70
   0   5   9   18.70    2.60
  -1  -5  -9   24.00    4.80
  -1  -5  -9   27.50    4.00
  -1  -5  -9   31.80    4.80
   1   5   9   17.20    2.40
   1   5   9   19.60    4.40
  -2  -5  -9    0.40    3.30
  -2  -5  -9    5.10    2.80
  -2  -5  -9    1.70    3.90
   2   5   9    4.00    2.70
   2   5   9   -2.30    3.20
   2   5   9    0.90    1.90
  -3  -5  -9   11.80    3.70
  -3  -5  -9    9.40    3.60
  -3  -5  -9   12.70    3.10
   3   5   9    8.10    3.30
   3   5   9   12.30    3.70
  -4  -5  -9   62.79    7.80
  -4  -5  -9   66.79    6.40
   4   5   9   68.99    5.30
   4   5   9   76.39    5.60
  -5  -5  -9   23.70    5.50
  -5  -5  -9   22.80    4.20
   5   5   9   16.40    2.30
   5   5   9   24.20    4.60
  -6  -5  -9   -3.10    4.70
  -6  -5  -9    3.10    3.60
   6   5   9   -1.90    4.10
   6   5   9   -8.70    5.20
  -7  -5  -9    4.90    5.70
  -7  -5  -9    1.20    4.00
  -7  -5  -9    3.10    5.30
   7   5   9   -0.40    6.50
   7   5   9    7.70    4.90
   4  -6  -9    7.90    6.70
  -4   6   9   -0.30    5.20
  -4   6   9   -4.60    6.30
   3  -6  -9   -3.80    4.70
   3  -6  -9    7.40    6.10
  -3   6   9    0.20    6.30
  -3   6   9    2.80    6.40
   2  -6  -9   32.70    5.30
   2  -6  -9   23.70    6.00
  -2   6   9   29.20    5.50
  -2   6   9   37.20    7.00
   1  -6  -9   34.30    5.00
   1  -6  -9   22.90    4.80
   1  -6  -9   21.80    6.00
  -1   6   9   30.80    3.20
  -1   6   9   40.10    6.70
   0  -6  -9   -0.30    4.30
   0  -6  -9    0.90    4.50
   0  -6  -9   -0.50    4.30
   0   6   9    1.00    2.40
   0   6   9    0.10    3.70
  -1  -6  -9    4.10    4.70
  -1  -6  -9    6.00    4.00
  -1  -6  -9   11.90    4.00
   1   6   9    7.50    4.70
   1   6   9   12.90    3.10
  -2  -6  -9   22.30    4.80
  -2  -6  -9   22.60    4.10
  -2  -6  -9   23.20    4.60
   2   6   9   20.90    3.70
   2   6   9   34.60    5.10
  -3  -6  -9    2.90    4.80
  -3  -6  -9    0.20    3.50
   3   6   9    4.40    4.20
   3   6   9    7.80    3.70
  -4  -6  -9   12.00    5.40
  -4  -6  -9   14.90    4.20
   4   6   9   15.70    4.00
   4   6   9   11.00    3.40
  -5  -6  -9    0.60    3.40
  -5  -6  -9    5.40    5.50
   5   6   9   -2.20    4.10
   5   6   9    2.40    2.90
  -6  -6  -9    4.80    5.60
   6   6   9    6.70    5.10
   3  -7  -9   -5.20    5.90
   3  -7  -9    1.60    6.80
  -3   7   9    4.40    5.40
  -3   7   9   -1.50    5.10
   2  -7  -9    4.30    6.30
   2  -7  -9    5.00    5.80
  -2   7   9    8.40    6.90
   1  -7  -9   20.50    6.30
   1  -7  -9   27.00    6.40
  -1   7   9   23.20    6.80
  -1   7   9   21.20    3.20
   0  -7  -9   -0.30    4.00
   0  -7  -9   -0.40    4.90
   0  -7  -9    6.00    5.20
   0   7   9    1.00    5.80
   0   7   9    0.90    3.10
  -1  -7  -9   -4.20    4.40
  -1  -7  -9   -2.40    5.20
  -1  -7  -9    0.90    3.20
   1   7   9    4.20    3.30
   1   7   9    4.10    4.10
  -2  -7  -9   -0.20    4.00
  -2  -7  -9   -0.50    4.10
   2   7   9    3.10    3.80
   2   7   9    6.00    4.80
  -3  -7  -9    3.30    4.00
  -3  -7  -9    9.30    5.90
   3   7   9    4.00    3.30
   3   7   9   11.00    4.70
  -4  -7  -9    3.60    5.80
  -4  -7  -9    5.00    4.30
   4   7   9    8.60    4.60
   4   7   9   -3.70    4.60
  -5  -7  -9   -2.60    5.70
   5   7   9    1.00    3.80
   5   7   9  -10.90    4.90
  -6  -7  -9   11.90    5.00
  -6  -7  -9    2.50    4.80
   6   7   9   -7.80    3.60
   1  -8  -9   -2.90    4.70
   1  -8  -9    7.10    5.00
  -1   8   9   14.70    7.50
   0  -8  -9    2.30    6.30
   0  -8  -9    9.10    5.90
   0   8   9   -3.40    6.50
   0   8   9    8.30    3.60
  -1  -8  -9   -2.90    5.00
  -1  -8  -9    1.30    4.70
  -1  -8  -9    7.90    5.40
   1   8   9    5.90    3.90
   1   8   9   11.00    6.70
  -2  -8  -9    2.40    4.60
  -2  -8  -9   -0.60    6.20
   2   8   9   -4.30    4.20
   2   8   9   12.80    6.30
  -3  -8  -9    5.90    6.50
   3   8   9   -1.20    3.50
   3   8   9    1.90    5.20
  -4  -8  -9    5.20    5.10
   4   8   9   -7.70    5.30
   4   8   9   -0.70    4.60
   3   8 -10    2.50    5.60
   2   8 -10   -3.80    7.30
   2   8 -10  -13.80    5.80
  -2  -8  10   -2.40    5.00
  -2  -8  10  -12.40    7.50
   1   8 -10   -7.10    4.20
   1   8 -10   -0.70    7.20
  -1  -8  10    4.90    7.70
  -1  -8  10   -2.20    7.00
   0   8 -10   -8.70    5.80
   0   8 -10    5.00    5.30
   0  -8  10    6.70    7.80
   4   7 -10    0.40    6.30
  -4  -7  10    5.20    4.70
  -4  -7  10    4.50    4.60
  -4  -7  10   -9.40    7.50
   3   7 -10    3.30    4.70
  -3  -7  10   -3.70    6.00
  -3  -7  10   -1.60    7.40
   2   7 -10   -0.10    6.30
   2   7 -10   -0.90    5.90
  -2  -7  10    6.40    5.50
  -2  -7  10    7.50    6.40
   1   7 -10    7.80    5.80
   1   7 -10    6.80    4.80
  -1  -7  10    9.30    5.10
  -1  -7  10    0.30    6.60
   0   7 -10   -7.20    5.80
   0   7 -10   -1.70    5.60
   0  -7  10   -0.80    6.00
   0  -7  10    0.40    5.00
  -1   7 -10  -11.10    5.30
  -1   7 -10   -2.00    4.50
   1  -7  10   -4.70    6.80
  -2   7 -10    4.40    4.50
  -2   7 -10    1.80    4.60
   2  -7  10   -5.30    7.10
   5   6 -10   -3.40    4.20
  -5  -6  10    1.20    5.30
  -5  -6  10    5.30    5.00
   4   6 -10   -1.30    4.00
  -4  -6  10    6.60    4.80
  -4  -6  10    0.40    3.80
  -4  -6  10   -2.20    6.90
   3   6 -10    7.10    5.60
  -3  -6  10   12.70    4.30
  -3  -6  10    7.80    4.30
  -3  -6  10    4.20    6.80
   2   6 -10   -1.90    3.90
   2   6 -10    7.50    5.70
  -2  -6  10    1.90    4.10
  -2  -6  10   -2.40    4.60
   1   6 -10    4.10    3.90
   1   6 -10    7.50    4.20
  -1  -6  10    2.20    4.30
  -1  -6  10   -3.50    5.70
   0   6 -10   19.00    4.70
   0   6 -10   18.40    3.50
   0   6 -10   19.70    4.60
   0  -6  10   16.90    6.30
   0  -6  10    7.40    5.90
  -1   6 -10   45.80    6.80
  -1   6 -10   63.89    7.20
  -1   6 -10   65.49    6.90
   1  -6  10   36.40    6.10
   1  -6  10   45.80    6.20
  -2   6 -10   11.40    4.50
  -2   6 -10   24.90    6.10
   2  -6  10   13.00    6.50
  -3   6 -10   -0.40    4.00
   3  -6  10   -4.30    6.00
   6   5 -10    2.70    5.20
  -6  -5  10    2.10    5.60
  -6  -5  10   12.70    5.80
   5   5 -10   -3.40    5.30
  -5  -5  10   -4.20    4.40
  -5  -5  10    1.60    4.60
   4   5 -10   -0.50    5.00
  -4  -5  10   -3.10    4.30
  -4  -5  10   -1.80    3.90
  -4  -5  10   -0.70    4.60
   3   5 -10   14.00    5.10
  -3  -5  10    6.80    3.30
  -3  -5  10    9.40    4.60
  -3  -5  10    9.20    5.00
   2   5 -10   48.60    4.30
   2   5 -10   45.90    5.90
   2   5 -10   40.70    5.40
  -2  -5  10   38.60    7.00
  -2  -5  10   54.49    6.40
  -2  -5  10   59.59    5.20
   1   5 -10   54.29    6.10
   1   5 -10   36.50    6.00
   1   5 -10   45.80    4.40
  -1  -5  10   52.99    4.20
  -1  -5  10   43.90    6.70
  -1  -5  10   49.50    6.30
   0   5 -10   -3.10    4.40
   0   5 -10    5.90    4.50
   0   5 -10    1.90    2.90
   0  -5  10    2.50    3.70
   0  -5  10   -4.60    4.30
  -1   5 -10    6.50    4.40
  -1   5 -10   -5.60    4.40
  -1   5 -10   -0.40    3.00
   1  -5  10   -5.20    4.00
   1  -5  10    1.80    3.70
  -2   5 -10   14.70    5.50
  -2   5 -10   34.40    5.50
   2  -5  10   14.40    5.70
  -3   5 -10   36.70    6.60
  -3   5 -10   46.50    5.20
   3  -5  10   53.39    7.00
  -4   5 -10    1.50    4.10
   4  -5  10    4.70    5.70
   6   4 -10   28.20    4.40
   6   4 -10   37.70    6.10
  -6  -4  10   45.50    6.90
  -6  -4  10   19.10    7.20
   5   4 -10    7.30    5.10
  -5  -4  10   -1.80    4.40
  -5  -4  10    4.30    4.40
  -5  -4  10    3.10    4.40
   4   4 -10    8.70    4.80
  -4  -4  10    2.40    4.40
  -4  -4  10    2.10    4.00
  -4  -4  10    6.20    3.70
   3   4 -10    7.40    2.50
   3   4 -10   11.80    4.50
  -3  -4  10   12.70    3.30
  -3  -4  10   10.00    4.20
  -3  -4  10    9.70    3.40
   2   4 -10    0.20    2.80
   2   4 -10   -1.30    4.10
   2   4 -10    0.70    2.20
  -2  -4  10   -3.60    4.10
  -2  -4  10   -5.10    4.40
  -2  -4  10   -1.60    2.10
   1   4 -10   14.60    4.60
   1   4 -10   23.00    3.70
   1   4 -10   21.00    3.00
  -1  -4  10   22.40    3.90
  -1  -4  10   26.20    5.40
  -1  -4  10   18.10    2.30
   0   4 -10   83.99    6.60
   0   4 -10   75.19    6.40
   0   4 -10   85.69    5.60
   0  -4  10   68.89    6.80
   0  -4  10   79.29    6.00
   0  -4  10   82.99    3.90
   0  -4  10   87.69    3.60
  -1   4 -10   63.19    6.00
  -1   4 -10   52.79    6.10
  -1   4 -10   54.29    5.50
   1  -4  10   54.49    5.90
   1  -4  10   53.49    5.20
  -2   4 -10    0.30    3.20
  -2   4 -10   -0.40    3.50
   2  -4  10    1.20    4.10
  -3   4 -10   -1.20    3.40
  -3   4 -10    1.20    4.70
   3  -4  10    2.40    4.30
   3  -4  10    4.10    2.90
  -4   4 -10   25.10    5.10
   4  -4  10   35.80    4.90
   4  -4  10   32.10    5.60
  -5   4 -10   40.70    7.40
   5  -4  10   25.30    5.20
   5  -4  10   31.20    5.60
   7   3 -10   -8.30    4.90
   7   3 -10    4.20    5.00
  -7  -3  10   -0.90    6.50
  -7  -3  10    4.30    6.20
   6   3 -10   18.30    5.30
  -6  -3  10   18.20    5.30
  -6  -3  10   22.00    6.10
   5   3 -10   12.90    5.00
  -5  -3  10    8.80    4.50
  -5  -3  10   10.60    5.80
  -5  -3  10    9.70    4.80
   4   3 -10    8.70    4.30
  -4  -3  10   11.70    4.20
  -4  -3  10   14.50    3.50
  -4  -3  10    9.60    4.00
   3   3 -10   38.00    4.40
   3   3 -10   50.49    5.20
   3   3 -10   44.60    5.10
  -3  -3  10   50.79    5.20
  -3  -3  10   52.79    5.00
  -3  -3  10   44.90    3.40
  -3  -3  10   45.70    6.10
   2   3 -10   91.09    6.00
   2   3 -10   90.19    6.40
   2   3 -10  113.29    6.70
  -2  -3  10  109.69    8.60
  -2  -3  10   98.19    5.30
  -2  -3  10   92.39    5.90
   1   3 -10   14.30    4.00
   1   3 -10   19.30    3.90
   1   3 -10   19.90    3.00
  -1  -3  10   17.60    2.10
  -1  -3  10   21.40    4.60
  -1  -3  10   22.20    4.30
   0   3 -10    3.10    3.20
   0   3 -10    5.20    2.80
   0   3 -10    5.30    2.70
   0  -3  10    5.00    1.20
   0  -3  10    6.40    2.90
   0  -3  10    9.80    4.00
  -1   3 -10   61.59    5.40
  -1   3 -10   61.39    5.10
  -1   3 -10   60.39    5.40
   1  -3  10   50.49    5.40
   1  -3  10   54.09    5.20
  -2   3 -10  186.48    8.00
  -2   3 -10  180.88    9.20
  -2   3 -10  189.68    9.00
   2  -3  10  200.98    8.90
  -3   3 -10   25.70    3.60
  -3   3 -10   13.20    4.60
   3  -3  10   26.40    3.90
   3  -3  10   27.40    4.50
  -4   3 -10  -10.70    4.40
   4  -3  10    3.90    4.20
   4  -3  10    0.30    3.50
  -5   3 -10   14.20    5.90
   5  -3  10   21.20    4.40
   5  -3  10   17.20    4.90
  -6   3 -10   -1.40    6.10
  -6   3 -10    6.70    5.00
   6  -3  10    9.40    5.60
   6  -3  10    2.90    4.10
   7   2 -10    6.10    5.10
  -7  -2  10  -10.20    5.70
  -7  -2  10    3.90    6.60
   6   2 -10    7.50    5.00
  -6  -2  10   12.00    4.50
  -6  -2  10    9.10    5.70
   5   2 -10  120.09    8.00
  -5  -2  10   85.89    7.00
  -5  -2  10   84.29    7.80
  -5  -2  10   85.89    7.20
   4   2 -10    0.70    4.00
  -4  -2  10    4.80    3.60
  -4  -2  10    7.20    3.60
  -4  -2  10    6.00    4.00
   3   2 -10    0.10    3.50
   3   2 -10    0.50    1.90
   3   2 -10   -2.00    3.20
  -3  -2  10    1.10    3.00
  -3  -2  10    3.70    3.70
  -3  -2  10    0.30    2.10
   2   2 -10    3.90    2.20
   2   2 -10    8.90    3.00
   2   2 -10    4.00    2.50
   2   2 -10    7.40    3.40
  -2  -2  10    5.00    2.20
  -2  -2  10    2.70    3.50
  -2  -2  10    6.40    3.00
   1   2 -10  126.29    7.50
   1   2 -10  144.29    6.80
   1   2 -10  124.59    5.90
  -1  -2  10  137.49    5.60
  -1  -2  10  139.99    7.60
  -1  -2  10  134.89    7.00
   0   2 -10  189.68    8.80
   0   2 -10  184.38    8.20
   0   2 -10  177.88    7.10
   0  -2  10  185.08    6.20
   0  -2  10  188.58    8.10
   0  -2  10  180.58    8.70
  -1   2 -10   15.80    2.60
  -1   2 -10   15.10    3.00
  -1   2 -10   14.20    3.00
   1  -2  10   15.60    3.50
  -2   2 -10   11.30    2.70
  -2   2 -10    6.40    3.60
  -2   2 -10    5.60    3.00
   2  -2  10   12.40    3.40
   2  -2  10   11.30    2.70
  -3   2 -10  160.68    8.40
  -3   2 -10  161.88    6.80
   3  -2  10  150.28    7.20
   3  -2  10  166.98    7.40
   3  -2  10  159.48    6.80
  -4   2 -10   93.59    7.20
   4  -2  10  115.79    6.20
   4  -2  10   96.59    6.60
  -5   2 -10   42.40    5.60
   5  -2  10   50.09    4.70
   5  -2  10   53.79    6.40
  -6   2 -10    0.90    4.00
   6  -2  10    0.40    5.30
   6  -2  10   -3.50    3.00
   7   1 -10    3.90    5.20
  -7  -1  10   13.30    7.10
  -7  -1  10   -3.70    5.50
   6   1 -10    0.60    4.50
  -6  -1  10    6.40    5.70
  -6  -1  10   -0.40    5.10
   5   1 -10    2.60    4.20
  -5  -1  10   -0.80    3.30
  -5  -1  10   -2.60    4.50
  -5  -1  10    3.20    4.10
   4   1 -10   23.80    4.50
   4   1 -10   10.90    4.80
  -4  -1  10   25.90    4.60
  -4  -1  10   25.60    4.50
  -4  -1  10   20.40    4.70
   3   1 -10   29.30    3.20
   3   1 -10   32.20    3.70
   3   1 -10   23.60    4.50
  -3  -1  10   31.90    4.90
  -3  -1  10   25.20    4.40
  -3  -1  10   37.70    4.20
   2   1 -10   89.19    6.10
   2   1 -10   86.79    5.60
   2   1 -10   90.89    5.70
  -2  -1  10   79.99    5.90
  -2  -1  10   82.79    5.20
  -2  -1  10   94.59    7.20
   1   1 -10    1.40    2.20
   1   1 -10   -0.80    2.70
   1   1 -10    1.50    1.90
  -1  -1  10    0.80    3.20
  -1  -1  10    1.20    1.90
  -1  -1  10    2.60    2.20
   0   1 -10  133.79    6.70
   0   1 -10  120.99    6.10
   0   1 -10  134.19    6.00
   0  -1  10  115.59    5.70
   0  -1  10  129.19    7.60
   0  -1  10  130.39    5.20
  -1   1 -10  233.38    9.90
  -1   1 -10  244.98    8.60
  -1   1 -10  245.58   10.30
   1  -1  10  244.48    9.00
   1  -1  10  253.97    8.40
  -2   1 -10  273.77    9.20
  -2   1 -10  266.47   10.70
  -2   1 -10  283.67   11.30
   2  -1  10  273.57    9.70
   2  -1  10  269.97    9.20
  -3   1 -10   66.49    6.30
  -3   1 -10   58.19    4.00
  -3   1 -10   63.49    6.20
   3  -1  10   63.29    4.50
   3  -1  10   63.69    3.90
   3  -1  10   69.39    5.40
  -4   1 -10    0.40    1.20
  -4   1 -10   -0.30    2.70
   4  -1  10   -3.00    2.50
   4  -1  10    1.50    2.60
  -5   1 -10   51.89    6.30
   5  -1  10   59.59    4.60
   5  -1  10   55.09    6.40
  -6   1 -10   36.70    6.50
   6  -1  10   43.00    6.90
   6  -1  10   39.60    3.80
  -7   1 -10   10.30    4.90
   7  -1  10    0.50    6.00
   7   0 -10    5.20    5.30
  -7   0  10   -4.60    6.90
   6   0 -10   20.60    5.60
  -6   0  10   13.40    6.20
  -6   0  10    9.40    4.90
   5   0 -10   46.50    5.80
  -5   0  10   41.00    5.40
  -5   0  10   32.50    5.20
  -5   0  10   34.10    5.10
   4   0 -10   52.99    5.40
   4   0 -10   26.90    6.20
  -4   0  10   47.10    4.70
  -4   0  10   42.00    5.40
  -4   0  10   45.50    5.40
   3   0 -10    0.10    0.90
   3   0 -10   -1.00    3.40
   3   0 -10   -0.10    1.10
   3   0 -10    0.40    2.90
  -3   0  10   -0.60    3.50
  -3   0  10    3.70    3.30
  -3   0  10    3.20    3.70
   2   0 -10   33.60    4.40
   2   0 -10   36.10    4.00
  -2   0  10   40.30    4.60
  -2   0  10   43.70    4.50
  -2   0  10   37.90    4.40
   1   0 -10  230.18   10.20
   1   0 -10  254.47    8.50
   1   0 -10  236.48    8.80
   1   0 -10  238.58    9.30
  -1   0  10  239.98    9.20
  -1   0  10  241.68    8.90
  -1   0  10  218.88   10.40
   0   0 -10  120.59    5.90
   0   0 -10  113.69    4.60
   0   0 -10  110.69    5.90
   0   0 -10  107.99    5.30
   0   0  10  123.89    5.60
   0   0  10  108.89    5.80
   0   0  10  114.99    5.20
  -1   0 -10   24.30    3.00
  -1   0 -10   27.30    1.90
  -1   0 -10   24.80    2.80
  -1   0 -10   24.20    2.70
   1   0  10   24.00    3.20
   1   0  10   28.60    2.80
  -2   0 -10  120.09    6.90
  -2   0 -10  114.59    4.10
  -2   0 -10  119.99    4.90
  -2   0 -10  109.09    6.20
   2   0  10  109.69    5.30
   2   0  10  112.89    4.90
  -3   0 -10  127.69    7.80
  -3   0 -10  136.39    6.90
  -3   0 -10  141.59    5.20
  -3   0 -10  131.79    5.20
   3   0  10  118.59    6.80
   3   0  10  137.19    5.40
   3   0  10  136.69    5.80
  -4   0 -10   27.90    3.80
  -4   0 -10   32.60    2.70
  -4   0 -10   30.00    4.60
   4   0  10   35.50    3.10
   4   0  10   36.70    3.20
   4   0  10   33.10    4.20
  -5   0 -10   24.80    4.90
  -5   0 -10   23.80    4.30
  -5   0 -10   38.60    3.70
   5   0  10   42.90    5.90
   5   0  10   32.10    2.70
  -6   0 -10    1.10    4.50
   6   0  10   -2.60    5.30
  -7   0 -10   28.70    6.50
   7   0  10   21.60    7.10
   6  -1 -10    0.20    5.50
  -6   1  10    2.90    4.00
  -6   1  10   -1.70    4.40
   5  -1 -10   14.40    5.20
  -5   1  10   14.30    4.70
  -5   1  10   18.20    4.80
  -5   1  10   13.80    4.40
   4  -1 -10  112.29    7.60
  -4   1  10  109.19    7.80
  -4   1  10  104.39    8.80
  -4   1  10   94.89    6.30
   3  -1 -10    1.70    4.60
   3  -1 -10   -0.70    3.50
   3  -1 -10    0.10    1.40
  -3   1  10    0.90    3.50
  -3   1  10   -1.40    3.50
  -3   1  10    0.60    2.80
   2  -1 -10    7.60    3.70
   2  -1 -10   11.00    3.30
   2  -1 -10   11.00    1.90
  -2   1  10   13.90    3.80
  -2   1  10   10.20    3.30
   1  -1 -10   42.30    3.90
   1  -1 -10   46.90    5.30
  -1   1  10   38.70    3.90
  -1   1  10   43.90    3.80
   0  -1 -10  105.69    5.00
   0  -1 -10  108.69    5.20
   0  -1 -10  104.79    5.20
   0  -1 -10  104.49    5.90
   0   1  10  109.09    5.00
   0   1  10  111.39    5.50
   0   1  10   95.49    5.00
   0   1  10  112.49    5.90
  -1  -1 -10  116.69    6.10
  -1  -1 -10  109.09    5.30
  -1  -1 -10  114.49    5.00
  -1  -1 -10  121.69    5.10
   1   1  10  118.09    4.70
   1   1  10  108.09    5.40
   1   1  10  107.89    4.50
   1   1  10  118.29    5.50
  -2  -1 -10  209.68    7.10
  -2  -1 -10  220.48    8.30
  -2  -1 -10  201.38    7.50
  -2  -1 -10  205.58    9.40
   2   1  10  194.68    7.40
   2   1  10  204.98    7.00
   2   1  10  201.98    7.00
  -3  -1 -10    1.10    1.90
  -3  -1 -10    3.50    2.30
  -3  -1 -10    0.40    2.40
  -3  -1 -10    0.00    1.50
   3   1  10   -0.60    1.70
   3   1  10    1.10    2.10
   3   1  10    3.20    2.30
   3   1  10   -0.70    3.20
  -4  -1 -10  108.39    6.90
  -4  -1 -10  123.19    7.10
   4   1  10  109.19    4.30
   4   1  10  127.29    7.60
   4   1  10  112.49    5.10
   4   1  10  121.99    4.80
  -5  -1 -10   28.50    3.90
  -5  -1 -10   28.60    4.90
  -5  -1 -10   28.30    3.10
   5   1  10   30.10    2.00
   5   1  10   32.30    3.50
   5   1  10   26.80    4.50
  -6  -1 -10   28.00    3.70
  -6  -1 -10   26.00    5.20
  -6  -1 -10   29.50    5.60
   6   1  10   22.50    6.00
  -7  -1 -10   -4.80    4.90
  -7  -1 -10   -0.50    4.80
   7   1  10    0.70    6.00
  -6   2  10   16.80    7.30
   5  -2 -10    5.00    5.30
  -5   2  10  -10.90    5.30
  -5   2  10    1.60    4.80
   4  -2 -10   -4.00    4.40
  -4   2  10   -3.40    4.70
  -4   2  10   -1.00    3.20
   3  -2 -10   65.79    5.20
   3  -2 -10   55.29    6.50
   3  -2 -10   64.39    6.10
  -3   2  10   74.19    6.70
  -3   2  10   64.89    6.20
   2  -2 -10   81.89    7.80
   2  -2 -10   89.79    5.20
   2  -2 -10   84.19    5.90
  -2   2  10  102.29    7.20
  -2   2  10   86.39    5.50
   1  -2 -10  150.58    8.20
   1  -2 -10  136.99    7.80
   1  -2 -10  146.69    6.80
  -1   2  10  159.18    7.30
  -1   2  10  151.28    8.00
  -1   2  10  147.19    4.80
  -1   2  10  161.28    7.50
   0  -2 -10    9.80    2.20
   0  -2 -10    6.60    2.40
   0  -2 -10    5.70    2.50
   0   2  10    7.30    3.10
   0   2  10    6.10    1.60
   0   2  10    6.60    2.10
   0   2  10    5.70    2.30
  -1  -2 -10   15.50    2.20
  -1  -2 -10   22.20    3.60
  -1  -2 -10   18.10    2.60
  -1  -2 -10   15.60    2.80
   1   2  10   20.90    3.20
   1   2  10   20.70    2.30
   1   2  10   18.30    2.50
   1   2  10   18.20    2.20
  -2  -2 -10  125.89    6.70
  -2  -2 -10  129.99    5.30
  -2  -2 -10  124.89    5.60
  -2  -2 -10  121.59    6.30
   2   2  10  115.69    4.80
   2   2  10  128.29    5.60
   2   2  10  125.69    5.30
   2   2  10  125.99    5.20
  -3  -2 -10   53.89    4.70
  -3  -2 -10   49.99    4.20
  -3  -2 -10   56.39    3.10
   3   2  10   59.29    3.20
   3   2  10   61.19    3.80
   3   2  10   57.89    4.00
  -4  -2 -10   66.59    6.40
  -4  -2 -10   64.59    5.50
   4   2  10   61.69    3.10
   4   2  10   59.09    3.40
   4   2  10   62.39    4.50
   4   2  10   57.09    6.30
  -5  -2 -10    7.20    3.30
  -5  -2 -10    6.40    3.20
   5   2  10   12.40    5.30
   5   2  10    8.00    2.70
  -6  -2 -10   15.50    4.20
  -6  -2 -10   23.20    5.10
  -6  -2 -10   18.90    3.30
   6   2  10   17.30    4.90
   6   2  10   21.70    4.30
  -7  -2 -10   28.50    5.80
  -7  -2 -10   32.50    5.80
   7   2  10   41.40    5.40
   7   2  10   28.30    5.90
   6  -3 -10   -0.80    6.10
  -6   3  10   -3.10    5.10
   5  -3 -10   28.40    5.10
  -5   3  10   43.80    6.50
  -5   3  10   31.70    6.00
   4  -3 -10   39.40    6.10
  -4   3  10   26.60    5.20
  -4   3  10   34.70    5.90
   3  -3 -10    3.60    4.20
   3  -3 -10    5.20    2.90
   3  -3 -10    7.70    3.40
  -3   3  10    3.30    3.60
  -3   3  10    0.70    4.40
   2  -3 -10    8.00    2.70
   2  -3 -10   14.20    4.20
   2  -3 -10    7.40    3.70
  -2   3  10   15.10    4.50
  -2   3  10    8.70    4.30
   1  -3 -10   10.50    2.80
   1  -3 -10   11.30    3.30
   1  -3 -10   12.20    3.50
  -1   3  10   14.70    4.00
  -1   3  10    8.10    2.50
  -1   3  10    9.40    1.60
  -1   3  10   11.40    4.00
   0  -3 -10  101.69    5.70
   0  -3 -10  103.39    6.50
   0  -3 -10  104.59    7.60
   0   3  10   97.29    7.40
   0   3  10  109.69    5.00
   0   3  10   98.49    4.10
   0   3  10  100.69    6.20
  -1  -3 -10  116.79    8.30
  -1  -3 -10  115.49    4.60
  -1  -3 -10  117.79    6.70
  -1  -3 -10  114.09    5.50
   1   3  10  110.29    4.60
   1   3  10  114.19    6.10
   1   3  10  117.69    4.70
   1   3  10  107.09    5.30
  -2  -3 -10   12.00    2.90
  -2  -3 -10   14.40    3.50
  -2  -3 -10   14.90    1.90
  -2  -3 -10   15.20    2.70
   2   3  10   18.10    2.50
   2   3  10   12.90    2.60
   2   3  10   14.60    3.20
  -3  -3 -10  130.09    7.60
  -3  -3 -10  121.99    5.50
  -3  -3 -10  119.29    9.50
   3   3  10  124.19    5.60
   3   3  10  121.39    5.30
   3   3  10  126.79    5.00
  -4  -3 -10   81.09    5.20
  -4  -3 -10   75.09    5.80
   4   3  10   80.89    4.10
   4   3  10   76.19    5.00
   4   3  10   77.49    3.50
   4   3  10   80.99    6.90
  -5  -3 -10   24.90    4.00
  -5  -3 -10   19.80    3.70
   5   3  10   21.10    3.30
   5   3  10   28.40    4.70
  -6  -3 -10   35.40    4.70
  -6  -3 -10   35.10    5.50
  -6  -3 -10   37.20    6.60
   6   3  10   51.49    6.50
   6   3  10   37.20    4.20
  -7  -3 -10   -4.00    3.80
  -7  -3 -10    3.80    5.30
  -7  -3 -10    1.40    4.50
  -7  -3 -10    2.90    3.50
   7   3  10    3.90    4.20
   7   3  10    3.20    6.10
   5  -4 -10    8.30    6.30
  -5   4  10   15.80    7.40
  -5   4  10   19.20    6.20
   4  -4 -10    8.10    4.20
  -4   4  10    0.40    5.80
  -4   4  10    0.70    5.30
   3  -4 -10   26.40    4.80
   3  -4 -10   37.20    6.00
   3  -4 -10   23.30    5.50
  -3   4  10   35.50    6.40
  -3   4  10   56.69    6.70
   2  -4 -10   -5.40    4.60
   2  -4 -10    0.90    3.20
  -2   4  10   -2.90    3.30
  -2   4  10   -0.70    4.60
   1  -4 -10   17.10    3.70
   1  -4 -10    7.60    4.50
  -1   4  10   13.20    2.00
  -1   4  10    9.20    3.60
  -1   4  10   13.80    4.60
  -1   4  10   13.10    2.50
   0  -4 -10    2.70    2.80
   0  -4 -10    4.00    3.20
   0   4  10    0.20    1.30
   0   4  10    0.70    3.80
   0   4  10    0.60    1.70
  -1  -4 -10   44.70    4.20
  -1  -4 -10   31.50    4.80
  -1  -4 -10   37.00    4.80
   1   4  10   41.80    4.10
   1   4  10   39.90    2.80
  -2  -4 -10   25.30    4.20
  -2  -4 -10   18.10    4.50
  -2  -4 -10   22.50    3.20
   2   4  10   19.70    3.10
   2   4  10   27.00    3.80
   2   4  10   24.60    3.00
  -3  -4 -10  237.18   10.90
  -3  -4 -10  217.88    7.70
  -3  -4 -10  227.18    8.20
  -3  -4 -10  251.07   14.10
   3   4  10  222.68    8.70
   3   4  10  225.78    8.40
  -4  -4 -10    2.00    4.20
  -4  -4 -10    0.10    3.40
  -4  -4 -10    0.60    1.90
   4   4  10   -1.40    2.30
   4   4  10    0.00    2.30
  -5  -4 -10   15.10    4.20
  -5  -4 -10   14.90    3.10
  -5  -4 -10   12.20    4.20
   5   4  10   18.30    1.50
   5   4  10   11.70    5.60
   5   4  10   16.50    4.10
  -6  -4 -10    3.10    5.10
  -6  -4 -10   -5.80    3.80
  -6  -4 -10    0.70    3.00
   6   4  10    2.50    4.10
   6   4  10    3.80    4.10
  -7  -4 -10   11.80    4.90
  -7  -4 -10    5.50    5.90
   7   4  10   17.50    4.00
   7   4  10   18.10    7.20
   4  -5 -10    6.10    6.30
  -4   5  10   -0.80    4.70
  -4   5  10    9.10    4.80
   3  -5 -10   -0.60    4.00
   3  -5 -10    2.30    5.60
  -3   5  10  -10.00    5.30
  -3   5  10   -0.60    5.60
   2  -5 -10    9.70    4.70
   2  -5 -10   12.10    4.20
   2  -5 -10    6.20    4.00
  -2   5  10   13.40    5.60
  -2   5  10   12.80    5.60
   1  -5 -10    9.70    4.70
   1  -5 -10    3.00    3.80
   1  -5 -10    1.90    4.80
  -1   5  10    9.40    2.20
  -1   5  10   10.50    5.10
  -1   5  10    3.90    5.00
   0  -5 -10   31.10    5.30
   0  -5 -10   47.30    4.60
   0  -5 -10   37.10    4.90
   0   5  10   51.19    6.00
   0   5  10   40.10    3.30
  -1  -5 -10    6.70    3.50
  -1  -5 -10    8.20    3.30
  -1  -5 -10    8.70    4.30
   1   5  10    7.70    2.70
   1   5  10    5.10    4.20
  -2  -5 -10   -1.20    3.50
  -2  -5 -10    0.40    2.80
  -2  -5 -10   -2.10    4.00
   2   5  10    0.20    2.80
   2   5  10    1.10    3.50
  -3  -5 -10   17.40    4.20
  -3  -5 -10   26.00    5.50
   3   5  10   22.90    3.90
   3   5  10   25.50    4.20
  -4  -5 -10   10.40    4.10
  -4  -5 -10   15.90    4.20
   4   5  10   20.70    3.60
   4   5  10   15.90    3.30
  -5  -5 -10    5.50    5.30
  -5  -5 -10    6.80    4.00
   5   5  10    7.10    3.20
   5   5  10    5.00    2.20
  -6  -5 -10    1.10    4.30
  -6  -5 -10   -2.00    5.30
   6   5  10   -3.50    5.70
   6   5  10    5.70    3.60
   7   5  10    2.90    4.90
   4  -6 -10    8.60    6.90
  -4   6  10    9.10    7.20
  -4   6  10    5.50    7.30
   3  -6 -10   -0.20    6.10
   3  -6 -10   -5.20    4.70
  -3   6  10   -1.30    6.40
  -3   6  10   -3.30    4.70
   2  -6 -10    3.00    4.30
   2  -6 -10   -5.10    4.50
  -2   6  10    2.00    6.10
  -2   6  10   -3.90    5.80
   1  -6 -10   -3.10    3.90
   1  -6 -10   -3.20    5.10
   1  -6 -10    7.80    4.00
  -1   6  10   -0.30    5.70
  -1   6  10    1.60    2.40
   0  -6 -10    5.30    5.00
   0  -6 -10    5.80    4.90
   0  -6 -10    8.30    4.80
   0   6  10   15.40    5.70
   0   6  10    9.30    2.80
  -1  -6 -10   12.20    5.20
  -1  -6 -10   16.80    4.40
  -1  -6 -10   11.40    4.80
   1   6  10   21.00    5.40
   1   6  10   14.70    3.30
  -2  -6 -10    2.10    3.10
  -2  -6 -10    1.20    3.40
  -2  -6 -10    7.00    3.90
   2   6  10   11.40    3.50
   2   6  10    8.20    4.60
  -3  -6 -10   22.00    4.70
  -3  -6 -10   21.70    4.90
   3   6  10   34.20    4.80
   3   6  10   34.20    4.70
  -4  -6 -10   13.60    4.60
  -4  -6 -10   14.70    6.00
   4   6  10   16.40    4.10
   4   6  10   11.20    3.50
  -5  -6 -10    4.10    5.60
  -5  -6 -10    0.30    3.70
   5   6  10   -1.00    3.30
   5   6  10    1.10    2.90
  -6  -6 -10    6.40    4.60
  -6  -6 -10   -2.20    5.80
   6   6  10    4.50    3.80
   2  -7 -10    7.00    6.60
   2  -7 -10   -1.50    5.50
  -2   7  10   27.70    7.70
   1  -7 -10    8.90    5.90
   1  -7 -10    2.60    5.90
   1  -7 -10    3.00    5.80
  -1   7  10   -1.30    6.40
  -1   7  10    5.20    2.70
   0  -7 -10   10.40    5.70
   0  -7 -10   16.10    5.60
   0  -7 -10    5.40    5.50
   0   7  10   14.90    6.60
   0   7  10   19.10    3.50
  -1  -7 -10    7.40    4.80
  -1  -7 -10    0.10    5.60
  -1  -7 -10   -2.90    4.80
   1   7  10   11.80    6.00
   1   7  10    1.20    3.10
  -2  -7 -10    4.50    4.30
  -2  -7 -10   -2.40    4.40
   2   7  10    4.60    4.00
   2   7  10   -2.60    5.00
  -3  -7 -10    8.60    4.90
  -3  -7 -10   10.40    5.00
   3   7  10    7.10    4.40
   3   7  10   14.20    4.90
  -4  -7 -10    2.40    5.90
  -4  -7 -10    5.40    4.30
   4   7  10    8.70    4.30
   4   7  10    2.70    5.00
  -5  -7 -10    1.80    6.30
   5   7  10    3.70    5.20
   5   7  10    5.50    3.90
   1  -8 -10   -6.70    6.00
   1  -8 -10   -0.50    4.70
  -1   8  10   -4.10    7.30
   0  -8 -10    1.90    5.90
   0  -8 -10   -3.50    5.60
   0  -8 -10   -4.10    6.30
   0   8  10    6.00    5.30
   0   8  10   -0.30    3.70
  -1  -8 -10   -0.40    6.20
  -1  -8 -10   -4.90    5.10
   1   8  10    4.30    6.60
   1   8  10    1.40    3.70
  -2  -8 -10   -2.30    4.80
  -2  -8 -10   -1.80    6.40
   2   8  10    6.20    5.90
   2   8  10    0.50    4.40
  -3  -8 -10    5.40    6.80
  -3  -8 -10   -7.10    4.20
   3   8  10    2.40    4.70
   3   8  10   -6.80    5.80
  -4  -8 -10    1.40    5.10
   4   8  10    2.40    5.30
   4   8  10   -4.00    5.30
   4   7 -11    3.80    7.00
  -4  -7  11    1.50    4.60
  -4  -7  11  -10.80    7.90
   3   7 -11    9.10    7.00
  -3  -7  11    0.80    4.70
  -3  -7  11  -17.20    7.40
   2   7 -11    1.60    6.20
   2   7 -11   18.90    5.70
  -2  -7  11   13.80    5.50
  -2  -7  11   10.80    6.00
   1   7 -11    5.10    6.60
   1   7 -11   -1.40    5.90
  -1  -7  11   -9.70    6.70
  -1  -7  11    5.50    6.90
   0   7 -11    7.30    5.10
   0   7 -11    2.60    4.60
   0  -7  11    8.10    7.20
   0  -7  11  -16.50    5.90
  -1   7 -11    0.50    6.20
  -1   7 -11   -5.80    5.60
   1  -7  11   -3.50    7.20
  -2   7 -11   -1.40    4.60
  -2   7 -11    3.20    5.00
   2  -7  11    1.60    7.30
   5   6 -11   -6.00    4.30
  -5  -6  11    0.50    4.70
  -5  -6  11   -4.40    5.60
   4   6 -11    7.80    6.20
  -4  -6  11   -4.40    7.30
  -4  -6  11   -4.40    3.90
  -4  -6  11    8.00    4.40
   3   6 -11    4.00    4.30
  -3  -6  11    2.80    3.60
  -3  -6  11    4.30    5.90
  -3  -6  11  -15.10    6.60
   2   6 -11    7.20    4.40
   2   6 -11   -4.50    5.50
  -2  -6  11   -4.90    5.80
  -2  -6  11    1.70    4.90
  -2  -6  11    6.60    3.20
   1   6 -11    2.50    5.60
   1   6 -11   11.20    5.90
  -1  -6  11   11.00    4.80
  -1  -6  11   -5.20    6.20
   0   6 -11   16.20    3.70
   0   6 -11   18.50    4.80
   0   6 -11   13.80    4.70
   0  -6  11   10.50    6.40
   0  -6  11   25.00    6.70
  -1   6 -11   12.30    5.90
  -1   6 -11    3.30    5.60
  -1   6 -11    4.20    3.60
   1  -6  11   15.90    5.20
   1  -6  11    2.10    5.20
  -2   6 -11    4.00    5.80
  -2   6 -11    2.90    5.40
   2  -6  11    5.90    6.60
  -3   6 -11   -6.00    5.90
   3  -6  11   -6.40    6.50
   6   5 -11    1.00    5.80
  -6  -5  11   -1.70    5.50
  -6  -5  11   -6.20    5.20
   5   5 -11   -3.40    5.50
  -5  -5  11    7.10    7.20
  -5  -5  11    0.00    4.50
   4   5 -11    8.40    5.50
  -4  -5  11    5.70    5.20
  -4  -5  11    3.40    5.00
  -4  -5  11   -0.60    4.00
   3   5 -11   12.40    4.20
  -3  -5  11   17.80    4.10
  -3  -5  11   17.70    5.30
  -3  -5  11   16.40    5.50
   2   5 -11   23.50    4.50
   2   5 -11   19.60    5.80
  -2  -5  11   17.10    3.30
  -2  -5  11   21.10    6.60
  -2  -5  11   23.90    5.80
   1   5 -11   15.40    4.30
   1   5 -11   30.50    5.70
   1   5 -11   19.80    3.20
  -1  -5  11   17.20    2.60
  -1  -5  11    9.60    5.90
  -1  -5  11   24.90    6.00
   0   5 -11   -2.60    3.50
   0   5 -11   -1.80    2.70
   0   5 -11   -0.30    4.60
   0  -5  11   -4.80    3.60
   0  -5  11   -4.60    4.80
  -1   5 -11   28.70    4.30
  -1   5 -11   32.20    5.50
  -1   5 -11   35.60    6.20
   1  -5  11   33.00    5.30
   1  -5  11   19.50    5.30
  -2   5 -11   10.00    4.40
  -2   5 -11   12.30    4.80
  -2   5 -11   10.60    4.20
   2  -5  11    6.90    5.70
  -3   5 -11   17.90    6.00
   3  -5  11   15.40    4.80
  -4   5 -11    1.00    6.10
   4  -5  11    0.20    5.70
   6   4 -11   19.20    4.10
   6   4 -11   20.10    6.20
  -6  -4  11   24.90    6.20
  -6  -4  11   20.00    6.20
   5   4 -11   -2.10    5.10
  -5  -4  11    4.90    4.80
  -5  -4  11   -1.20    6.00
  -5  -4  11    2.20    4.90
   4   4 -11   10.00    5.20
  -4  -4  11    6.40    4.00
  -4  -4  11   14.50    5.00
  -4  -4  11    4.40    4.80
   3   4 -11    0.40    2.70
   3   4 -11    3.10    3.40
  -3  -4  11    1.30    4.00
  -3  -4  11    2.50    4.60
  -3  -4  11    7.70    3.20
   2   4 -11    4.80    3.40
   2   4 -11    3.30    4.30
   2   4 -11    2.60    2.70
  -2  -4  11    5.40    3.50
  -2  -4  11    2.00    3.80
  -2  -4  11    5.50    2.80
   1   4 -11   57.89    5.30
   1   4 -11   60.89    5.10
   1   4 -11   49.00    6.00
  -1  -4  11   44.70    6.50
  -1  -4  11   55.79    3.80
  -1  -4  11   61.49    5.80
   0   4 -11   38.20    4.90
   0   4 -11   32.90    4.20
   0   4 -11   48.50    5.40
   0  -4  11   51.19    5.20
   0  -4  11   40.50    2.50
   0  -4  11   34.80    5.00
  -1   4 -11   18.90    4.20
  -1   4 -11   15.10    3.80
  -1   4 -11   22.40    4.50
   1  -4  11   18.00    4.00
   1  -4  11   15.30    3.80
  -2   4 -11   11.60    3.30
  -2   4 -11   15.70    5.30
  -2   4 -11   10.90    4.10
   2  -4  11    9.10    4.90
  -3   4 -11   22.00    4.20
  -3   4 -11   20.70    5.70
   3  -4  11   25.70    5.60
  -4   4 -11   59.89    7.60
   4  -4  11   45.30    5.50
   4  -4  11   60.19    6.70
  -5   4 -11    8.90    4.90
   5  -4  11    8.20    5.50
   5  -4  11   12.60    4.90
   6   3 -11   -2.40    5.00
  -6  -3  11   -2.50    6.40
  -6  -3  11    4.80    5.70
   5   3 -11    1.80    3.70
  -5  -3  11    3.70    4.80
  -5  -3  11    3.90    3.40
  -5  -3  11    0.00    5.80
   4   3 -11    3.40    3.50
  -4  -3  11    6.20    3.40
  -4  -3  11    3.20    5.20
  -4  -3  11    0.30    3.80
   3   3 -11   64.39    6.00
   3   3 -11   44.60    5.00
  -3  -3  11   40.50    6.20
  -3  -3  11   58.89    5.40
  -3  -3  11   54.89    5.40
   2   3 -11   36.30    4.10
   2   3 -11   40.50    4.20
   2   3 -11   46.20    4.90
  -2  -3  11   42.40    6.00
  -2  -3  11   46.30    4.10
  -2  -3  11   45.70    5.40
   1   3 -11   -0.50    2.30
   1   3 -11   -0.90    2.50
   1   3 -11   -2.40    2.70
  -1  -3  11    5.30    3.10
  -1  -3  11    4.60    1.80
  -1  -3  11    2.30    3.30
   0   3 -11   79.79    6.10
   0   3 -11   80.59    5.70
   0   3 -11   84.09    6.30
   0  -3  11   83.99    5.80
   0  -3  11   88.69    3.40
   0  -3  11   84.19    6.80
  -1   3 -11  154.88    8.20
  -1   3 -11  153.98    9.30
  -1   3 -11  152.78    7.50
   1  -3  11  140.79    7.30
   1  -3  11  163.98    9.50
  -2   3 -11  110.99    8.50
  -2   3 -11  102.19    6.20
  -2   3 -11  112.69    7.80
   2  -3  11  116.99    7.40
  -3   3 -11   31.00    4.10
  -3   3 -11   27.20    4.60
   3  -3  11   36.30    4.80
   3  -3  11   36.40    4.30
  -4   3 -11    8.20    5.20
   4  -3  11    8.30    4.40
   4  -3  11    8.50    4.10
  -5   3 -11   23.40    6.40
   5  -3  11   28.10    5.00
   5  -3  11   29.70    5.60
   6   2 -11   23.80    5.80
  -6  -2  11   18.50    6.10
  -6  -2  11    7.60    4.80
   5   2 -11    2.60    3.60
  -5  -2  11   -2.00    5.20
  -5  -2  11   -3.50    4.60
  -5  -2  11   -3.10    3.00
   4   2 -11   13.00    4.30
   4   2 -11   16.00    3.70
  -4  -2  11   14.00    4.20
  -4  -2  11   17.90    3.80
  -4  -2  11   14.80    3.50
   3   2 -11   -2.30    3.50
   3   2 -11   -3.20    3.80
  -3  -2  11   -5.80    2.60
  -3  -2  11    2.20    3.00
  -3  -2  11   -2.00    3.00
   2   2 -11   74.29    6.00
   2   2 -11   70.49    6.70
   2   2 -11   86.19    6.10
  -2  -2  11   77.69    6.50
  -2  -2  11   68.69    4.90
  -2  -2  11   77.09    6.50
   1   2 -11   95.29    6.20
   1   2 -11   99.39    6.20
   1   2 -11  100.89    6.30
  -1  -2  11  106.89    6.00
  -1  -2  11  105.29    5.10
  -1  -2  11  106.69    8.10
   0   2 -11  291.77   10.70
   0   2 -11  303.97   12.10
   0   2 -11  309.97   12.30
   0  -2  11  295.37   11.20
   0  -2  11  303.57   13.10
   0  -2  11  292.77    9.50
  -1   2 -11    3.40    3.00
  -1   2 -11    4.40    2.30
  -1   2 -11    3.50    3.50
   1  -2  11    0.70    3.40
  -2   2 -11   27.10    3.90
  -2   2 -11   32.90    3.70
  -2   2 -11   30.60    4.30
   2  -2  11   33.70    3.70
   2  -2  11   36.80    4.30
  -3   2 -11   56.79    4.40
  -3   2 -11   70.19    7.00
  -3   2 -11   61.99    5.90
   3  -2  11   61.29    5.50
   3  -2  11   62.19    5.30
  -4   2 -11  116.99    8.20
   4  -2  11  133.39    7.70
   4  -2  11  122.59    6.80
  -5   2 -11   25.40    5.00
   5  -2  11   24.20    5.50
   5  -2  11   25.60    4.10
  -6   2 -11   17.70    6.30
   6  -2  11    9.80    3.60
   6  -2  11    7.80    6.00
   6   1 -11   -4.20    4.70
  -6  -1  11   -2.50    5.70
  -6  -1  11   -8.80    4.70
   5   1 -11    9.50    5.00
  -5  -1  11   17.00    4.30
  -5  -1  11   14.80    4.70
  -5  -1  11   10.30    5.20
   4   1 -11   -4.80    4.10
   4   1 -11    2.70    4.30
  -4  -1  11    6.00    4.30
  -4  -1  11    8.10    3.70
  -4  -1  11    6.00    4.00
   3   1 -11   61.49    6.10
   3   1 -11   61.19    6.90
  -3  -1  11   72.29    6.50
  -3  -1  11   67.79    6.30
  -3  -1  11   65.89    6.20
   2   1 -11    7.30    2.30
   2   1 -11   10.50    2.80
   2   1 -11   11.60    3.60
  -2  -1  11   11.60    2.90
  -2  -1  11    8.40    3.20
  -2  -1  11   14.20    4.10
   1   1 -11    1.30    3.10
   1   1 -11    4.30    3.10
   1   1 -11    0.50    2.70
  -1  -1  11    2.80    2.70
  -1  -1  11   -0.50    2.40
  -1  -1  11    1.50    1.90
   0   1 -11  105.09    5.80
   0   1 -11   94.49    5.00
   0   1 -11  101.09    6.30
   0  -1  11  103.59    4.80
   0  -1  11   97.69    6.10
  -1   1 -11  435.16   16.10
  -1   1 -11  432.16   15.10
  -1   1 -11  430.06   13.50
   1  -1  11  435.46   13.50
   1  -1  11  426.06   13.80
  -2   1 -11   49.99    4.80
  -2   1 -11   63.79    5.00
  -2   1 -11   53.99    4.00
   2  -1  11   61.29    4.90
   2  -1  11   56.69    4.10
  -3   1 -11   11.60    2.40
  -3   1 -11    6.80    3.70
  -3   1 -11    1.20    3.60
   3  -1  11    6.60    3.20
   3  -1  11    6.20    2.60
   3  -1  11    4.80    2.80
  -4   1 -11    6.60    3.20
  -4   1 -11    9.90    3.50
   4  -1  11   10.20    3.20
   4  -1  11   -4.10    3.90
  -5   1 -11   68.39    7.10
   5  -1  11   70.79    5.10
   5  -1  11   74.19    6.20
  -6   1 -11   21.30    6.00
   6  -1  11   12.20    6.00
   6  -1  11   22.70    3.00
   6   0 -11    0.90    4.00
  -6   0  11   -2.90    4.70
  -6   0  11    5.10    6.00
   5   0 -11   13.10    5.30
  -5   0  11   13.10    5.10
  -5   0  11    4.80    4.60
  -5   0  11    6.40    5.30
   4   0 -11    4.70    4.40
   4   0 -11   10.70    5.60
  -4   0  11    6.20    4.30
  -4   0  11    7.10    3.40
  -4   0  11    9.50    4.50
   3   0 -11   44.70    3.40
   3   0 -11   42.50    5.30
   3   0 -11   44.90    3.10
   3   0 -11   43.10    5.10
  -3   0  11   35.80    4.60
  -3   0  11   46.80    4.90
  -3   0  11   43.40    5.20
   2   0 -11  157.88    9.10
   2   0 -11  160.08    7.70
  -2   0  11  170.78    7.90
  -2   0  11  157.88    8.40
  -2   0  11  171.08    8.20
   1   0 -11   89.69    5.80
   1   0 -11   89.19    6.40
   1   0 -11   92.49    4.90
  -1   0  11   90.19    5.30
  -1   0  11   86.49    5.30
   0   0 -11   50.39    4.60
   0   0 -11   48.20    3.60
   0   0 -11   49.99    4.30
   0   0 -11   54.29    3.10
   0   0  11   44.20    4.30
   0   0  11   45.80    4.20
  -1   0 -11    7.20    2.50
  -1   0 -11    8.80    1.30
  -1   0 -11    5.70    3.00
  -1   0 -11    4.90    2.60
   1   0  11    8.30    2.40
   1   0  11   11.20    3.10
  -2   0 -11   75.19    3.00
  -2   0 -11   79.59    5.60
  -2   0 -11   77.19    4.20
  -2   0 -11   72.49    5.30
   2   0  11   80.19    5.30
   2   0  11   76.49    4.30
  -3   0 -11  211.58    7.20
  -3   0 -11  222.28   10.70
  -3   0 -11  222.18    7.70
  -3   0 -11  228.98   10.00
   3   0  11  220.98    8.80
   3   0  11  232.48    8.20
   3   0  11  216.88    7.80
  -4   0 -11   10.50    4.20
  -4   0 -11   23.30    2.40
  -4   0 -11   15.80    4.20
   4   0  11   21.80    3.00
   4   0  11   19.80    5.00
  -5   0 -11   -0.20    3.00
  -5   0 -11    3.30    3.40
   5   0  11    2.50    2.10
   5   0  11   -3.50    4.50
  -6   0 -11   42.30    6.50
  -6   0 -11   28.40    5.10
   6   0  11   48.10    7.30
  -7   0 -11    4.00    5.70
  -7   0 -11    4.90    5.90
   7   0  11   11.80    7.00
   6  -1 -11   23.00    5.20
  -6   1  11   19.40    5.20
  -6   1  11    9.30    5.20
   5  -1 -11   24.20    4.70
  -5   1  11   23.80    5.40
  -5   1  11   32.30    5.20
  -5   1  11   24.00    5.00
   4  -1 -11   35.90    4.70
   4  -1 -11   25.30    6.70
  -4   1  11   39.70    5.50
  -4   1  11   34.20    5.80
  -4   1  11   25.10    4.90
   3  -1 -11   70.59    4.60
   3  -1 -11   71.79    6.50
   3  -1 -11   68.09    7.40
  -3   1  11   74.89    6.10
  -3   1  11   80.39    5.80
   2  -1 -11    9.00    2.90
   2  -1 -11    5.30    2.00
   2  -1 -11    2.40    2.90
  -2   1  11   10.20    3.20
  -2   1  11    6.80    3.30
   1  -1 -11   63.79    5.00
   1  -1 -11   60.69    6.10
  -1   1  11   57.59    5.30
  -1   1  11   62.19    4.60
   0  -1 -11  285.67   12.00
   0  -1 -11  271.97   10.10
   0  -1 -11  280.47    9.80
   0  -1 -11  267.57    9.50
   0   1  11  292.77   10.80
   0   1  11  273.47    9.80
  -1  -1 -11  219.08    8.80
  -1  -1 -11  228.68    8.00
  -1  -1 -11  231.28   10.00
  -1  -1 -11  235.88    8.20
   1   1  11  232.48    8.80
   1   1  11  232.78    8.10
  -2  -1 -11   60.99    3.80
  -2  -1 -11   63.09    5.00
  -2  -1 -11   64.19    4.70
  -2  -1 -11   59.29    4.10
   2   1  11   62.49    3.50
   2   1  11   57.89    4.30
   2   1  11   64.69    3.80
  -3  -1 -11   32.70    3.80
  -3  -1 -11   29.30    4.40
  -3  -1 -11   32.40    2.80
   3   1  11   30.20    2.80
   3   1  11   34.90    3.50
   3   1  11   32.90    3.30
  -4  -1 -11   42.50    5.20
  -4  -1 -11   38.30    4.60
   4   1  11   44.50    5.70
   4   1  11   49.20    3.70
   4   1  11   44.40    3.60
  -5  -1 -11  164.08   10.20
  -5  -1 -11  158.18    9.20
   5   1  11  147.59    6.50
   5   1  11  149.49    5.20
   5   1  11  151.38    8.40
  -6  -1 -11    8.10    5.10
  -6  -1 -11   15.30    4.80
   6   1  11   15.60    6.50
  -7  -1 -11    0.90    5.30
  -7  -1 -11    0.80    4.80
   7   1  11    3.30    6.40
   6  -2 -11   36.20    7.20
  -6   2  11   23.70    7.70
   5  -2 -11    4.00    4.20
  -5   2  11    2.40    3.70
  -5   2  11  -10.10    5.70
   4  -2 -11    2.30    4.80
  -4   2  11   -0.90    4.60
  -4   2  11   -2.40    5.00
   3  -2 -11   18.50    2.90
   3  -2 -11   20.50    4.80
   3  -2 -11   13.10    5.70
  -3   2  11   22.50    4.10
  -3   2  11   16.30    4.00
   2  -2 -11   86.69    6.30
   2  -2 -11   83.49    6.00
   2  -2 -11   72.09    8.00
  -2   2  11   83.59    6.80
  -2   2  11   80.89    7.30
   1  -2 -11   20.20    3.80
   1  -2 -11   20.70    4.40
   1  -2 -11   19.50    3.00
  -1   2  11   28.50    3.60
  -1   2  11   24.90    4.20
   0  -2 -11    1.50    2.30
   0  -2 -11    0.10    2.20
   0  -2 -11    0.10    2.70
   0   2  11   -1.50    1.50
   0   2  11   -1.40    2.10
   0   2  11   -2.70    2.90
   0   2  11   -2.40    3.00
  -1  -2 -11    6.10    2.50
  -1  -2 -11    6.30    2.00
  -1  -2 -11    6.40    2.50
   1   2  11    8.00    2.50
   1   2  11    8.00    2.10
   1   2  11    5.80    2.30
   1   2  11    3.60    2.00
  -2  -2 -11  729.03   26.10
  -2  -2 -11  750.02   21.40
  -2  -2 -11  763.72   23.00
   2   2  11  772.32   21.90
   2   2  11  716.73   20.10
   2   2  11  745.03   21.40
  -3  -2 -11   44.80    4.20
  -3  -2 -11   38.80    4.80
  -3  -2 -11   40.60    3.10
   3   2  11   40.90    3.20
   3   2  11   45.10    3.20
   3   2  11   41.40    3.90
  -4  -2 -11   -1.20    2.90
  -4  -2 -11    2.30    2.70
   4   2  11   -3.90    2.00
   4   2  11    0.60    4.20
   4   2  11   -0.70    2.10
  -5  -2 -11    1.30    3.20
  -5  -2 -11    4.30    4.10
   5   2  11    2.40    2.60
   5   2  11    3.70    5.00
   5   2  11    0.50    1.10
  -6  -2 -11   39.90    5.60
  -6  -2 -11   55.39    5.40
  -6  -2 -11   43.70    5.50
   6   2  11   55.39    5.40
   6   2  11   59.79    6.50
  -7  -2 -11   29.00    6.20
  -7  -2 -11   21.20    5.60
   7   2  11   22.60    7.30
   7   2  11   23.70    5.10
  -5   3  11   12.90    5.70
  -5   3  11   10.60    5.30
   4  -3 -11    7.50    4.10
  -4   3  11   16.00    5.80
  -4   3  11    1.00    5.50
   3  -3 -11    5.10    4.70
   3  -3 -11    6.30    4.50
   3  -3 -11    2.40    2.90
  -3   3  11    0.10    5.00
  -3   3  11   12.90    5.00
   2  -3 -11    1.50    3.50
   2  -3 -11    2.70    3.10
   2  -3 -11    3.20    2.80
  -2   3  11   -0.70    4.30
  -2   3  11   -1.70    3.00
   1  -3 -11   99.99    7.30
   1  -3 -11   86.19    5.50
   1  -3 -11   83.79    8.00
  -1   3  11  104.29    7.30
  -1   3  11   97.79    8.10
  -1   3  11   96.19    3.70
   0  -3 -11   80.49    6.20
   0  -3 -11   84.19    5.60
   0  -3 -11   82.59    7.20
   0   3  11   86.59    3.80
   0   3  11   83.39    5.40
   0   3  11   89.89    6.40
  -1  -3 -11   61.79    6.40
  -1  -3 -11   59.89    5.90
  -1  -3 -11   52.79    4.40
  -1  -3 -11   59.19    3.60
   1   3  11   53.79    3.40
   1   3  11   64.59    5.40
   1   3  11   57.09    4.20
   1   3  11   61.69    3.70
  -2  -3 -11    7.30    2.40
  -2  -3 -11    8.30    2.90
  -2  -3 -11   12.00    3.80
  -2  -3 -11    9.10    2.00
   2   3  11   13.70    3.10
   2   3  11    6.10    2.60
   2   3  11    9.60    2.30
  -3  -3 -11   55.49    6.20
  -3  -3 -11   55.39    6.60
  -3  -3 -11   52.29    4.00
   3   3  11   50.39    3.50
   3   3  11   50.49    4.00
   3   3  11   52.39    3.70
  -4  -3 -11   46.00    4.30
  -4  -3 -11   52.29    5.30
   4   3  11   45.50    3.90
   4   3  11   46.20    3.80
  -5  -3 -11   31.40    4.20
  -5  -3 -11   30.50    5.20
   5   3  11   26.40    6.30
   5   3  11   29.70    4.50
  -6  -3 -11    4.20    3.60
  -6  -3 -11    7.50    4.70
  -6  -3 -11   -3.30    3.60
   6   3  11   10.40    5.90
   6   3  11    1.30    3.00
  -7  -3 -11    2.40    4.20
  -7  -3 -11    0.80    4.20
  -7  -3 -11    5.70    5.20
   7   3  11    4.10    4.60
   7   3  11    1.40    6.70
   5  -4 -11    3.00    4.70
  -5   4  11    3.00    7.00
  -5   4  11   12.30    6.40
   4  -4 -11    4.60    4.40
  -4   4  11   -4.40    6.00
  -4   4  11   11.70    6.10
   3  -4 -11   17.90    5.40
   3  -4 -11    8.50    3.90
  -3   4  11   22.80    4.90
  -3   4  11    9.20    4.50
   2  -4 -11   11.20    3.50
   2  -4 -11   11.00    5.50
  -2   4  11    6.10    5.20
  -2   4  11   14.70    5.40
   1  -4 -11   -0.40    4.40
   1  -4 -11   -0.90    2.80
   1  -4 -11    8.10    3.50
  -1   4  11    2.90    1.80
  -1   4  11    5.10    4.50
  -1   4  11    2.00    4.60
   0  -4 -11    5.60    4.30
   0  -4 -11   10.00    3.70
   0   4  11   13.80    2.30
   0   4  11   16.90    4.50
   0   4  11   13.20    1.80
  -1  -4 -11   17.90    4.50
  -1  -4 -11   26.30    4.70
   1   4  11   22.20    4.30
   1   4  11   27.50    3.00
   1   4  11   28.00    1.90
  -2  -4 -11  178.28   10.00
  -2  -4 -11  184.98   11.30
  -2  -4 -11  179.28    7.50
   2   4  11  189.48    7.20
   2   4  11  175.38    7.30
   2   4  11  183.48    8.20
  -3  -4 -11    2.00    3.50
  -3  -4 -11    0.50    1.60
  -3  -4 -11    0.10    2.90
   3   4  11    4.20    2.80
   3   4  11    0.10    3.00
  -4  -4 -11    0.20    2.00
  -4  -4 -11   -3.40    3.10
  -4  -4 -11   -2.80    3.60
   4   4  11    0.10    2.70
   4   4  11   -1.00    3.40
  -5  -4 -11   16.80    5.50
  -5  -4 -11   17.60    4.60
  -5  -4 -11   16.70    3.40
   5   4  11   17.80    4.20
   5   4  11   18.00    2.10
  -6  -4 -11    8.30    4.60
  -6  -4 -11   11.40    4.80
   6   4  11   14.40    6.30
   6   4  11   11.20    3.70
  -7  -4 -11   -1.80    5.70
  -7  -4 -11   -2.00    4.40
   7   4  11   10.10    5.00
   7   4  11    5.60    6.80
   4  -5 -11    0.60    4.70
  -4   5  11   -3.50    7.00
  -4   5  11    7.00    6.60
   3  -5 -11    4.10    5.80
  -3   5  11    7.20    4.60
  -3   5  11   -0.80    6.00
   2  -5 -11   14.10    4.30
   2  -5 -11   23.80    4.70
   2  -5 -11   15.90    5.10
  -2   5  11   23.50    5.20
  -2   5  11   13.80    6.00
   1  -5 -11   62.39    6.40
   1  -5 -11   44.30    6.70
   1  -5 -11   40.00    5.80
  -1   5  11   70.79    7.30
  -1   5  11   51.99    6.10
  -1   5  11   59.59    3.40
   0  -5 -11   23.30    4.00
   0  -5 -11   22.40    5.00
   0  -5 -11   11.60    5.00
   0   5  11   18.60    2.80
   0   5  11   34.20    5.60
  -1  -5 -11    5.70    4.40
  -1  -5 -11    5.20    3.60
  -1  -5 -11    3.70    4.30
   1   5  11    1.00    3.20
   1   5  11    1.10    2.60
  -2  -5 -11   39.60    4.80
  -2  -5 -11   43.90    4.40
  -2  -5 -11   30.80    5.80
   2   5  11   42.30    4.20
   2   5  11   50.89    5.30
  -3  -5 -11   35.40    5.10
  -3  -5 -11   27.00    5.00
   3   5  11   38.20    4.80
   3   5  11   36.50    4.50
  -4  -5 -11    2.60    5.00
  -4  -5 -11    6.40    4.00
   4   5  11    5.90    3.50
   4   5  11    4.80    2.90
  -5  -5 -11   10.10    4.20
  -5  -5 -11    5.30    4.20
   5   5  11    0.80    2.40
   5   5  11    2.30    4.30
  -6  -5 -11    3.70    4.30
  -6  -5 -11    2.20    4.40
   6   5  11    9.20    5.10
   3  -6 -11   10.80    6.80
  -3   6  11   -0.60    6.70
  -3   6  11   -3.30    6.60
   2  -6 -11   10.70    5.20
   2  -6 -11    4.10    6.10
   2  -6 -11    2.10    4.30
  -2   6  11    5.10    6.50
  -2   6  11   -0.60    4.70
   1  -6 -11   -0.20    4.30
   1  -6 -11   -2.40    4.00
   1  -6 -11    6.90    4.10
  -1   6  11    3.00    6.00
  -1   6  11    2.60    2.20
   0  -6 -11    1.20    4.70
   0  -6 -11    1.40    5.00
   0  -6 -11    4.70    4.80
   0   6  11    0.60    5.50
   0   6  11    1.50    2.50
  -1  -6 -11   13.00    4.30
  -1  -6 -11    3.00    4.20
  -1  -6 -11   10.30    5.00
   1   6  11   15.90    5.60
   1   6  11   12.10    3.10
  -2  -6 -11   14.10    5.50
  -2  -6 -11   20.90    5.20
   2   6  11   22.80    5.30
   2   6  11   17.40    4.00
  -3  -6 -11    5.60    5.30
  -3  -6 -11    6.10    4.50
   3   6  11    2.40    3.90
   3   6  11   10.00    4.20
  -4  -6 -11   98.99    8.50
  -4  -6 -11  103.09   10.50
   4   6  11   91.39    7.00
   4   6  11  114.09    7.30
  -5  -6 -11    2.00    4.50
  -5  -6 -11    5.30    4.50
   5   6  11    0.30    4.70
   5   6  11    5.30    3.30
  -6  -6 -11    3.80    4.30
  -6  -6 -11    5.20    6.10
   6   6  11    0.30    5.10
   2  -7 -11    4.90    6.50
   2  -7 -11   -1.40    5.70
  -2   7  11   10.60    7.70
   1  -7 -11    7.30    5.90
   1  -7 -11   11.90    6.30
   1  -7 -11    4.50    4.80
  -1   7  11    0.40    6.80
   0  -7 -11    4.30    5.90
   0  -7 -11   10.90    5.60
   0  -7 -11   -0.60    5.50
   0   7  11    4.00    3.10
   0   7  11    0.50    6.40
  -1  -7 -11    7.90    5.00
  -1  -7 -11    9.20    4.70
  -1  -7 -11    0.60    5.20
   1   7  11   -2.00    5.90
   1   7  11    3.50    3.50
  -2  -7 -11    8.00    6.10
  -2  -7 -11   -0.70    4.60
   2   7  11    7.80    4.00
   2   7  11   18.10    5.80
  -3  -7 -11    9.40    6.20
  -3  -7 -11    0.70    4.70
   3   7  11    4.10    4.60
   3   7  11   10.20    4.90
  -4  -7 -11    0.60    4.40
  -4  -7 -11   -0.60    6.00
   4   7  11   -2.40    3.60
   4   7  11    6.40    4.80
  -5  -7 -11    6.00    5.20
   5   7  11    4.60    3.70
   5   7  11   -0.90    5.20
   0  -8 -11   -9.50    5.40
   0  -8 -11    6.10    6.10
   0  -8 -11    0.40    6.40
   0   8  11   -3.50    6.90
   0   8  11    1.90    3.50
  -1  -8 -11   -2.80    5.50
  -1  -8 -11   -1.20    6.50
   1   8  11   -1.60    6.50
   1   8  11    0.10    3.90
  -2  -8 -11   -1.20    5.30
  -2  -8 -11    6.90    5.30
   2   8  11   17.00    5.20
   2   8  11    5.60    4.50
  -3  -8 -11    0.10    5.20
  -3  -8 -11   -1.30    4.90
   3   8  11    2.90    5.10
   3   8  11    7.60    5.70
   3   7 -12   13.30    5.70
  -3  -7  12   -6.80    5.90
  -3  -7  12    5.80    7.00
   2   7 -12    5.00    7.00
   2   7 -12    0.30    4.80
  -2  -7  12    9.30    7.40
  -2  -7  12   -0.20    7.60
   1   7 -12  -12.00    5.90
   1   7 -12   -5.20    6.50
  -1  -7  12   -7.90    7.40
  -1  -7  12    5.40    7.30
   0   7 -12  -13.10    6.00
   0   7 -12  -16.20    5.90
   0  -7  12    2.00    7.30
   0  -7  12  -23.80    6.80
  -1   7 -12   -3.00    6.50
  -1   7 -12   -9.60    4.40
   1  -7  12   -4.80    5.50
   4   6 -12    0.10    6.30
  -4  -6  12   -6.40    5.50
  -4  -6  12    8.80    4.60
  -4  -6  12   -4.50    5.60
   3   6 -12    9.60    6.40
  -3  -6  12   -6.60    7.10
  -3  -6  12    3.00    3.50
  -3  -6  12    2.80    4.50
   2   6 -12   -8.50    5.70
   2   6 -12   -0.40    4.30
  -2  -6  12    1.50    4.50
  -2  -6  12   -4.20    5.10
   1   6 -12   11.80    6.10
   1   6 -12   -0.70    4.20
  -1  -6  12    5.20    6.50
  -1  -6  12   -9.70    6.50
   0   6 -12   21.00    6.30
   0   6 -12   15.60    6.40
   0  -6  12   10.60    6.50
   0  -6  12   22.70    7.20
  -1   6 -12   -2.50    5.80
  -1   6 -12    2.40    4.00
  -1   6 -12    7.90    5.80
   1  -6  12   -1.40    4.70
   1  -6  12   -0.10    5.50
  -2   6 -12  -11.20    5.90
  -2   6 -12   -2.40    5.50
  -2   6 -12   -3.70    4.00
   2  -6  12   -2.80    6.60
  -3   6 -12   14.50    7.00
   3  -6  12    9.20    7.30
   5   5 -12    8.40    6.30
  -5  -5  12   -3.10    7.40
  -5  -5  12    1.00    4.50
   4   5 -12    2.80    4.30
  -4  -5  12    6.50    4.30
  -4  -5  12   -0.90    5.00
  -4  -5  12    6.20    5.60
   3   5 -12   13.20    5.90
  -3  -5  12   21.10    4.80
  -3  -5  12   10.20    5.30
  -3  -5  12   18.80    4.20
   2   5 -12   16.20    5.60
   2   5 -12   19.30    6.10
  -2  -5  12   18.20    4.80
  -2  -5  12    7.10    6.50
  -2  -5  12   13.20    3.10
   1   5 -12    3.80    5.20
   1   5 -12    3.00    2.90
   1   5 -12    9.80    4.00
  -1  -5  12    8.00    4.30
  -1  -5  12    3.30    4.50
   0   5 -12   14.90    3.80
   0   5 -12   12.90    4.10
   0   5 -12    8.80    4.30
   0  -5  12   15.20    6.40
   0  -5  12   12.40    4.70
  -1   5 -12   24.40    6.20
  -1   5 -12   22.70    4.30
  -1   5 -12   24.70    5.50
   1  -5  12   33.40    5.50
   1  -5  12   15.80    5.80
  -2   5 -12   35.30    5.50
  -2   5 -12   32.30    5.70
  -2   5 -12   44.20    6.00
   2  -5  12   41.10    6.00
  -3   5 -12    7.40    4.70
  -3   5 -12   10.30    4.10
   3  -5  12    7.00    5.90
  -4   5 -12    3.60    6.20
   4  -5  12    0.40    5.80
   6   4 -12    7.70    6.10
  -6  -4  12   -2.90    7.20
  -6  -4  12    0.10    5.70
   5   4 -12    6.50    5.70
  -5  -4  12   -5.00    6.60
  -5  -4  12   16.00    5.40
  -5  -4  12   11.20    5.40
   4   4 -12    1.80    5.30
  -4  -4  12   -2.20    4.40
  -4  -4  12    1.70    5.00
  -4  -4  12    4.50    4.10
   3   4 -12    0.10    2.90
   3   4 -12   10.10    5.10
  -3  -4  12    6.30    4.50
  -3  -4  12    0.40    3.40
  -3  -4  12    2.40    4.90
   2   4 -12    6.50    4.60
   2   4 -12    6.80    3.90
   2   4 -12    9.50    3.20
  -2  -4  12    6.50    5.10
  -2  -4  12   13.60    6.10
  -2  -4  12   12.00    2.90
   1   4 -12  158.18    9.60
   1   4 -12  191.58    9.10
   1   4 -12  200.78    9.70
  -1  -4  12  199.08   12.40
  -1  -4  12  188.88   10.30
  -1  -4  12  180.98    7.20
   0   4 -12    3.30    3.30
   0   4 -12    2.90    4.70
   0   4 -12   13.80    4.50
   0  -4  12   -2.00    4.90
   0  -4  12   11.20    4.00
  -1   4 -12    0.50    3.20
  -1   4 -12    5.60    3.80
  -1   4 -12    2.50    4.10
   1  -4  12    7.90    3.80
   1  -4  12   -9.70    4.10
  -2   4 -12    9.40    4.10
  -2   4 -12   12.10    4.20
  -2   4 -12   10.80    4.30
   2  -4  12    8.40    5.20
  -3   4 -12   59.39    6.80
  -3   4 -12   61.09    7.50
   3  -4  12   58.59    6.80
  -4   4 -12   49.70    7.30
   4  -4  12   44.10    5.40
   4  -4  12   47.40    6.50
  -5   4 -12    3.20    6.30
   5  -4  12    1.40    5.10
   6   3 -12    2.20    5.90
  -6  -3  12   -7.10    6.60
  -6  -3  12    5.10    5.80
   5   3 -12   -5.50    5.30
  -5  -3  12   -1.90    4.80
  -5  -3  12   -2.30    6.00
  -5  -3  12    0.20    4.70
   4   3 -12   27.90    4.70
   4   3 -12   18.70    4.30
  -4  -3  12   21.00    6.50
  -4  -3  12   17.40    5.20
  -4  -3  12   28.90    4.90
   3   3 -12   14.90    4.10
   3   3 -12   28.50    5.20
  -3  -3  12   24.50    6.00
  -3  -3  12   28.50    4.50
  -3  -3  12   20.70    3.80
   2   3 -12   23.50    4.80
   2   3 -12   20.80    4.10
   2   3 -12   24.60    3.80
  -2  -3  12   30.10    5.30
  -2  -3  12   20.70    3.20
  -2  -3  12   12.90    5.30
   1   3 -12   10.80    4.50
   1   3 -12    6.60    3.10
   1   3 -12    6.60    2.90
  -1  -3  12    8.20    2.20
  -1  -3  12    7.20    4.60
  -1  -3  12    0.90    3.50
   0   3 -12  165.38    9.00
   0   3 -12  171.58    8.70
   0   3 -12  175.68    8.50
   0  -3  12  175.38    8.40
   0  -3  12  168.88    5.60
   0  -3  12  172.88   10.90
  -1   3 -12   60.29    5.40
  -1   3 -12   45.00    5.80
  -1   3 -12   56.39    5.90
   1  -3  12   54.59    5.30
  -2   3 -12   26.80    5.30
  -2   3 -12   25.60    4.10
  -2   3 -12   28.30    4.70
   2  -3  12   35.90    5.30
  -3   3 -12   23.00    5.50
  -3   3 -12   11.20    4.60
  -3   3 -12   19.00    3.70
   3  -3  12   18.60    4.80
  -4   3 -12   22.10    5.00
  -4   3 -12   21.10    4.60
   4  -3  12   26.50    4.80
   4  -3  12   28.70    4.90
  -5   3 -12   24.90    5.60
   5  -3  12   23.00    5.20
   5  -3  12   23.60    5.60
   6   2 -12   -2.90    5.20
  -6  -2  12    1.30    4.40
  -6  -2  12    4.20    6.50
   5   2 -12    4.20    5.20
  -5  -2  12   -2.60    4.60
  -5  -2  12   -2.90    4.60
  -5  -2  12    3.70    5.90
   4   2 -12    2.60    4.80
   4   2 -12   -5.00    3.80
  -4  -2  12   -0.90    3.70
  -4  -2  12    5.40    4.80
  -4  -2  12    0.50    3.70
   3   2 -12   12.20    4.10
   3   2 -12   20.40    4.90
  -3  -2  12   23.30    4.20
  -3  -2  12   23.40    4.00
  -3  -2  12   26.40    4.70
   2   2 -12   55.59    5.50
   2   2 -12   48.30    5.70
   2   2 -12   47.80    5.30
  -2  -2  12   56.89    4.70
  -2  -2  12   46.80    5.60
  -2  -2  12   51.09    6.20
   1   2 -12  107.49    6.80
   1   2 -12  101.59    6.60
   1   2 -12  109.59    6.80
  -1  -2  12   95.79    5.10
  -1  -2  12   98.69    7.30
  -1  -2  12  101.19    7.40
   0   2 -12   50.09    4.80
   0   2 -12   48.00    4.40
   0   2 -12   39.90    5.00
   0  -2  12   38.00    3.10
   0  -2  12   49.70    4.80
   0  -2  12   42.00    5.50
  -1   2 -12   -1.00    3.10
  -1   2 -12    2.90    2.40
  -1   2 -12    3.70    2.80
   1  -2  12   -4.30    3.60
  -2   2 -12  129.39    8.20
  -2   2 -12  117.39    7.40
  -2   2 -12  121.29    6.40
   2  -2  12  119.29    6.40
  -3   2 -12   49.50    5.40
  -3   2 -12   56.39    4.70
  -3   2 -12   63.09    7.20
   3  -2  12   58.69    5.70
  -4   2 -12   35.10    5.20
  -4   2 -12   31.60    5.70
   4  -2  12   34.40    5.60
   4  -2  12   46.30    5.10
  -5   2 -12    4.20    4.10
  -5   2 -12    5.10    5.40
   5  -2  12    1.30    3.60
   5  -2  12    2.80    4.70
  -6   2 -12    1.70    6.20
   6  -2  12    4.80    3.40
   6  -2  12    7.80    6.00
   6   1 -12    2.20    5.60
  -6  -1  12   -6.00    5.70
  -6  -1  12    8.90    6.10
   5   1 -12   19.10    5.80
  -5  -1  12   21.30    5.40
  -5  -1  12   22.10    5.90
  -5  -1  12   12.40    5.80
   4   1 -12   46.80    5.10
   4   1 -12   46.40    6.70
  -4  -1  12   47.10    5.80
  -4  -1  12   54.69    6.30
  -4  -1  12   48.40    6.60
   3   1 -12   29.30    4.00
   3   1 -12   21.60    4.90
  -3  -1  12   22.50    5.20
  -3  -1  12   30.00    4.30
  -3  -1  12   27.40    4.20
   2   1 -12   -1.70    2.60
   2   1 -12   -2.50    3.20
   2   1 -12   -1.00    2.10
  -2  -1  12   -4.80    4.00
  -2  -1  12    0.30    2.90
  -2  -1  12   -0.50    2.50
   1   1 -12  131.49    7.60
   1   1 -12  124.49    6.90
   1   1 -12  125.99    6.90
  -1  -1  12  129.39    6.70
  -1  -1  12  117.09    7.70
  -1  -1  12  136.59    6.40
   0   1 -12  226.88    8.90
   0   1 -12  223.88   10.30
   0   1 -12  213.78    9.40
   0  -1  12  233.88    9.60
   0  -1  12  225.68    8.40
  -1   1 -12    9.20    3.40
  -1   1 -12    7.60    3.00
  -1   1 -12   12.70    3.60
   1  -1  12    5.60    3.50
  -2   1 -12    9.20    3.00
  -2   1 -12   12.10    3.10
  -2   1 -12   19.50    3.10
   2  -1  12   21.90    3.10
   2  -1  12   13.20    3.40
  -3   1 -12    0.20    3.70
  -3   1 -12    2.10    2.40
  -3   1 -12   -2.50    3.60
   3  -1  12    3.20    3.00
  -4   1 -12  147.89    8.80
  -4   1 -12  119.09    8.00
   4  -1  12  125.69    8.10
   4  -1  12  141.29    6.90
  -5   1 -12   54.69    7.00
  -5   1 -12   49.30    6.80
   5  -1  12   47.80    4.40
   5  -1  12   40.50    6.40
  -6   1 -12   24.20    6.20
  -6   1 -12   22.70    6.30
   6  -1  12   28.10    6.70
   6   0 -12    8.50    6.10
  -6   0  12   -0.50    5.30
  -6   0  12    0.40    4.70
   5   0 -12   -5.50    5.00
  -5   0  12   -2.30    3.50
  -5   0  12    2.90    4.90
  -5   0  12   -2.70    5.30
   4   0 -12   17.40    5.20
   4   0 -12    9.40    5.70
  -4   0  12   13.80    3.80
  -4   0  12   12.00    5.00
  -4   0  12   12.00    3.90
   3   0 -12   44.40    6.30
   3   0 -12   44.30    5.40
   3   0 -12   50.09    3.70
  -3   0  12   40.60    5.70
  -3   0  12   55.69    5.40
  -3   0  12   42.60    5.10
   2   0 -12   44.50    5.40
   2   0 -12   40.00    4.10
  -2   0  12   33.70    4.50
  -2   0  12   34.20    4.10
  -2   0  12   40.20    4.50
   1   0 -12   59.79    5.40
   1   0 -12   60.19    6.10
   1   0 -12   51.39    4.30
  -1   0  12   46.40    5.10
  -1   0  12   57.39    4.90
   0   0 -12   34.60    3.90
   0   0 -12   37.50    4.40
   0   0 -12   35.90    3.50
   0   0 -12   35.70    2.80
   0   0  12   33.20    4.30
   0   0  12   32.30    3.50
  -1   0 -12  657.33   19.70
  -1   0 -12  655.93   21.70
  -1   0 -12  681.33   23.90
  -1   0 -12  674.13   19.80
   1   0  12  670.23   19.80
   1   0  12  653.73   20.30
  -2   0 -12   72.69    4.40
  -2   0 -12   66.29    5.70
  -2   0 -12   63.19    5.40
  -2   0 -12   70.59    2.80
   2   0  12   64.59    5.10
   2   0  12   70.69    4.40
  -3   0 -12   55.39    2.30
  -3   0 -12   55.79    5.40
  -3   0 -12   49.00    3.60
  -3   0 -12   45.70    5.00
   3   0  12   54.99    5.10
  -4   0 -12   16.60    4.40
  -4   0 -12   18.60    4.70
   4   0  12   24.40    5.30
   4   0  12   28.80    3.40
  -5   0 -12   16.80    5.30
  -5   0 -12   16.80    4.00
   5   0  12   17.70    2.90
   5   0  12   18.60    4.80
  -6   0 -12   37.10    6.70
  -6   0 -12   42.50    6.70
   6   0  12   40.20    7.50
   6  -1 -12   14.10    6.70
  -6   1  12   -2.50    4.90
   5  -1 -12   17.60    6.00
  -5   1  12   14.30    4.80
  -5   1  12   11.50    5.40
   4  -1 -12   42.40    5.10
   4  -1 -12   30.90    7.20
  -4   1  12   29.90    5.80
  -4   1  12   30.30    5.80
   3  -1 -12   -1.90    3.50
   3  -1 -12    4.20    1.80
   3  -1 -12    6.40    4.40
  -3   1  12   -1.00    4.40
  -3   1  12    4.10    4.20
   2  -1 -12   29.20    4.60
   2  -1 -12   20.90    4.80
   2  -1 -12   32.70    4.10
  -2   1  12   29.70    4.30
  -2   1  12   30.80    4.20
   1  -1 -12   95.89    7.50
   1  -1 -12  103.19    6.30
  -1   1  12   85.79    5.70
  -1   1  12   94.39    6.40
   0  -1 -12  181.38    7.50
   0  -1 -12  207.08    8.40
   0  -1 -12  192.48    9.30
   0   1  12  204.88    8.90
   0   1  12  197.98    8.60
  -1  -1 -12   11.60    2.20
  -1  -1 -12   11.90    2.90
  -1  -1 -12   11.30    2.70
  -1  -1 -12    9.00    2.90
   1   1  12    9.40    2.70
   1   1  12   11.50    2.70
  -2  -1 -12   10.40    2.90
  -2  -1 -12   10.00    2.10
  -2  -1 -12    4.80    2.70
  -2  -1 -12   11.40    2.60
   2   1  12    6.10    2.50
   2   1  12   11.40    3.10
  -3  -1 -12   30.20    4.10
  -3  -1 -12   30.70    4.00
  -3  -1 -12   43.00    3.40
   3   1  12   38.40    3.40
   3   1  12   32.00    3.70
  -4  -1 -12  101.69    7.10
  -4  -1 -12  102.99    7.30
   4   1  12  109.69    5.20
   4   1  12   92.89    7.70
  -5  -1 -12   53.29    5.70
  -5  -1 -12   45.50    5.40
   5   1  12   52.69    6.10
   5   1  12   48.10    3.30
  -6  -1 -12    3.80    3.50
  -6  -1 -12    2.00    4.80
   6   1  12   -6.10    5.80
   5  -2 -12   -8.80    5.60
  -5   2  12   -2.00    5.40
  -5   2  12   -8.80    6.10
   4  -2 -12   -3.50    6.10
   4  -2 -12    8.30    5.30
  -4   2  12    3.50    5.40
  -4   2  12   -5.70    4.80
   3  -2 -12   34.90    4.70
   3  -2 -12   32.90    6.70
   3  -2 -12   30.80    4.50
  -3   2  12   36.80    5.00
  -3   2  12   33.40    5.70
   2  -2 -12    7.90    4.10
   2  -2 -12   -1.60    3.10
   2  -2 -12    1.10    2.20
  -2   2  12   -0.90    4.20
  -2   2  12    1.30    3.90
   1  -2 -12    5.00    2.80
   1  -2 -12    2.80    4.00
   1  -2 -12   10.20    2.80
  -1   2  12    9.90    4.10
  -1   2  12    5.80    3.70
   0  -2 -12    4.90    3.70
   0  -2 -12    8.60    3.20
   0  -2 -12    5.80    2.30
   0   2  12    5.30    3.60
   0   2  12   10.30    2.00
   0   2  12    3.30    3.60
  -1  -2 -12  252.37   11.40
  -1  -2 -12  259.87    9.40
  -1  -2 -12  254.37    9.60
   1   2  12  270.97    9.30
   1   2  12  267.87   10.10
   1   2  12  255.67    8.40
  -2  -2 -12   81.49    4.90
  -2  -2 -12   87.39    5.00
  -2  -2 -12   81.99    6.10
   2   2  12   88.59    4.70
   2   2  12   84.19    4.50
   2   2  12   84.79    5.40
  -3  -2 -12   41.80    3.30
  -3  -2 -12   27.20    4.60
  -3  -2 -12   33.90    3.60
   3   2  12   31.40    3.60
   3   2  12   32.60    3.70
  -4  -2 -12    2.10    2.90
  -4  -2 -12   -2.70    3.80
   4   2  12   -2.70    3.00
   4   2  12    0.50    2.40
  -5  -2 -12   16.50    4.00
  -5  -2 -12   21.00    4.20
   5   2  12   27.90    6.40
   5   2  12   14.00    4.00
   5   2  12   20.80    2.10
  -6  -2 -12   22.30    4.80
  -6  -2 -12   28.00    5.90
   6   2  12   29.60    7.50
   6   2  12   27.50    4.90
  -7  -2 -12   -2.50    4.70
  -7  -2 -12    0.80    5.50
   7   2  12    0.30    6.70
  -5   3  12    5.10    5.90
  -5   3  12  -10.20    6.60
   4  -3 -12    7.40    5.80
  -4   3  12  -11.80    5.50
  -4   3  12   -2.80    4.00
   3  -3 -12    8.00    3.10
   3  -3 -12    0.80    5.90
   3  -3 -12    6.70    5.10
  -3   3  12   10.50    4.10
  -3   3  12    1.40    5.30
   2  -3 -12   34.50    6.30
   2  -3 -12   49.40    6.00
   2  -3 -12   53.29    5.90
  -2   3  12   40.10    5.20
  -2   3  12   54.99    6.30
   1  -3 -12   69.69    6.60
   1  -3 -12   61.49    6.40
   1  -3 -12   61.49    5.60
  -1   3  12   56.79    5.60
  -1   3  12   62.09    6.10
  -1   3  12   67.29    3.30
   0  -3 -12   57.19    4.50
   0  -3 -12   63.29    6.00
   0  -3 -12   80.79    7.30
   0   3  12   67.29    4.50
   0   3  12   67.89    6.40
   0   3  12   71.69    6.50
   0   3  12   68.89    3.70
  -1  -3 -12   23.20    4.50
  -1  -3 -12   15.20    4.00
  -1  -3 -12   17.20    2.40
  -1  -3 -12   16.20    3.40
   1   3  12   19.10    2.30
   1   3  12   17.60    3.90
   1   3  12   14.50    2.20
  -2  -3 -12   30.40    4.70
  -2  -3 -12   25.10    4.60
  -2  -3 -12   37.80    3.70
  -2  -3 -12   29.20    2.90
   2   3  12   22.00    4.10
   2   3  12   30.80    3.40
   2   3  12   33.20    3.50
  -3  -3 -12    5.90    3.40
  -3  -3 -12    9.20    4.00
  -3  -3 -12    6.40    2.30
   3   3  12    9.50    3.10
   3   3  12    2.40    3.00
  -4  -3 -12   43.10    4.20
  -4  -3 -12   42.20    5.40
   4   3  12   48.70    4.80
   4   3  12   49.50    4.30
  -5  -3 -12   17.60    5.00
  -5  -3 -12   18.30    3.90
   5   3  12   16.70    2.00
   5   3  12   21.50    3.70
  -6  -3 -12   -0.90    4.10
  -6  -3 -12    6.30    4.90
  -6  -3 -12    7.80    3.90
   6   3  12   -0.80    6.20
   6   3  12    1.40    4.30
   4  -4 -12   11.70    6.40
  -4   4  12    0.20    4.90
  -4   4  12    6.20    4.70
   3  -4 -12   18.40    7.00
  -3   4  12   21.00    6.50
  -3   4  12   30.20    6.60
   2  -4 -12    3.40    3.10
   2  -4 -12    4.60    3.50
   2  -4 -12    0.90    3.90
  -2   4  12    8.80    5.30
  -2   4  12    1.50    4.00
   1  -4 -12    2.50    3.60
   1  -4 -12   -1.20    3.40
   1  -4 -12    3.10    4.10
  -1   4  12   -4.00    3.50
  -1   4  12   -7.00    4.60
  -1   4  12    5.20    2.00
   0  -4 -12    3.70    3.50
   0  -4 -12    5.20    4.60
   0  -4 -12    9.60    3.80
   0   4  12    6.00    4.50
   0   4  12    5.50    2.20
  -1  -4 -12   84.89    7.80
  -1  -4 -12   95.09    8.30
   1   4  12   91.79    6.00
   1   4  12   83.39    4.60
  -2  -4 -12   82.79    9.40
  -2  -4 -12   87.49    6.70
   2   4  12   82.79    4.50
   2   4  12   69.09    6.20
  -3  -4 -12  147.69   11.70
  -3  -4 -12  130.99    9.20
   3   4  12  149.69    7.50
   3   4  12  134.09    6.70
  -4  -4 -12   -3.30    3.30
  -4  -4 -12    1.50    4.00
   4   4  12   -0.40    2.70
   4   4  12    2.30    3.60
  -5  -4 -12   11.30    4.70
  -5  -4 -12    9.00    5.70
   5   4  12   13.10    2.30
   5   4  12   11.30    4.20
  -6  -4 -12    6.70    6.00
  -6  -4 -12   11.60    5.10
   6   4  12   18.10    5.40
   6   4  12    8.10    4.90
   4  -5 -12   -1.10    6.60
  -4   5  12   -3.40    5.30
  -4   5  12   -5.40    6.50
   3  -5 -12    3.20    4.60
  -3   5  12    3.00    4.70
  -3   5  12    0.60    6.30
   2  -5 -12   18.40    6.80
   2  -5 -12   16.20    4.50
   2  -5 -12   20.30    6.00
  -2   5  12   20.70    5.20
  -2   5  12   29.20    5.60
   1  -5 -12   16.00    4.70
   1  -5 -12    8.70    5.60
   1  -5 -12   14.70    4.10
  -1   5  12   14.00    5.90
  -1   5  12   14.60    6.00
  -1   5  12   23.40    2.80
   0  -5 -12    2.70    4.30
   0  -5 -12    0.00    4.10
   0  -5 -12   -4.60    4.40
   0   5  12    0.50    2.30
   0   5  12   -1.70    5.00
  -1  -5 -12    9.80    3.80
  -1  -5 -12   13.10    5.10
  -1  -5 -12    5.10    3.80
   1   5  12    8.80    2.80
   1   5  12   12.60    4.70
  -2  -5 -12   11.20    3.60
  -2  -5 -12    6.80    4.80
  -2  -5 -12   15.40    3.90
   2   5  12    6.00    2.60
   2   5  12   16.00    4.40
  -3  -5 -12    7.30    5.10
  -3  -5 -12   13.10    4.50
   3   5  12   10.60    3.90
   3   5  12    2.10    3.70
  -4  -5 -12   16.20    4.80
  -4  -5 -12   11.40    4.60
   4   5  12   23.10    4.10
   4   5  12   11.40    4.30
  -5  -5 -12   -2.20    5.60
  -5  -5 -12    0.90    4.30
   5   5  12   -0.60    3.20
   5   5  12    1.10    2.70
  -6  -5 -12    6.50    4.80
  -6  -5 -12    1.90    6.10
   6   5  12   13.00    4.10
   3  -6 -12   11.10    5.30
  -3   6  12   -2.20    7.00
  -3   6  12    3.20    5.50
   2  -6 -12   -1.30    4.40
   2  -6 -12   -3.80    4.60
   2  -6 -12    6.10    6.10
  -2   6  12   -9.90    4.30
  -2   6  12    1.00    4.80
   1  -6 -12    0.60    4.60
   1  -6 -12    1.30    4.10
   1  -6 -12   -3.20    5.70
  -1   6  12    8.20    6.50
   0  -6 -12    3.90    5.50
   0  -6 -12    1.70    4.90
   0  -6 -12    5.80    4.80
   0   6  12    1.60    5.70
   0   6  12    1.50    3.00
  -1  -6 -12   45.80    5.70
  -1  -6 -12   39.00    6.90
  -1  -6 -12   43.50    6.80
   1   6  12   40.00    4.40
   1   6  12   59.79    7.00
  -2  -6 -12   -1.50    5.20
  -2  -6 -12    0.80    4.90
   2   6  12   -2.60    3.50
   2   6  12   -2.10    4.60
  -3  -6 -12   27.90    5.60
  -3  -6 -12   15.90    6.20
   3   6  12   30.30    4.90
   3   6  12   33.20    5.20
  -4  -6 -12    2.50    4.60
  -4  -6 -12    7.30    6.00
   4   6  12    0.10    4.50
   4   6  12    4.90    4.20
  -5  -6 -12    7.60    6.60
  -5  -6 -12    9.70    4.90
   5   6  12   10.70    4.10
   5   6  12   11.50    3.80
  -2   7  12    4.80    7.80
   1  -7 -12    1.10    6.70
   1  -7 -12    5.30    4.70
   1  -7 -12   -1.70    5.50
  -1   7  12   -2.70    7.00
   0  -7 -12   -1.50    5.60
   0  -7 -12    1.60    5.50
   0  -7 -12   -8.60    5.60
   0   7  12   -6.20    6.50
   0   7  12   -1.30    3.00
  -1  -7 -12    3.10    5.80
  -1  -7 -12   -0.10    5.30
   1   7  12   -0.10    6.30
   1   7  12   -0.10    3.50
  -2  -7 -12    5.50    6.30
  -2  -7 -12   -1.20    5.20
   2   7  12    7.40    3.30
   2   7  12    7.50    5.80
  -3  -7 -12    4.30    6.40
  -3  -7 -12   -0.10    5.00
   3   7  12    4.80    4.80
   3   7  12    8.60    5.00
  -4  -7 -12    5.20    6.60
  -4  -7 -12   -2.90    5.20
   4   7  12   -0.30    3.80
   4   7  12   -3.30    4.00
  -1  -8 -12    1.60    4.60
  -1  -8 -12    4.30    5.10
   1   8  12   13.20    7.30
   1   8  12   -3.90    3.90
  -2  -8 -12   -1.50    5.50
  -2  -8 -12    2.80    6.70
   2   8  12   -8.00    4.10
   2   8  12    2.20    6.00
   2   7 -13   -1.50    5.30
   2   7 -13  -15.00    6.60
  -2  -7  13  -27.90    7.60
  -2  -7  13    0.80    7.30
   1   7 -13    6.10    5.20
   1   7 -13  -17.40    6.30
  -1  -7  13  -18.20    7.10
  -1  -7  13   -3.00    5.30
   0   7 -13   -6.60    6.80
   0   7 -13  -13.40    6.50
   0  -7  13  -18.50    6.80
   0  -7  13   -6.40    7.50
   4   6 -13   -0.50    5.00
  -4  -6  13    1.50    6.50
  -4  -6  13   -7.60    5.90
   3   6 -13   -3.20    4.70
  -3  -6  13   -1.30    5.70
  -3  -6  13   -2.90    6.40
   2   6 -13   38.20    7.20
   2   6 -13   23.10    5.90
  -2  -6  13   11.50    7.90
  -2  -6  13   39.10    7.70
   1   6 -13   -2.80    6.20
   1   6 -13    6.20    4.70
  -1  -6  13   -8.90    7.00
  -1  -6  13   -2.90    4.80
   0   6 -13    0.50    6.10
   0   6 -13    1.20    6.30
   0  -6  13    8.50    7.30
   0  -6  13   -4.00    6.50
  -1   6 -13   -8.80    5.90
  -1   6 -13   -4.40    5.60
  -1   6 -13    2.30    4.40
   1  -6  13   -2.30    5.60
   1  -6  13    5.80    7.10
  -2   6 -13    3.10    4.60
  -2   6 -13    0.10    6.60
   2  -6  13    3.40    7.20
   5   5 -13   -0.30    6.60
  -5  -5  13    0.10    4.70
  -5  -5  13   -1.90    5.70
   4   5 -13    3.80    4.80
  -4  -5  13    4.80    4.70
  -4  -5  13    7.50    7.70
  -4  -5  13    3.70    6.00
   3   5 -13   16.80    4.90
  -3  -5  13   13.20    4.10
  -3  -5  13   10.30    6.10
  -3  -5  13    4.40    7.10
   2   5 -13   -4.90    5.20
   2   5 -13   -0.50    4.20
  -2  -5  13    5.20    6.90
  -2  -5  13   -0.30    5.70
   1   5 -13   13.30    6.20
   1   5 -13   14.00    3.60
   1   5 -13   11.40    4.30
  -1  -5  13   22.50    5.90
  -1  -5  13   24.20    5.20
   0   5 -13   -0.20    4.20
   0   5 -13    4.40    3.70
   0   5 -13    0.40    3.80
   0  -5  13    5.10    6.00
   0  -5  13   -3.60    6.00
  -1   5 -13   18.80    5.50
  -1   5 -13   18.80    5.10
  -1   5 -13   25.20    4.70
   1  -5  13   23.80    5.30
   1  -5  13   17.40    6.30
  -2   5 -13   23.70    6.80
  -2   5 -13   43.40    6.30
  -2   5 -13   37.10    5.80
   2  -5  13   41.40    6.10
  -3   5 -13    2.20    4.80
  -3   5 -13   -2.70    6.20
   3  -5  13   -0.30    6.10
   5   4 -13    0.10    5.80
  -5  -4  13    1.10    5.10
  -5  -4  13    2.90    7.30
   4   4 -13   -0.40    5.60
  -4  -4  13   -0.70    6.30
  -4  -4  13   -2.90    5.20
  -4  -4  13   -0.30    4.00
   3   4 -13    9.30    5.80
  -3  -4  13   -1.30    4.40
  -3  -4  13   13.10    4.50
  -3  -4  13    5.00    3.30
   2   4 -13   28.60    4.30
   2   4 -13   23.30    6.00
   2   4 -13   25.60    5.60
  -2  -4  13   24.70    3.50
  -2  -4  13   34.80    5.20
  -2  -4  13   22.70    6.90
   1   4 -13   87.99    9.20
   1   4 -13   82.39    6.80
   1   4 -13   87.59    7.80
  -1  -4  13   75.69    6.90
  -1  -4  13   77.09    8.60
   0   4 -13    8.70    3.40
   0   4 -13   10.70    4.80
   0   4 -13   11.00    5.40
   0  -4  13    8.70    4.20
   0  -4  13   10.60    5.70
  -1   4 -13    1.40    4.30
  -1   4 -13   -7.60    4.70
  -1   4 -13    2.00    3.70
   1  -4  13    6.60    4.00
  -2   4 -13   15.30    4.50
  -2   4 -13   12.90    4.60
  -2   4 -13   13.10    5.80
   2  -4  13    9.60    5.60
  -3   4 -13   35.20    6.00
  -3   4 -13   33.10    5.80
   3  -4  13   43.30    6.30
  -4   4 -13    5.70    6.00
  -4   4 -13    8.70    4.50
   4  -4  13   10.60    6.00
   6   3 -13   -1.10    4.60
  -6  -3  13    7.60    6.20
  -6  -3  13    0.00    5.40
   5   3 -13    2.10    5.80
  -5  -3  13   10.10    4.40
  -5  -3  13    3.10    5.00
  -5  -3  13    4.80    4.70
   4   3 -13    3.80    4.10
   4   3 -13   10.80    4.40
  -4  -3  13    9.90    6.40
  -4  -3  13   20.50    5.80
  -4  -3  13   16.00    4.70
   3   3 -13   14.90    4.30
   3   3 -13   34.80    5.80
  -3  -3  13   30.40    4.80
  -3  -3  13   24.40    4.30
  -3  -3  13   12.40    6.10
   2   3 -13    3.60    3.60
   2   3 -13    4.80    3.50
   2   3 -13    1.60    4.60
  -2  -3  13    1.70    4.00
  -2  -3  13    7.60    3.90
  -2  -3  13    8.20    3.00
   1   3 -13   33.80    4.30
   1   3 -13   29.80    4.60
   1   3 -13   35.90    5.30
  -1  -3  13   34.50    4.80
  -1  -3  13   31.00    3.10
  -1  -3  13   26.70    6.20
   0   3 -13    0.10    3.10
   0   3 -13   -1.10    3.80
   0   3 -13    1.40    3.30
   0  -3  13   -1.30    3.50
   0  -3  13    3.10    4.60
  -1   3 -13   74.39    6.90
  -1   3 -13   67.99    6.20
  -1   3 -13   62.29    6.50
   1  -3  13   66.59    6.60
  -2   3 -13   42.00    5.50
  -2   3 -13   40.60    4.90
  -2   3 -13   43.90    6.40
   2  -3  13   51.19    6.10
  -3   3 -13   13.20    5.40
  -3   3 -13   20.40    5.30
   3  -3  13   17.20    4.90
  -4   3 -13   16.00    5.70
  -4   3 -13   25.10    6.40
   4  -3  13   19.20    5.00
  -5   3 -13   37.20    7.30
  -5   3 -13   40.60    7.60
   5  -3  13   45.20    5.90
   5  -3  13   30.80    6.10
   6   2 -13   -0.40    6.30
  -6  -2  13   -4.50    6.60
  -6  -2  13    1.00    6.30
   5   2 -13   -1.90    5.50
  -5  -2  13    1.80    4.60
  -5  -2  13    2.50    5.10
  -5  -2  13    3.60    5.20
   4   2 -13   -4.50    4.10
   4   2 -13    2.90    5.20
  -4  -2  13    4.90    4.40
  -4  -2  13    3.30    5.80
  -4  -2  13    3.90    3.80
   3   2 -13    8.70    4.80
   3   2 -13    2.90    4.30
  -3  -2  13    1.90    4.70
  -3  -2  13    1.70    3.40
  -3  -2  13    7.00    5.50
   2   2 -13   65.59    7.20
   2   2 -13   65.79    6.20
   2   2 -13   69.99    6.80
  -2  -2  13   62.79    7.00
  -2  -2  13   70.49    5.80
  -2  -2  13   64.59    6.50
   1   2 -13  127.09    8.50
   1   2 -13  116.39    7.60
   1   2 -13  113.99    6.50
  -1  -2  13  113.49    9.50
  -1  -2  13  121.69    6.10
  -1  -2  13  108.59    6.90
   0   2 -13  135.19    8.60
   0   2 -13  135.89    6.60
   0   2 -13  131.69    7.90
   0  -2  13  146.29    8.30
   0  -2  13  106.59    5.00
   0  -2  13  132.89    8.50
  -1   2 -13    6.90    4.10
  -1   2 -13    8.60    3.50
  -1   2 -13   11.30    3.80
   1  -2  13    7.80    4.30
  -2   2 -13   65.09    5.40
  -2   2 -13   76.59    7.60
  -2   2 -13   61.69    7.00
   2  -2  13   62.19    5.30
  -3   2 -13   82.99    8.20
  -3   2 -13   71.39    7.30
   3  -2  13   74.39    6.60
  -4   2 -13    2.80    3.70
  -4   2 -13   -6.10    4.70
   4  -2  13    5.20    4.50
   4  -2  13    4.10    3.60
  -5   2 -13   12.20    6.00
  -5   2 -13    8.80    5.60
   5  -2  13    8.90    4.10
   5  -2  13    3.60    5.20
   6   1 -13    0.60    4.50
  -6  -1  13    1.30    6.10
  -6  -1  13    2.60    6.10
   5   1 -13   26.90    6.40
  -5  -1  13   21.20    5.80
  -5  -1  13   16.20    5.00
  -5  -1  13   24.20    5.90
   4   1 -13    2.40    5.20
   4   1 -13   17.90    5.50
  -4  -1  13   17.20    5.80
  -4  -1  13   20.00    5.00
  -4  -1  13   13.40    4.20
   3   1 -13    0.50    4.30
   3   1 -13    0.60    4.40
  -3  -1  13   -3.40    4.60
  -3  -1  13   -0.20    3.50
  -3  -1  13    3.10    4.60
   2   1 -13   16.90    4.40
   2   1 -13   12.00    3.40
  -2  -1  13   13.60    3.90
  -2  -1  13    8.40    3.60
  -2  -1  13   10.50    3.40
   1   1 -13  104.89    7.50
   1   1 -13   99.79    6.80
   1   1 -13   98.29    7.40
  -1  -1  13  100.09    8.70
  -1  -1  13  104.39    6.10
  -1  -1  13  113.19    6.60
   0   1 -13   39.80    4.70
   0   1 -13   49.40    4.90
   0   1 -13   49.20    4.80
   0  -1  13   50.49    4.70
   0  -1  13   39.70    3.50
  -1   1 -13   22.40    3.60
  -1   1 -13   19.20    3.40
  -1   1 -13   14.80    3.40
   1  -1  13   20.40    3.50
  -2   1 -13    1.00    2.80
  -2   1 -13    3.30    3.50
  -2   1 -13   -0.50    3.60
   2  -1  13    5.50    3.70
  -3   1 -13   70.09    7.30
  -3   1 -13   63.39    7.40
   3  -1  13   75.79    5.80
  -4   1 -13   88.39    7.50
  -4   1 -13   86.09    7.20
   4  -1  13   92.59    7.50
   4  -1  13   90.19    5.90
  -5   1 -13   42.00    6.90
  -5   1 -13   41.70    6.50
   5  -1  13   46.90    4.40
   5  -1  13   40.00    6.90
  -6   1 -13    5.20    6.00
  -6   1 -13    1.30    4.20
   6  -1  13   10.80    6.40
   6   0 -13    3.90    6.60
  -6   0  13    2.80    5.90
  -6   0  13    6.30    5.20
   5   0 -13    6.70    5.70
  -5   0  13   -2.50    5.30
  -5   0  13   10.00    4.60
  -5   0  13   -1.90    5.10
   4   0 -13   15.20    5.50
   4   0 -13    7.00    5.50
  -4   0  13   10.70    5.40
  -4   0  13   18.20    4.40
  -4   0  13    8.40    5.10
   3   0 -13    4.20    3.60
   3   0 -13   -0.10    3.30
  -3   0  13    1.80    2.90
  -3   0  13    4.60    4.70
  -3   0  13    3.20    3.50
   2   0 -13   85.39    7.90
   2   0 -13   80.29    6.70
  -2   0  13   74.59    7.40
  -2   0  13   78.69    6.40
   1   0 -13   22.00    4.20
   1   0 -13   13.00    3.30
   1   0 -13   12.30    3.50
  -1   0  13   16.90    3.60
  -1   0  13   16.70    3.50
   0   0 -13   71.89    6.60
   0   0 -13   66.29    5.40
   0   0 -13   70.29    3.70
   0   0 -13   64.39    5.90
   0   0  13   67.09    5.20
   0   0  13   62.29    5.30
  -1   0 -13  143.29    7.80
  -1   0 -13  147.39    6.80
  -1   0 -13  140.69    5.30
  -1   0 -13  143.49    7.90
   1   0  13  152.38    7.70
  -2   0 -13  127.19    7.50
  -2   0 -13  121.39    8.30
  -2   0 -13  124.39    6.00
   2   0  13  123.49    5.90
   2   0  13  127.09    6.90
  -3   0 -13   38.40    5.40
  -3   0 -13   42.70    5.00
   3   0  13   45.00    4.30
  -4   0 -13   -1.30    3.20
  -4   0 -13   -4.10    2.70
   4   0  13   -3.90    2.90
  -5   0 -13   17.10    5.50
  -5   0 -13   20.50    5.30
   5   0  13   19.50    3.20
   5   0  13   18.30    5.10
  -6   0 -13   11.40    4.80
  -6   0 -13   26.20    6.20
   6   0  13   25.30    7.20
   5  -1 -13    4.50    6.00
  -5   1  13    0.70    5.70
  -5   1  13   -4.00    3.80
   4  -1 -13   -2.40    4.40
   4  -1 -13    7.20    4.20
  -4   1  13    3.10    5.10
  -4   1  13    1.00    3.80
   3  -1 -13   -1.00    4.50
   3  -1 -13   -6.50    4.90
  -3   1  13   -0.10    4.40
  -3   1  13    1.00    4.80
   2  -1 -13   22.50    5.20
   2  -1 -13   20.30    3.10
   2  -1 -13   29.80    4.80
  -2   1  13   30.30    4.70
  -2   1  13   26.90    5.20
   1  -1 -13  146.29    7.70
   1  -1 -13  141.29    9.30
  -1   1  13  162.08    8.50
  -1   1  13  140.29    8.10
   0  -1 -13    5.40    2.60
   0  -1 -13    7.40    3.80
   0  -1 -13    7.00    3.30
   0   1  13    1.90    3.00
   0   1  13    7.20    3.90
  -1  -1 -13   12.90    3.10
  -1  -1 -13    8.90    2.00
  -1  -1 -13   10.90    3.20
  -1  -1 -13    5.10    2.80
   1   1  13   12.30    3.80
  -2  -1 -13   33.10    4.00
  -2  -1 -13   39.60    3.90
  -2  -1 -13   33.30    4.90
   2   1  13   38.80    4.60
   2   1  13   36.30    3.50
  -3  -1 -13  102.59    6.70
  -3  -1 -13  101.59    8.20
   3   1  13   98.99    5.70
  -4  -1 -13  114.99    9.20
  -4  -1 -13  118.09    7.80
   4   1  13  115.49    6.10
  -5  -1 -13    6.20    5.00
  -5  -1 -13    6.60    4.20
   5   1  13   -1.60    4.00
   5   1  13    6.10    2.50
  -6  -1 -13    1.00    5.30
  -6  -1 -13   -1.80    4.40
   6   1  13   -2.00    4.40
   5  -2 -13    4.40    6.30
  -5   2  13    3.90    6.70
  -5   2  13   -0.20    4.20
   4  -2 -13   21.40    4.90
   4  -2 -13   12.70    5.60
  -4   2  13   40.70    6.70
  -4   2  13   14.90    6.20
   3  -2 -13   -1.30    3.40
   3  -2 -13   -6.40    3.80
  -3   2  13    3.60    3.80
  -3   2  13    4.80    3.90
   2  -2 -13   17.40    4.70
   2  -2 -13   15.80    3.10
   2  -2 -13    5.50    5.10
  -2   2  13   23.20    4.40
  -2   2  13   21.60    4.80
   1  -2 -13   17.50    3.40
   1  -2 -13    8.90    3.60
   1  -2 -13   11.00    3.00
  -1   2  13    8.50    4.00
  -1   2  13   15.10    4.80
   0  -2 -13   98.09    8.10
   0  -2 -13  105.49    7.90
   0  -2 -13  103.69    6.20
   0   2  13  103.89    7.60
   0   2  13   90.69    7.10
  -1  -2 -13  179.18    7.30
  -1  -2 -13  191.08   10.40
  -1  -2 -13  187.58    8.00
   1   2  13  180.78    6.80
   1   2  13  194.28    8.80
  -2  -2 -13   33.90    3.50
  -2  -2 -13   42.00    3.90
  -2  -2 -13   34.90    4.40
   2   2  13   43.40    4.50
   2   2  13   33.00    3.60
  -3  -2 -13   19.70    3.90
  -3  -2 -13   23.30    3.30
   3   2  13   18.10    3.00
   3   2  13   23.50    3.80
  -4  -2 -13    4.80    4.30
  -4  -2 -13    4.20    3.20
   4   2  13    7.70    3.70
   4   2  13    6.40    2.70
  -5  -2 -13   29.10    4.60
  -5  -2 -13   33.20    5.90
   5   2  13   35.20    5.00
  -6  -2 -13   22.90    5.00
  -6  -2 -13   27.50    5.20
   6   2  13   26.00    5.10
   6   2  13   16.40    6.80
   5  -3 -13   15.00    5.40
  -5   3  13   10.40    6.60
  -5   3  13    9.50    7.50
   4  -3 -13   -3.10    4.10
  -4   3  13  -19.00    5.60
  -4   3  13   -1.40    5.80
   3  -3 -13   18.00    5.60
   3  -3 -13    9.60    5.00
  -3   3  13    9.00    5.80
  -3   3  13   19.70    6.10
   2  -3 -13   17.20    4.80
   2  -3 -13   24.90    4.00
   2  -3 -13   28.40    4.50
  -2   3  13   28.50    4.90
  -2   3  13   17.80    4.40
   1  -3 -13   19.00    4.00
   1  -3 -13   25.40    4.00
   1  -3 -13   16.50    4.30
  -1   3  13   19.90    5.00
  -1   3  13   21.70    5.40
   0  -3 -13    4.10    3.30
   0  -3 -13   -4.30    3.30
   0  -3 -13    1.90    3.10
   0   3  13    1.60    3.10
   0   3  13    3.80    2.30
  -1  -3 -13   -0.70    2.20
  -1  -3 -13   -1.60    2.90
  -1  -3 -13   -0.20    3.60
   1   3  13   -0.10    2.30
   1   3  13    5.60    3.90
  -2  -3 -13   18.20    4.70
  -2  -3 -13   20.10    4.80
  -2  -3 -13   16.10    2.70
  -2  -3 -13   29.60    3.60
   2   3  13   24.40    4.10
   2   3  13   15.30    3.30
  -3  -3 -13   75.29    8.10
  -3  -3 -13   88.59    8.00
  -3  -3 -13   73.09    5.00
   3   3  13   76.59    5.30
   3   3  13   84.29    5.50
  -4  -3 -13   17.00    3.10
  -4  -3 -13   22.60    5.10
   4   3  13   27.00    3.60
   4   3  13   28.20    3.60
  -5  -3 -13    3.50    3.50
  -5  -3 -13   -3.50    4.30
   5   3  13    2.70    2.20
   5   3  13    5.30    3.10
  -6  -3 -13    5.10    4.10
   6   3  13   14.30    5.30
   6   3  13   15.70    5.10
   4  -4 -13   12.70    5.10
  -4   4  13   17.60    6.90
  -4   4  13   -6.70    6.70
   3  -4 -13   26.80    6.30
  -3   4  13   29.40    6.90
  -3   4  13   24.00    6.90
   2  -4 -13    2.00    3.40
   2  -4 -13    2.30    5.80
   2  -4 -13    0.10    4.90
  -2   4  13   -4.70    5.00
  -2   4  13    8.30    5.90
   1  -4 -13   -2.10    3.10
   1  -4 -13   -1.00    3.60
   1  -4 -13    2.70    3.30
  -1   4  13   -3.00    1.90
  -1   4  13    4.30    5.30
  -1   4  13   -4.10    4.90
   0  -4 -13  122.39    6.70
   0  -4 -13  129.49   10.40
   0  -4 -13  118.99    8.70
   0   4  13  124.49    5.50
   0   4  13  130.19    7.70
  -1  -4 -13   11.60    4.90
  -1  -4 -13   11.00    4.50
  -1  -4 -13   14.90    3.80
   1   4  13   10.40    2.90
   1   4  13    3.70    4.40
  -2  -4 -13    5.70    4.40
  -2  -4 -13    5.30    4.40
   2   4  13   -2.60    3.70
   2   4  13    1.80    2.30
  -3  -4 -13    2.30    4.70
  -3  -4 -13   -0.40    4.20
   3   4  13   -1.50    3.20
   3   4  13   -0.40    3.80
  -4  -4 -13   32.80    4.80
  -4  -4 -13   27.70    6.20
   4   4  13   38.60    4.30
   4   4  13   36.50    4.20
  -5  -4 -13   19.70    5.50
  -5  -4 -13   24.50    6.50
   5   4  13   19.90    3.90
  -6  -4 -13   13.40    5.50
  -6  -4 -13    4.00    6.40
   6   4  13    7.80    4.80
   3  -5 -13   -5.70    4.80
   3  -5 -13    2.70    6.30
  -3   5  13   -9.50    6.00
  -3   5  13    4.60    6.70
   2  -5 -13    2.60    4.80
   2  -5 -13    2.30    3.80
   2  -5 -13   -3.20    5.50
  -2   5  13    4.00    6.20
  -2   5  13    4.40    6.50
   1  -5 -13   -0.30    5.50
   1  -5 -13    6.90    4.30
   1  -5 -13    7.50    5.30
  -1   5  13    9.60    4.70
  -1   5  13   -2.40    5.50
   0  -5 -13    1.60    5.30
   0  -5 -13    2.50    4.60
   0  -5 -13    3.00    4.20
   0   5  13    1.00    2.40
   0   5  13    0.90    5.40
  -1  -5 -13   21.20    4.80
  -1  -5 -13   21.20    5.60
  -1  -5 -13   19.60    5.60
   1   5  13   15.00    3.30
   1   5  13   21.60    5.50
  -2  -5 -13   13.40    4.40
  -2  -5 -13   14.70    5.20
   2   5  13   16.30    4.90
   2   5  13   15.00    3.10
  -3  -5 -13   13.10    5.30
  -3  -5 -13   18.20    4.70
   3   5  13   13.80    4.10
   3   5  13   14.80    4.30
  -4  -5 -13   23.50    5.50
  -4  -5 -13   27.10    5.60
   4   5  13   33.30    5.20
   4   5  13   28.70    4.50
  -5  -5 -13    9.40    6.30
  -5  -5 -13   -0.40    4.70
   5   5  13   -0.10    4.80
  -6  -5 -13   -0.40    6.30
   2  -6 -13   -1.50    7.00
   2  -6 -13    5.30    5.40
   2  -6 -13   10.30    6.70
  -2   6  13    4.90    7.30
  -2   6  13    6.70    6.90
   1  -6 -13    1.20    4.80
   1  -6 -13   -4.10    5.60
   1  -6 -13   -0.30    6.20
  -1   6  13    3.50    4.90
   0  -6 -13   27.90    5.90
   0  -6 -13    6.70    5.80
   0  -6 -13   12.20    5.60
   0   6  13   19.10    5.30
   0   6  13   15.10    3.10
  -1  -6 -13    8.20    4.80
  -1  -6 -13    2.60    4.10
  -1  -6 -13    1.40    5.10
   1   6  13   10.60    3.50
   1   6  13   19.10    6.10
  -2  -6 -13    3.30    5.40
  -2  -6 -13   -2.30    5.00
   2   6  13   -3.30    3.50
   2   6  13    1.30    5.10
  -3  -6 -13   14.30    5.40
  -3  -6 -13    9.00    6.00
   3   6  13   14.20    5.40
   3   6  13   12.10    4.40
  -4  -6 -13    2.20    4.50
  -4  -6 -13   -4.90    4.70
   4   6  13    8.10    4.20
   4   6  13   -1.90    4.60
  -5  -6 -13    7.50    5.10
  -5  -6 -13    0.40    6.30
   5   6  13   -2.70    5.10
   1  -7 -13    0.50    6.10
   1  -7 -13   -3.70    5.20
   1  -7 -13   -4.10    6.80
  -1   7  13    5.90    7.80
   0  -7 -13    2.30    6.20
   0  -7 -13    5.60    5.80
   0  -7 -13    2.80    5.50
   0   7  13   -0.50    5.10
   0   7  13   -0.90    3.50
  -1  -7 -13    8.50    6.30
  -1  -7 -13   -7.60    5.60
   1   7  13    5.20    3.60
   1   7  13    4.70    6.50
  -2  -7 -13    8.40    6.20
  -2  -7 -13    3.30    5.70
   2   7  13   -0.50    3.90
   2   7  13    7.80    6.10
  -3  -7 -13    1.90    5.10
  -3  -7 -13    2.50    6.20
   3   7  13   -3.00    4.60
   3   7  13    3.30    5.60
  -4  -7 -13   -2.40    5.50
  -4  -7 -13   -0.10    6.50
   4   7  13   -5.50    5.20
   4   7  13   -0.60    4.80
   3   6 -14   -5.00    6.70
  -3  -6  14  -10.30    8.00
  -3  -6  14    3.80    6.70
   2   6 -14   26.00    5.80
   2   6 -14    9.90    7.20
  -2  -6  14    6.80    8.40
  -2  -6  14   29.30    6.20
   1   6 -14   -1.20    6.70
   1   6 -14    8.10    5.00
  -1  -6  14   -7.40    6.60
  -1  -6  14    1.80    6.00
   0   6 -14   -6.30    6.60
   0   6 -14   -1.80    5.90
   0  -6  14   -3.50    4.90
   0  -6  14    0.30    7.20
  -1   6 -14   -4.00    6.50
  -1   6 -14    1.20    4.40
   1  -6  14   -4.90    7.20
   4   5 -14   11.40    6.80
  -4  -5  14   -0.90    8.00
  -4  -5  14   19.70    6.70
   3   5 -14   -1.10    6.00
  -3  -5  14    3.70    7.60
  -3  -5  14    0.40    6.20
   2   5 -14    0.30    5.90
   2   5 -14   -8.00    5.80
  -2  -5  14   -2.10    4.40
  -2  -5  14   -6.60    4.90
   1   5 -14    3.00    5.60
   1   5 -14    3.80    4.70
  -1  -5  14    0.60    7.10
  -1  -5  14   12.40    6.70
   0   5 -14   16.00    4.40
   0   5 -14    9.10    4.90
   0   5 -14   17.40    4.70
   0  -5  14   16.50    7.30
   0  -5  14   18.30    6.90
  -1   5 -14   36.30    5.50
  -1   5 -14   45.70    6.60
  -1   5 -14   42.40    6.50
   1  -5  14   36.20    6.10
  -2   5 -14    3.40    4.70
  -2   5 -14   -5.40    6.20
   2  -5  14   -3.10    6.20
  -3   5 -14    0.60    5.00
  -3   5 -14   -2.20    6.30
   3  -5  14  -12.20    6.10
   5   4 -14    1.50    4.90
  -5  -4  14    1.10    5.60
  -5  -4  14    0.00    5.10
   4   4 -14    8.40    6.30
  -4  -4  14   -0.20    4.70
  -4  -4  14  -14.30    6.70
  -4  -4  14    2.60    5.70
   3   4 -14   23.50    6.20
  -3  -4  14   -2.30    6.90
  -3  -4  14    9.30    4.60
  -3  -4  14   15.10    3.80
   2   4 -14   44.10    5.20
   2   4 -14   60.19    6.10
   2   4 -14   54.19    6.40
  -2  -4  14   37.40    6.60
  -2  -4  14   57.59    6.40
   1   4 -14    0.60    3.50
   1   4 -14    2.60    5.30
   1   4 -14    3.20    3.30
  -1  -4  14    8.20    5.70
  -1  -4  14    9.00    6.70
   0   4 -14    7.60    3.70
   0   4 -14    8.00    5.60
   0   4 -14    6.80    3.70
   0  -4  14    9.10    5.80
   0  -4  14    1.50    5.90
  -1   4 -14    6.90    4.10
  -1   4 -14    5.00    4.70
  -1   4 -14   -6.90    5.30
   1  -4  14    9.70    4.50
  -2   4 -14   27.20    5.20
  -2   4 -14   32.80    5.70
  -2   4 -14   27.00    6.70
   2  -4  14   42.60    6.80
  -3   4 -14   17.30    5.80
  -3   4 -14   24.20    6.90
   3  -4  14   37.10    6.40
  -4   4 -14    5.80    5.00
  -4   4 -14    3.00    5.60
   4  -4  14   -0.40    5.30
   5   3 -14    5.60    4.80
  -5  -3  14    0.40    7.10
  -5  -3  14    9.30    5.40
  -5  -3  14   14.60    6.20
   4   3 -14   13.40    6.10
  -4  -3  14    9.10    4.60
  -4  -3  14    9.40    5.60
  -4  -3  14    5.90    5.10
   3   3 -14    3.40    5.30
   3   3 -14   -6.70    3.40
  -3  -3  14    3.20    4.00
  -3  -3  14   -2.30    4.30
  -3  -3  14   -1.10    3.40
   2   3 -14    7.60    3.80
   2   3 -14    7.50    4.10
   2   3 -14    8.00    3.90
  -2  -3  14    5.10    5.80
  -2  -3  14    6.30    3.10
  -2  -3  14    7.40    4.10
   1   3 -14   19.10    4.40
   1   3 -14   12.40    3.80
   1   3 -14   15.00    3.90
  -1  -3  14   16.40    5.70
  -1  -3  14   10.40    4.50
   0   3 -14   37.80    5.20
   0   3 -14   30.90    4.40
   0   3 -14   28.80    4.40
   0  -3  14   36.40    6.10
   0  -3  14   21.00    6.10
  -1   3 -14   35.00    6.20
  -1   3 -14   45.60    5.50
  -1   3 -14   35.80    5.20
   1  -3  14   49.20    6.40
  -2   3 -14   -2.20    3.80
  -2   3 -14    1.70    3.80
  -2   3 -14   -0.90    4.10
   2  -3  14    4.70    5.10
  -3   3 -14   25.30    5.80
  -3   3 -14   30.40    5.40
   3  -3  14   17.00    5.40
  -4   3 -14   50.19    7.40
  -4   3 -14   47.50    6.40
   4  -3  14   51.79    6.10
   5   2 -14   -6.00    5.80
  -5  -2  14   -2.90    4.00
  -5  -2  14   -9.10    6.30
  -5  -2  14   -0.70    5.40
   4   2 -14   -5.00    5.00
   4   2 -14   -2.50    4.00
  -4  -2  14    3.40    4.50
  -4  -2  14   -2.40    4.20
  -4  -2  14   -2.20    5.30
   3   2 -14   43.40    5.90
   3   2 -14   51.59    6.40
  -3  -2  14   50.49    5.50
  -3  -2  14   47.90    6.20
  -3  -2  14   72.99    7.30
   2   2 -14   35.10    5.10
   2   2 -14   36.30    5.50
  -2  -2  14   31.00    6.00
  -2  -2  14   27.60    5.10
  -2  -2  14   34.60    3.80
   1   2 -14   -1.00    3.30
   1   2 -14   -0.60    4.10
   1   2 -14   -2.70    2.90
  -1  -2  14   -1.40    3.40
  -1  -2  14    3.90    3.60
  -1  -2  14   -3.30    2.50
   0   2 -14   50.39    5.90
   0   2 -14   48.30    5.40
   0   2 -14   35.40    4.90
   0  -2  14   46.40    5.20
  -1   2 -14   53.99    6.30
  -1   2 -14   73.09    7.10
  -1   2 -14   63.99    5.00
   1  -2  14   62.19    5.80
  -2   2 -14   77.39    7.80
  -2   2 -14   88.29    6.20
  -2   2 -14   92.19    7.20
   2  -2  14   90.39    7.30
  -3   2 -14   29.70    5.80
  -3   2 -14   24.00    4.50
   3  -2  14   31.20    5.00
  -4   2 -14   -4.80    5.10
  -4   2 -14   -0.50    3.80
   4  -2  14    4.20    4.00
  -5   2 -14   13.20    6.40
  -5   2 -14   18.30    6.40
   5  -2  14   15.40    5.90
   5  -2  14   18.40    4.10
   5   1 -14   11.40    6.20
  -5  -1  14   19.00    6.20
  -5  -1  14   12.60    6.00
  -5  -1  14    1.80    6.30
   4   1 -14    0.50    5.80
   4   1 -14    6.10    4.20
  -4  -1  14   14.60    5.00
  -4  -1  14    4.10    5.80
  -4  -1  14    2.70    5.40
   3   1 -14   -2.90    3.40
   3   1 -14   -4.30    4.40
  -3  -1  14    1.70    5.30
  -3  -1  14    4.30    5.20
  -3  -1  14   -2.30    3.70
   2   1 -14   63.69    6.20
   2   1 -14   65.79    7.40
  -2  -1  14   64.49    6.40
  -2  -1  14   73.39    6.90
  -2  -1  14   61.09    7.10
   1   1 -14   20.40    3.80
   1   1 -14   21.60    4.70
   1   1 -14   21.00    4.30
  -1  -1  14   24.70    4.30
  -1  -1  14   13.70    3.30
   0   1 -14   82.79    6.30
   0   1 -14   86.79    6.20
   0   1 -14   90.09    6.40
   0  -1  14   76.39    5.10
   0  -1  14   95.49    6.30
  -1   1 -14  110.99    8.20
  -1   1 -14  108.89    8.00
  -1   1 -14  106.79    6.50
   1  -1  14  122.29    7.80
  -2   1 -14   34.30    5.20
  -2   1 -14   29.20    4.00
  -2   1 -14   25.40    4.90
   2  -1  14   28.00    4.70
  -3   1 -14  109.39    8.60
  -3   1 -14  102.99    7.70
   3  -1  14  105.09    7.00
  -4   1 -14   39.40    5.40
  -4   1 -14   36.70    6.30
   4  -1  14   48.10    5.10
  -5   1 -14   10.80    5.60
  -5   1 -14   10.50    4.70
   5  -1  14   11.70    3.70
   5  -1  14   11.10    5.90
   5   0 -14    9.40    6.30
  -5   0  14    3.70    6.00
  -5   0  14    6.60    5.90
  -5   0  14   11.00    6.00
   4   0 -14   -3.10    5.30
   4   0 -14   -5.30    5.70
  -4   0  14    3.20    5.40
  -4   0  14    4.80    4.10
  -4   0  14    3.40    3.90
   3   0 -14   45.50    6.10
   3   0 -14   31.10    6.30
  -3   0  14   35.80    5.20
  -3   0  14   33.60    5.20
  -3   0  14   43.60    6.40
   2   0 -14   63.49    6.90
   2   0 -14   76.09    5.80
  -2   0  14   80.89    6.90
  -2   0  14   69.49    6.40
   1   0 -14   16.30    4.50
   1   0 -14   20.40    3.60
   1   0 -14   17.20    4.00
  -1   0  14   13.80    3.70
  -1   0  14    7.30    4.50
   0   0 -14  127.79    8.60
   0   0 -14  122.49    7.00
   0   0 -14  115.29    7.50
   0   0  14  122.69    6.90
   0   0  14  107.79    6.90
  -1   0 -14    1.20    2.80
  -1   0 -14    8.60    3.40
  -1   0 -14    3.20    3.20
   1   0  14   -2.30    3.80
  -2   0 -14  117.09    8.50
  -2   0 -14  112.79    6.00
  -2   0 -14  116.49    7.70
   2   0  14  109.19    7.10
  -3   0 -14    5.20    4.40
  -3   0 -14    3.10    3.80
   3   0  14    8.30    3.60
  -4   0 -14   12.90    5.10
  -4   0 -14    9.90    3.60
   4   0  14   12.20    3.50
  -5   0 -14   41.20    6.30
  -5   0 -14   39.40    5.70
   5   0  14   45.30    4.10
   5   0  14   36.10    7.00
  -6   0 -14   41.30    7.10
  -6   0 -14   37.60    7.40
   6   0  14   44.00    7.70
   5  -1 -14    5.30    6.40
  -5   1  14    3.00    4.50
  -5   1  14  -10.40    6.00
   4  -1 -14    1.80    4.20
   4  -1 -14    1.90    6.50
  -4   1  14   -2.90    5.20
  -4   1  14   -3.40    5.40
   3  -1 -14    4.70    4.30
   3  -1 -14   11.50    5.30
  -3   1  14   10.80    5.50
  -3   1  14    6.10    4.50
   2  -1 -14   36.10    5.40
   2  -1 -14   24.70    3.50
   2  -1 -14   32.10    6.00
  -2   1  14   26.10    5.70
  -2   1  14   24.90    4.70
   1  -1 -14   34.40    5.50
   1  -1 -14   41.70    4.40
  -1   1  14   34.90    4.70
  -1   1  14   37.90    5.60
   0  -1 -14   48.80    5.60
   0  -1 -14   46.20    4.30
   0  -1 -14   39.20    4.30
   0   1  14   39.60    4.80
   0   1  14   43.50    4.70
  -1  -1 -14    3.20    2.80
  -1  -1 -14   -1.90    3.00
  -1  -1 -14    0.80    2.90
   1   1  14    1.20    2.80
  -2  -1 -14   75.79    6.10
  -2  -1 -14   79.89    7.80
  -2  -1 -14   79.19    5.20
   2   1  14   75.59    6.30
  -3  -1 -14   78.99    6.30
  -3  -1 -14   72.39    6.60
   3   1  14   67.59    6.20
  -4  -1 -14   20.60    4.40
  -4  -1 -14   16.20    4.40
   4   1  14   15.80    3.50
  -5  -1 -14   -5.00    4.00
  -5  -1 -14   -0.20    3.70
   5   1  14   -0.40    2.60
  -6  -1 -14   17.50    5.40
  -6  -1 -14    3.40    5.70
   6   1  14   11.70    5.40
   5  -2 -14   12.00    5.20
  -5   2  14    0.90    6.90
  -5   2  14   -2.30    6.10
   4  -2 -14   30.70    8.30
   4  -2 -14   51.89    6.20
  -4   2  14   67.09    8.00
  -4   2  14   36.40    7.20
   3  -2 -14   13.00    6.40
   3  -2 -14   10.30    4.00
  -3   2  14   11.00    4.20
  -3   2  14   14.90    4.60
   2  -2 -14    9.20    4.70
   2  -2 -14    6.70    2.90
   2  -2 -14    6.40    5.30
  -2   2  14    6.60    3.90
  -2   2  14    2.80    3.50
   1  -2 -14  110.29    8.00
   1  -2 -14   96.19    6.20
   1  -2 -14  108.79    9.30
  -1   2  14  102.59    8.40
  -1   2  14  104.19    8.50
   0  -2 -14   21.00    4.00
   0  -2 -14   18.40    4.10
   0  -2 -14   22.30    4.20
   0   2  14   22.40    4.90
   0   2  14   21.80    4.60
  -1  -2 -14   26.90    3.60
  -1  -2 -14   26.40    3.90
  -1  -2 -14   26.00    4.30
   1   2  14   31.20    4.80
  -2  -2 -14   13.90    4.60
  -2  -2 -14   17.90    3.30
  -2  -2 -14    9.70    2.90
   2   2  14   16.20    3.90
   2   2  14   12.40    2.50
  -3  -2 -14   11.60    3.50
  -3  -2 -14   17.40    4.00
   3   2  14   17.90    3.80
   3   2  14   17.20    4.00
  -4  -2 -14   33.70    5.00
  -4  -2 -14   35.40    4.70
   4   2  14   40.90    4.00
   4   2  14   32.30    4.00
  -5  -2 -14   31.20    4.90
  -5  -2 -14   38.20    5.50
   5   2  14   52.19    5.70
   5   2  14   42.80    3.80
  -6  -2 -14   18.20    6.10
  -6  -2 -14   19.70    5.00
   6   2  14   17.50    5.90
   4  -3 -14    2.70    4.70
   4  -3 -14   -1.40    5.20
  -4   3  14    2.30    4.60
  -4   3  14   -3.00    6.40
   3  -3 -14   10.90    6.80
   3  -3 -14    3.90    4.20
  -3   3  14    0.40    4.30
  -3   3  14   -0.50    5.70
   2  -3 -14   30.40    6.80
   2  -3 -14   25.80    4.20
   2  -3 -14   39.80    5.10
  -2   3  14   33.00    6.20
  -2   3  14   41.30    6.70
   1  -3 -14   21.80    4.00
   1  -3 -14   23.50    4.80
   1  -3 -14   26.20    4.40
  -1   3  14   21.40    5.50
  -1   3  14   29.70    5.80
   0  -3 -14    3.40    3.70
   0  -3 -14    5.20    3.70
   0  -3 -14    4.80    3.90
   0   3  14    4.70    2.30
   0   3  14    1.80    4.60
  -1  -3 -14   23.40    4.00
  -1  -3 -14   17.50    4.70
  -1  -3 -14   14.80    5.10
   1   3  14   20.70    3.20
   1   3  14   20.50    4.90
  -2  -3 -14   72.99    5.50
  -2  -3 -14   80.79    9.50
  -2  -3 -14   69.89    4.90
  -2  -3 -14   68.79    6.70
   2   3  14   67.89    4.90
   2   3  14   67.39    6.30
  -3  -3 -14   99.89    9.20
  -3  -3 -14   87.19    8.60
  -3  -3 -14   88.89    5.80
   3   3  14   90.09    6.70
   3   3  14   87.79    5.10
  -4  -3 -14    4.80    4.70
  -4  -3 -14    2.20    2.90
   4   3  14   12.00    4.00
   4   3  14    9.30    3.40
  -5  -3 -14    5.90    3.90
   5   3  14    6.60    4.40
  -6  -3 -14    8.50    5.50
  -6  -3 -14    9.50    5.30
   6   3  14   11.10    5.10
  -4   4  14   12.70    7.60
  -4   4  14    7.50    5.40
   3  -4 -14    3.10    4.40
   3  -4 -14   -2.40    6.70
  -3   4  14   -8.70    4.40
  -3   4  14   10.20    6.70
   2  -4 -14    0.90    3.90
   2  -4 -14   -0.10    3.50
   2  -4 -14   -0.50    4.40
  -2   4  14   -8.30    4.10
  -2   4  14    3.70    5.80
   1  -4 -14   22.40    4.70
   1  -4 -14   20.20    6.20
   1  -4 -14   30.20    5.70
  -1   4  14   25.50    5.20
  -1   4  14   23.10    5.10
   0  -4 -14   50.19    5.70
   0  -4 -14   37.20    5.10
   0  -4 -14   41.20    5.70
   0   4  14   42.90    3.60
   0   4  14   52.79    6.60
  -1  -4 -14   19.70    5.40
  -1  -4 -14   12.90    5.00
  -1  -4 -14   14.80    3.20
   1   4  14    8.30    3.00
   1   4  14   22.10    5.20
  -2  -4 -14    2.50    3.60
  -2  -4 -14    0.90    4.60
   2   4  14    2.60    4.10
   2   4  14   -2.30    2.20
  -3  -4 -14   -1.20    4.90
  -3  -4 -14    1.40    3.50
   3   4  14    3.70    2.70
   3   4  14   -0.20    4.10
  -4  -4 -14   18.10    4.40
  -4  -4 -14   16.80    6.20
   4   4  14   22.20    3.90
   4   4  14   15.30    4.60
  -5  -4 -14   11.30    6.40
  -5  -4 -14   14.80    5.50
   5   4  14   14.20    4.90
  -6  -4 -14    3.80    6.70
   3  -5 -14    3.30    4.90
   3  -5 -14   -5.30    7.10
  -3   5  14   -7.70    6.40
  -3   5  14    8.50    5.50
   2  -5 -14   -3.70    6.50
   2  -5 -14    0.70    5.80
   2  -5 -14    3.40    4.80
  -2   5  14    1.30    6.20
  -2   5  14    2.60    5.00
   1  -5 -14   -0.80    4.10
   1  -5 -14   -1.70    5.20
   1  -5 -14   -2.00    6.00
  -1   5  14   -2.70    6.10
   0  -5 -14    3.50    3.70
   0  -5 -14   -4.10    5.50
   0  -5 -14   -3.60    4.40
   0   5  14    9.80    5.80
   0   5  14   -1.40    2.80
  -1  -5 -14   11.20    4.50
  -1  -5 -14    6.20    4.90
  -1  -5 -14    2.30    5.40
   1   5  14    0.80    3.00
   1   5  14    5.00    5.50
  -2  -5 -14   20.80    6.10
  -2  -5 -14   21.80    5.90
   2   5  14   15.10    5.00
   2   5  14   15.40    3.70
  -3  -5 -14    7.30    5.00
  -3  -5 -14   11.60    5.80
   3   5  14    5.10    4.00
   3   5  14   10.40    4.20
  -4  -5 -14   -0.20    5.50
  -4  -5 -14    2.10    5.00
   4   5  14    0.30    3.30
   4   5  14    6.60    3.80
  -5  -5 -14    1.00    6.00
  -5  -5 -14    4.60    5.10
   5   5  14    5.00    3.80
   2  -6 -14    6.30    5.70
   2  -6 -14   22.60    5.80
  -2   6  14   29.40    7.90
  -2   6  14   20.40    6.30
   1  -6 -14    1.50    6.70
   1  -6 -14   14.80    5.10
   1  -6 -14    0.80    4.80
  -1   6  14    6.10    7.20
   0  -6 -14   10.50    5.40
   0  -6 -14    5.50    6.50
   0  -6 -14    5.50    5.30
   0   6  14    2.70    6.50
   0   6  14    8.50    3.10
  -1  -6 -14    3.00    5.60
  -1  -6 -14   -6.10    5.40
   1   6  14    8.10    4.70
   1   6  14    2.20    3.30
  -2  -6 -14   -2.10    5.50
  -2  -6 -14    6.50    5.70
   2   6  14    5.80    5.50
   2   6  14   -0.80    3.60
  -3  -6 -14    4.80    5.40
  -3  -6 -14    2.30    4.40
   3   6  14    3.00    4.40
   3   6  14    6.60    5.30
  -4  -6 -14    1.10    5.10
  -4  -6 -14   -0.60    6.40
   4   6  14    7.30    4.50
   4   6  14    1.30    3.70
   0  -7 -14    0.40    6.70
   0  -7 -14   -3.90    5.70
   0   7  14    5.40    3.40
   0   7  14   -2.60    7.20
  -1  -7 -14    6.00    6.20
  -1  -7 -14    0.40    6.40
   1   7  14    3.40    3.80
   1   7  14    4.80    6.60
  -2  -7 -14    2.70    6.50
  -2  -7 -14    2.60    5.70
   2   7  14   -1.30    4.10
   2   7  14   -9.20    5.70
  -3  -7 -14    4.20    6.60
  -3  -7 -14   -3.10    5.30
   3   7  14   13.20    6.00
   3   7  14    5.90    5.10
   2   6 -15   -9.30    4.90
   2   6 -15    1.80    6.90
  -2  -6  15  -14.20    8.00
   1   6 -15   -1.50    5.10
   1   6 -15   11.20    6.80
  -1  -6  15    7.60    7.60
  -1  -6  15    6.60    8.90
   0   6 -15   -3.30    6.90
   0   6 -15    5.90    5.00
   0  -6  15  -12.50    7.10
   0  -6  15    7.40    7.70
   3   5 -15   -2.30    6.50
  -3  -5  15   -7.60    5.80
  -3  -5  15    3.20    4.90
   2   5 -15   -5.30    4.30
   2   5 -15   -2.20    4.40
  -2  -5  15   -3.00    7.70
  -2  -5  15   -1.10    6.40
   1   5 -15    2.60    4.40
   1   5 -15    1.60    4.70
  -1  -5  15    3.90    4.90
  -1  -5  15   -7.20    5.20
   0   5 -15   16.80    4.50
   0   5 -15   20.10    6.30
   0   5 -15   13.20    6.80
   0  -5  15   20.90    7.60
   0  -5  15   22.40    5.90
  -1   5 -15    7.80    4.60
  -1   5 -15    1.10    4.80
  -1   5 -15    1.90    5.50
   1  -5  15   15.80    7.20
  -2   5 -15    0.10    4.90
  -2   5 -15  -14.90    6.00
   2  -5  15   -7.90    6.60
   4   4 -15   -3.80    6.30
  -4  -4  15    8.80    6.40
  -4  -4  15    4.50    4.60
  -4  -4  15    2.80    5.90
   3   4 -15    8.10    4.80
  -3  -4  15    2.50    5.40
  -3  -4  15    7.40    6.20
   2   4 -15    2.10    5.90
   2   4 -15   15.10    6.20
  -2  -4  15   11.30    6.50
  -2  -4  15    9.00    5.60
   1   4 -15    1.60    3.60
   1   4 -15    0.00    4.10
   1   4 -15   -7.30    5.10
  -1  -4  15    5.10    5.00
  -1  -4  15   -0.70    4.30
   0   4 -15    8.20    4.00
   0   4 -15    0.90    5.80
   0   4 -15   -2.40    5.10
   0  -4  15    1.30    4.60
   0  -4  15    3.50    5.90
  -1   4 -15   21.00    4.90
  -1   4 -15   28.30    5.80
  -1   4 -15   20.20    6.60
   1  -4  15   20.70    6.70
  -2   4 -15   35.60    6.00
  -2   4 -15   26.60    5.80
   2  -4  15   36.80    7.10
  -3   4 -15   11.20    5.20
  -3   4 -15   18.70    5.90
   3  -4  15    8.30    5.90
   5   3 -15   11.80    7.20
  -5  -3  15  -10.40    7.00
  -5  -3  15   -2.50    5.40
   4   3 -15   10.00    6.50
  -4  -3  15   -3.90    6.80
  -4  -3  15    8.10    4.60
  -4  -3  15   -2.50    4.30
   3   3 -15    4.30    4.20
   3   3 -15    1.00    4.00
  -3  -3  15    4.30    4.20
  -3  -3  15   -2.10    6.50
  -3  -3  15    8.30    4.20
   2   3 -15   -2.50    3.70
   2   3 -15    0.10    5.20
   2   3 -15   -3.60    5.00
  -2  -3  15    3.80    5.70
  -2  -3  15    6.70    6.40
   1   3 -15   49.20    6.30
   1   3 -15   45.90    6.70
   1   3 -15   66.89    6.90
  -1  -3  15   45.40    5.80
  -1  -3  15   40.40    7.60
   0   3 -15   80.99    7.60
   0   3 -15   61.89    6.60
   0   3 -15   72.29    7.30
   0  -3  15   69.59    6.60
  -1   3 -15    3.40    4.20
  -1   3 -15    0.50    5.40
  -1   3 -15   -0.20    4.10
   1  -3  15    8.20    5.50
  -2   3 -15    9.10    5.00
  -2   3 -15   13.80    5.90
   2  -3  15   16.30    5.70
  -3   3 -15   31.20    6.40
  -3   3 -15   27.80    6.70
   3  -3  15   28.30    6.00
  -4   3 -15   16.50    6.60
  -4   3 -15   22.00    6.60
   4  -3  15   23.20    6.20
   5   2 -15   -1.20    6.50
  -5  -2  15    1.50    5.50
  -5  -2  15   -7.20    6.70
  -5  -2  15    1.00    6.00
   4   2 -15    4.60    6.00
   4   2 -15    3.20    5.10
  -4  -2  15   12.00    4.90
  -4  -2  15   -4.20    6.30
  -4  -2  15    3.30    5.80
   3   2 -15   48.20    5.70
   3   2 -15   44.10    6.30
  -3  -2  15   52.59    7.10
  -3  -2  15   42.30    5.40
  -3  -2  15   42.20    7.50
   2   2 -15    4.00    4.90
   2   2 -15   -1.50    4.00
  -2  -2  15   -1.00    5.30
  -2  -2  15   -5.10    3.10
  -2  -2  15    0.50    4.00
   1   2 -15    6.50    4.70
   1   2 -15    2.50    4.50
   1   2 -15   12.80    4.50
  -1  -2  15    9.40    5.30
  -1  -2  15   -2.30    5.30
   0   2 -15   -1.20    4.50
   0   2 -15   -0.60    2.80
   0   2 -15   -5.30    2.80
   0  -2  15    6.30    5.00
  -1   2 -15   83.69    6.80
  -1   2 -15   76.19    7.00
  -1   2 -15   78.69    6.70
   1  -2  15  102.29    8.30
  -2   2 -15   59.99    7.00
  -2   2 -15   42.10    5.30
  -2   2 -15   51.39    5.20
   2  -2  15   65.39    6.60
  -3   2 -15    6.40    4.90
  -3   2 -15   10.40    4.30
   3  -2  15    4.90    4.50
  -4   2 -15   17.70    4.90
  -4   2 -15   10.40    5.80
   4  -2  15    7.10    4.30
   5   1 -15    1.60    6.30
  -5  -1  15    1.60    6.00
  -5  -1  15   -6.70    6.10
  -5  -1  15   -3.70    5.50
   4   1 -15   -0.30    5.50
   4   1 -15   -2.00    5.70
  -4  -1  15    4.00    5.80
  -4  -1  15   -2.90    4.80
  -4  -1  15   -2.50    4.30
   3   1 -15    1.80    5.10
   3   1 -15   -1.00    4.90
  -3  -1  15    5.50    4.30
  -3  -1  15    3.20    4.20
  -3  -1  15   -2.00    3.90
   2   1 -15   13.50    4.00
   2   1 -15   35.40    5.60
  -2  -1  15   19.10    5.70
  -2  -1  15   14.40    5.80
  -2  -1  15   13.70    3.80
   1   1 -15   81.19    7.20
   1   1 -15   76.99    7.80
   1   1 -15   77.39    7.80
  -1  -1  15   62.89    6.10
  -1  -1  15   86.49    6.80
   0   1 -15   24.30    3.80
   0   1 -15   20.90    4.00
   0   1 -15   22.80    4.00
   0  -1  15   25.20    5.30
  -1   1 -15    2.70    3.50
  -1   1 -15    3.70    3.20
  -1   1 -15    8.90    3.40
   1  -1  15    4.30    4.60
  -2   1 -15   23.70    4.00
  -2   1 -15   25.00    4.30
  -2   1 -15   23.80    5.10
   2  -1  15   33.00    5.20
  -3   1 -15   50.79    5.70
  -3   1 -15   47.20    6.50
   3  -1  15   56.89    5.70
  -4   1 -15   25.30    6.20
  -4   1 -15   18.00    5.40
   4  -1  15   27.40    4.90
  -5   1 -15   -5.70    5.60
  -5   1 -15    3.80    5.60
   5  -1  15   -3.50    3.40
   5   0 -15   39.00    7.60
  -5   0  15   25.10    7.00
  -5   0  15   20.90    5.50
  -5   0  15   20.90    6.90
   4   0 -15   -4.40    6.00
   4   0 -15    9.80    4.70
  -4   0  15    3.90    5.50
  -4   0  15   15.10    6.40
   3   0 -15   18.20    5.60
   3   0 -15   11.30    5.90
  -3   0  15   20.90    4.90
  -3   0  15    9.20    4.80
   2   0 -15    3.20    4.70
   2   0 -15   10.70    5.00
  -2   0  15   13.90    4.30
  -2   0  15   15.80    5.70
   1   0 -15    0.90    4.30
   1   0 -15    3.00    3.10
  -1   0  15   -1.60    3.50
  -1   0  15   -1.00    4.80
   0   0 -15   42.70    5.70
   0   0 -15   29.30    4.60
   0   0 -15   30.60    4.80
   0   0  15   32.10    4.20
   0   0  15   39.20    5.70
  -1   0 -15   38.80    5.50
  -1   0 -15   40.30    4.60
  -1   0 -15   35.30    4.90
   1   0  15   47.90    5.70
  -2   0 -15    8.20    4.10
  -2   0 -15    3.50    3.30
  -2   0 -15    0.10    3.10
   2   0  15    5.20    4.10
  -3   0 -15    1.70    4.00
  -3   0 -15   -1.70    4.40
   3   0  15    3.60    3.70
  -4   0 -15   38.10    5.10
  -4   0 -15   40.80    6.50
   4   0  15   40.90    4.90
  -5   0 -15   43.40    7.20
  -5   0 -15   44.40    6.60
   5   0  15   41.90    4.50
   5  -1 -15    5.80    6.90
  -5   1  15   -0.50    6.70
  -5   1  15    7.90    5.00
   4  -1 -15   -5.00    4.80
   4  -1 -15   -2.50    4.20
  -4   1  15   -4.70    5.70
  -4   1  15  -11.30    5.50
   3  -1 -15   12.00    6.10
   3  -1 -15   27.30    4.90
  -3   1  15    9.90    5.20
  -3   1  15    9.60    4.60
   2  -1 -15   25.40    6.20
   2  -1 -15   37.10    4.90
   2  -1 -15   42.70    5.80
  -2   1  15   24.10    5.20
  -2   1  15   33.40    6.30
   1  -1 -15    2.80    3.60
   1  -1 -15    5.10    4.30
  -1   1  15   -0.30    4.20
  -1   1  15    3.90    3.80
   0  -1 -15    1.60    3.90
   0  -1 -15   -0.40    3.20
   0  -1 -15    2.40    4.30
   0   1  15   -2.90    3.60
   0   1  15    0.20    4.50
  -1  -1 -15   36.50    4.50
  -1  -1 -15   38.00    4.40
  -1  -1 -15   35.70    4.80
   1   1  15   40.80    5.50
  -2  -1 -15   86.79    6.70
  -2  -1 -15   84.79    8.30
  -2  -1 -15   82.39    5.50
   2   1  15   81.59    6.90
  -3  -1 -15   44.10    6.20
  -3  -1 -15   45.30    5.00
   3   1  15   56.99    5.50
  -4  -1 -15    0.30    3.80
  -4  -1 -15    6.10    5.20
   4   1  15    3.10    3.40
  -5  -1 -15    6.40    5.70
  -5  -1 -15    4.00    4.50
   5   1  15    2.30    2.90
   4  -2 -15    2.60    7.10
   4  -2 -15    4.90    4.80
  -4   2  15    3.10    4.80
  -4   2  15    8.10    6.70
   3  -2 -15   -1.40    3.90
   3  -2 -15   -3.40    6.20
  -3   2  15    0.60    5.50
  -3   2  15    0.20    4.40
   2  -2 -15    7.40    5.70
   2  -2 -15    8.00    5.00
   2  -2 -15    3.80    3.00
  -2   2  15    0.50    4.60
  -2   2  15    5.30    4.20
   1  -2 -15   52.59    6.50
   1  -2 -15   40.80    6.50
   1  -2 -15   42.80    4.70
  -1   2  15   37.90    6.30
  -1   2  15   43.90    6.00
   0  -2 -15   49.00    5.30
   0  -2 -15   37.00    5.00
   0  -2 -15   36.90    6.10
   0   2  15   41.10    5.90
  -1  -2 -15   21.00    4.50
  -1  -2 -15   14.10    3.80
  -1  -2 -15   15.50    3.50
   1   2  15   21.30    4.00
  -2  -2 -15    2.50    2.80
  -2  -2 -15   -1.00    4.40
   2   2  15   -0.60    3.70
  -3  -2 -15    3.90    3.20
  -3  -2 -15    9.00    3.90
   3   2  15    7.40    4.00
   3   2  15   14.80    3.20
  -4  -2 -15   39.30    4.80
  -4  -2 -15   44.10    6.60
   4   2  15   46.70    4.60
  -5  -2 -15    6.80    4.30
  -5  -2 -15   21.30    4.60
   5   2  15   21.20    3.20
   4  -3 -15    3.10    6.50
   4  -3 -15   -2.70    7.50
  -4   3  15    6.60    5.10
  -4   3  15   -7.60    6.60
   3  -3 -15    8.90    4.50
   3  -3 -15    0.80    6.60
  -3   3  15    1.00    4.60
  -3   3  15   -9.20    4.20
   2  -3 -15    4.40    3.20
   2  -3 -15    3.20    5.30
   2  -3 -15    3.70    6.10
  -2   3  15   -3.60    5.40
  -2   3  15    8.40    6.10
   1  -3 -15    6.30    3.60
   1  -3 -15    8.70    4.70
   1  -3 -15    1.80    4.20
  -1   3  15   -1.50    5.00
  -1   3  15    6.90    5.50
   0  -3 -15    2.10    3.90
   0  -3 -15   -0.30    4.90
   0  -3 -15    3.00    4.10
   0   3  15   -1.10    5.00
  -1  -3 -15   30.70    4.50
  -1  -3 -15   27.00    4.90
  -1  -3 -15   24.40    5.30
   1   3  15   31.40    3.60
   1   3  15   34.70    5.60
  -2  -3 -15   37.90    5.30
  -2  -3 -15   32.40    3.70
  -2  -3 -15   31.80    6.00
   2   3  15   39.10    5.20
   2   3  15   45.10    3.80
  -3  -3 -15   12.50    5.20
  -3  -3 -15    7.40    4.10
  -3  -3 -15    5.90    3.10
   3   3  15   17.50    4.00
   3   3  15   11.00    3.90
  -4  -3 -15   -2.30    4.90
   4   3  15   -1.10    3.30
   4   3  15    3.10    3.20
  -5  -3 -15    7.10    4.30
   5   3  15   23.20    5.00
   3  -4 -15   10.20    5.90
   3  -4 -15   17.80    5.10
  -3   4  15   13.20    6.90
  -3   4  15   16.20    5.70
   2  -4 -15    2.90    4.90
   2  -4 -15   14.20    4.50
  -2   4  15   14.00    6.80
  -2   4  15    0.00    6.10
   1  -4 -15    6.80    4.10
   1  -4 -15    5.10    4.90
   1  -4 -15    2.90    5.90
  -1   4  15   16.60    6.50
  -1   4  15    7.50    5.90
   0  -4 -15   -2.40    5.30
   0  -4 -15   -2.90    4.10
   0  -4 -15    2.70    4.20
   0   4  15   -0.40    5.30
   0   4  15   -2.70    2.40
  -1  -4 -15   13.80    4.20
  -1  -4 -15   11.70    4.50
  -1  -4 -15   15.10    5.20
   1   4  15   11.20    5.30
   1   4  15   17.80    3.40
  -2  -4 -15    9.90    5.20
  -2  -4 -15    2.00    3.70
   2   4  15    1.70    3.20
   2   4  15    0.80    4.40
  -3  -4 -15    4.40    5.20
  -3  -4 -15    9.70    5.70
   3   4  15    7.80    4.00
   3   4  15    9.40    4.00
  -4  -4 -15    8.30    5.30
  -4  -4 -15   12.50    6.30
   4   4  15   13.30    4.10
   4   4  15   11.50    3.60
  -5  -4 -15    5.30    6.30
  -5  -4 -15   -0.40    5.30
   5   4  15    6.00    3.80
   2  -5 -15    5.40    4.70
   2  -5 -15   -5.90    6.60
  -2   5  15   12.40    7.40
  -2   5  15    0.20    6.50
   1  -5 -15   -2.90    5.80
   1  -5 -15    2.00    4.30
   1  -5 -15   -9.00    6.00
  -1   5  15   -1.80    4.70
   0  -5 -15    7.10    5.40
   0  -5 -15    5.50    5.00
   0  -5 -15   -0.10    6.00
   0   5  15   20.10    6.80
   0   5  15    6.50    2.90
  -1  -5 -15   -3.80    3.60
  -1  -5 -15   -1.70    5.60
   1   5  15    1.60    3.00
   1   5  15    2.50    5.50
  -2  -5 -15    5.70    5.70
  -2  -5 -15   -5.70    5.00
   2   5  15   -2.70    4.80
   2   5  15    0.30    3.40
  -3  -5 -15    0.50    5.80
  -3  -5 -15    5.50    5.50
   3   5  15    5.40    4.40
   3   5  15   -0.30    4.00
  -4  -5 -15   -0.40    6.30
  -4  -5 -15    2.10    5.40
   4   5  15    8.50    5.00
   4   5  15    4.00    4.30
  -5  -5 -15    3.40    5.10
   1  -6 -15   -3.60    4.90
   1  -6 -15   -0.60    6.30
   1  -6 -15    0.70    4.90
  -1   6  15    0.70    5.50
   0  -6 -15    2.10    5.70
   0  -6 -15   -2.40    5.10
   0  -6 -15    4.10    6.80
   0   6  15    0.90    3.40
   0   6  15   -0.10    5.00
  -1  -6 -15   -3.40    6.10
  -1  -6 -15   -1.90    5.40
   1   6  15    5.20    6.40
   1   6  15   -0.60    3.40
  -2  -6 -15    7.70    6.30
  -2  -6 -15    2.90    6.10
   2   6  15    4.40    3.20
   2   6  15    9.80    5.70
  -3  -6 -15    4.50    5.50
  -3  -6 -15    7.00    6.40
   3   6  15    8.00    5.40
   3   6  15    9.00    3.80
  -4  -6 -15   11.40    6.00
  -4  -6 -15    8.80    7.00
   4   6  15    1.00    5.20
   4   6  15    1.50    4.60
   2   5 -16    2.00    7.00
   2   5 -16   12.60    7.00
  -2  -5  16    7.50    8.70
  -2  -5  16    7.40    7.10
   1   5 -16    5.40    7.10
   1   5 -16   15.30    6.60
  -1  -5  16   10.60    7.50
  -1  -5  16   -2.10    7.80
   0   5 -16   12.50    6.20
   0   5 -16    1.70    6.90
   0  -5  16   12.00    7.80
   0  -5  16    0.00    7.10
  -1   5 -16    4.10    4.30
  -1   5 -16    5.60    4.60
  -1   5 -16   -3.70    4.90
   1  -5  16    5.60    7.30
   3   4 -16    2.30    4.70
  -3  -4  16   -4.10    6.40
  -3  -4  16   -5.70    7.40
   2   4 -16    6.60    4.70
   2   4 -16    1.50    4.60
  -2  -4  16   10.50    6.60
  -2  -4  16   -6.60    7.20
   1   4 -16    3.20    4.20
   1   4 -16    3.30    6.10
   1   4 -16   -0.80    4.30
  -1  -4  16   -3.80    6.20
  -1  -4  16   -0.80    7.00
   0   4 -16   16.90    5.80
   0   4 -16    9.40    4.50
   0   4 -16    0.60    6.40
   0  -4  16   25.30    7.00
  -1   4 -16   22.50    5.20
  -1   4 -16   27.60    5.80
  -1   4 -16   16.70    6.80
   1  -4  16   21.30    7.00
  -2   4 -16   21.70    7.30
  -2   4 -16   18.60    5.60
   2  -4  16   21.80    7.10
   4   3 -16    3.00    6.80
  -4  -3  16    3.50    5.60
  -4  -3  16   -2.50    5.20
  -4  -3  16    1.70    4.70
   3   3 -16   -4.20    4.10
  -3  -3  16    2.20    4.50
  -3  -3  16   -2.90    4.90
   2   3 -16   27.50    6.40
   2   3 -16   11.10    4.70
   2   3 -16   19.00    5.00
  -2  -3  16   29.30    7.00
  -2  -3  16   21.50    7.30
   1   3 -16   18.90    6.10
   1   3 -16   29.00    6.20
   1   3 -16   26.60    5.20
  -1  -3  16   32.50    6.80
  -1  -3  16   26.70    5.80
   0   3 -16   11.90    4.20
   0   3 -16    8.50    4.40
   0   3 -16    4.80    4.30
   0  -3  16   15.50    6.30
  -1   3 -16    0.30    4.50
  -1   3 -16   -4.10    4.00
  -1   3 -16   -3.40    5.40
   1  -3  16   -3.40    4.00
  -2   3 -16   10.40    4.80
  -2   3 -16   17.90    5.40
   2  -3  16   23.30    5.00
  -3   3 -16   26.90    6.40
  -3   3 -16   21.20    5.60
   3  -3  16   29.40    6.30
   4   2 -16   -0.20    5.20
   4   2 -16   12.30    6.70
  -4  -2  16   13.10    5.20
  -4  -2  16    7.80    5.10
  -4  -2  16   -1.20    5.00
   3   2 -16   -1.30    4.70
   3   2 -16    6.00    4.40
  -3  -2  16   -3.30    4.50
  -3  -2  16   -3.70    4.20
  -3  -2  16   -1.60    3.80
   2   2 -16    3.60    5.30
   2   2 -16    2.10    4.40
  -2  -2  16   10.70    6.10
  -2  -2  16   11.80    6.20
   1   2 -16   -0.20    4.00
   1   2 -16   -1.20    3.40
   1   2 -16   11.10    5.30
  -1  -2  16    3.00    5.80
   0   2 -16   13.70    4.70
   0   2 -16   12.90    5.30
   0   2 -16   19.60    5.10
   0  -2  16    8.20    5.70
  -1   2 -16   27.50    5.50
  -1   2 -16   26.00    4.90
  -1   2 -16   29.40    5.00
   1  -2  16   28.50    6.00
  -2   2 -16   19.00    5.50
  -2   2 -16   15.20    4.60
   2  -2  16   19.30    5.60
  -3   2 -16    3.50    5.40
  -3   2 -16    5.10    5.70
   3  -2  16    9.10    5.50
  -4   2 -16   16.60    6.20
  -4   2 -16   18.30    6.40
   4  -2  16   22.90    5.10
   4   1 -16    5.80    4.80
   4   1 -16   -8.60    5.40
  -4  -1  16    0.50    6.20
  -4  -1  16   -3.20    5.10
  -4  -1  16   -3.80    6.20
   3   1 -16    7.30    5.80
   3   1 -16    2.90    5.40
  -3  -1  16   11.80    6.20
  -3  -1  16   10.50    6.30
  -3  -1  16    3.80    4.80
   2   1 -16   13.90    5.40
   2   1 -16    5.70    5.00
  -2  -1  16    8.70    3.90
  -2  -1  16    6.10    4.30
   1   1 -16   19.70    5.30
   1   1 -16   13.20    4.80
   1   1 -16    7.80    4.80
  -1  -1  16    6.20    4.20
  -1  -1  16   14.50    4.50
   0   1 -16    1.10    3.20
   0   1 -16    2.20    3.20
   0   1 -16   -1.50    3.00
   0  -1  16    7.20    5.30
  -1   1 -16   11.70    4.10
  -1   1 -16    6.00    4.40
  -1   1 -16    6.20    4.50
   1  -1  16   10.10    4.00
  -2   1 -16   61.29    6.90
  -2   1 -16   73.89    8.50
   2  -1  16   69.89    6.80
  -3   1 -16   31.90    6.00
  -3   1 -16   33.40    6.20
   3  -1  16   44.90    6.00
  -4   1 -16    1.60    4.20
  -4   1 -16    1.30    5.30
   4  -1  16    5.40    4.50
   4   0 -16   -5.30    6.20
   4   0 -16    0.70    5.90
  -4   0  16   -5.50    5.10
  -4   0  16   -9.50    6.00
   3   0 -16    4.30    4.40
   3   0 -16    7.70    6.20
  -3   0  16    7.30    6.00
  -3   0  16   -3.10    4.40
   2   0 -16    9.50    5.10
   2   0 -16    4.30    5.20
  -2   0  16    1.90    4.20
  -2   0  16    0.70    4.50
   1   0 -16   26.90    5.20
   1   0 -16   10.30    5.00
  -1   0  16   31.60    5.10
  -1   0  16   13.90    4.10
   0   0 -16   41.20    5.40
   0   0 -16   46.90    5.50
   0   0 -16   52.29    5.70
   0   0  16   44.70    6.40
  -1   0 -16   15.10    5.20
  -1   0 -16   23.60    4.40
  -1   0 -16   12.70    4.20
   1   0  16   14.90    5.20
  -2   0 -16    5.80    4.20
  -2   0 -16    4.00    4.80
   2   0  16    9.60    4.60
  -3   0 -16   20.20    5.20
  -3   0 -16   21.30    5.60
   3   0  16   25.80    5.20
  -4   0 -16   32.50    6.60
  -4   0 -16   32.30    5.70
   4   0  16   34.50    5.00
  -5   0 -16   14.00    5.10
  -5   0 -16   18.10    5.70
   5   0  16   22.60    4.30
   4  -1 -16   -6.00    6.60
   4  -1 -16   -0.50    4.60
  -4   1  16   -4.40    6.30
  -4   1  16   -3.50    5.80
   3  -1 -16    3.20    4.20
   3  -1 -16   -0.80    6.10
  -3   1  16   -2.00    5.10
  -3   1  16    8.10    4.80
   2  -1 -16   30.80    6.00
   2  -1 -16   24.00    6.50
  -2   1  16   20.60    5.30
  -2   1  16   29.00    5.40
   1  -1 -16    8.80    5.30
   1  -1 -16    8.30    3.70
  -1   1  16   -1.30    5.30
  -1   1  16    2.90    4.10
   0  -1 -16    2.80    3.60
   0  -1 -16    0.00    3.00
   0  -1 -16    2.20    4.90
   0   1  16    3.40    3.80
  -1  -1 -16   62.49    5.60
  -1  -1 -16   37.80    4.80
  -1  -1 -16   42.90    5.50
   1   1  16   50.19    6.20
  -2  -1 -16   49.90    5.30
  -2  -1 -16   62.39    6.80
   2   1  16   57.69    5.80
  -3  -1 -16   44.00    6.70
  -3  -1 -16   39.40    5.20
   3   1  16   42.40    5.20
  -4  -1 -16    1.70    4.00
  -4  -1 -16    1.50    3.90
   4   1  16   -0.60    3.70
  -5  -1 -16    9.30    5.00
  -5  -1 -16    7.80    4.70
   5   1  16    7.10    3.50
   4  -2 -16    7.50    5.00
   4  -2 -16   -0.50    5.50
  -4   2  16   -0.60    4.90
  -4   2  16   -9.00    6.50
   3  -2 -16   -1.10    4.10
   3  -2 -16   -8.50    6.20
  -3   2  16  -11.40    5.40
  -3   2  16   -1.00    4.60
   2  -2 -16   -3.80    5.10
   2  -2 -16   -3.50    5.70
  -2   2  16   -2.60    5.70
  -2   2  16   -3.00    5.10
   1  -2 -16    4.30    5.60
   1  -2 -16   16.20    4.20
   1  -2 -16   16.70    5.10
  -1   2  16   20.00    5.40
  -1   2  16   16.60    4.70
   0  -2 -16   41.70    5.80
   0  -2 -16   61.29    6.00
   0  -2 -16   60.79    8.30
   0   2  16   50.49    6.50
  -1  -2 -16   11.00    5.40
  -1  -2 -16    8.40    3.30
  -1  -2 -16    6.80    3.90
   1   2  16   15.30    5.10
  -2  -2 -16   -1.50    3.40
  -2  -2 -16    4.30    5.00
   2   2  16   -6.30    4.20
  -3  -2 -16   21.20    4.00
  -3  -2 -16   17.00    5.60
   3   2  16   14.70    4.20
  -4  -2 -16   35.70    6.80
  -4  -2 -16   27.80    4.70
   4   2  16   37.20    4.60
  -5  -2 -16    6.30    4.10
  -5  -2 -16    1.10    5.70
   3  -3 -16   -2.00    5.10
   3  -3 -16    4.90    4.50
  -3   3  16   -0.40    4.60
  -3   3  16    4.40    5.10
   2  -3 -16    3.10    6.50
   2  -3 -16    9.00    5.60
  -2   3  16    4.00    5.70
  -2   3  16    9.10    6.70
   1  -3 -16   -0.50    4.60
   1  -3 -16   -3.10    3.40
   1  -3 -16   -2.90    4.10
  -1   3  16   -2.20    5.20
  -1   3  16   -1.40    5.70
   0  -3 -16    4.10    4.50
   0  -3 -16    4.50    5.60
   0  -3 -16    1.00    4.10
   0   3  16   -6.80    5.20
  -1  -3 -16   13.60    5.80
  -1  -3 -16    5.40    4.10
  -1  -3 -16   11.10    4.90
   1   3  16    9.40    3.00
   1   3  16    3.70    5.10
  -2  -3 -16    5.20    5.30
  -2  -3 -16   16.10    5.50
   2   3  16   13.20    3.80
   2   3  16   17.60    5.00
  -3  -3 -16    7.00    5.70
  -3  -3 -16   10.60    5.40
   3   3  16   11.20    4.20
   3   3  16   19.50    4.40
  -4  -3 -16   10.20    5.00
  -4  -3 -16   16.30    6.00
   4   3  16   17.50    4.10
   4   3  16    8.60    4.70
  -5  -3 -16   19.30    6.30
   5   3  16   19.20    4.20
   3  -4 -16    8.00    6.40
   3  -4 -16  -19.90    6.50
  -3   4  16   -3.60    7.20
  -3   4  16   -7.10    6.50
   2  -4 -16   -0.20    6.70
   2  -4 -16    0.90    5.70
  -2   4  16    2.70    7.10
  -2   4  16   -7.00    5.70
   1  -4 -16   21.50    4.80
   1  -4 -16   10.30    6.80
   1  -4 -16   16.70    4.60
  -1   4  16   25.30    7.30
  -1   4  16   14.10    6.40
   0  -4 -16    1.30    6.00
   0  -4 -16    4.40    3.60
   0  -4 -16   -1.00    4.40
   0   4  16   -1.50    3.10
   0   4  16    5.60    4.50
  -1  -4 -16    2.10    5.60
  -1  -4 -16   -3.20    4.80
   1   4  16   -3.10    5.20
   1   4  16    1.50    3.10
  -2  -4 -16   16.40    6.00
  -2  -4 -16   13.50    4.60
   2   4  16   15.10    5.10
   2   4  16   13.40    3.90
  -3  -4 -16    7.10    6.00
  -3  -4 -16    9.50    5.90
   3   4  16    9.40    5.00
   3   4  16    3.40    4.30
  -4  -4 -16   11.50    6.70
  -4  -4 -16   12.70    6.00
   4   4  16   11.80    4.20
   4   4  16   14.10    5.00
   2  -5 -16   -4.50    6.50
   2  -5 -16    9.30    5.90
  -2   5  16    6.30    7.70
  -2   5  16    7.90    7.20
   1  -5 -16   -2.50    4.30
   1  -5 -16    3.00    4.70
   1  -5 -16    1.90    5.10
  -1   5  16  -15.70    6.60
   0  -5 -16   -3.50    6.30
   0  -5 -16   10.90    5.30
   0  -5 -16    9.20    5.70
   0   5  16    9.40    3.50
   0   5  16    6.10    6.80
  -1  -5 -16   13.10    5.90
  -1  -5 -16   11.90    6.70
   1   5  16   11.60    4.00
   1   5  16   24.60    6.80
  -2  -5 -16    2.30    5.80
  -2  -5 -16    4.00    4.50
   2   5  16    6.40    5.40
   2   5  16   -0.50    3.70
  -3  -5 -16    2.20    5.60
  -3  -5 -16   -0.60    6.00
   3   5  16    6.30    3.50
   3   5  16    4.70    5.30
  -4  -5 -16    5.40    4.50
  -4  -5 -16    5.00    6.80
   4   5  16   12.40    4.40
   4   5  16    6.90    5.10
   0  -6 -16    2.90    5.40
   0  -6 -16   -6.60    6.70
   0   6  16    2.90    7.30
  -1  -6 -16   -0.40    4.40
  -1  -6 -16   -7.20    6.20
   1   6  16   -3.70    3.40
   1   6  16   -0.10    4.80
  -2  -6 -16    8.50    6.70
  -2  -6 -16   -2.70    6.40
   2   6  16    7.40    3.30
   2   6  16   -4.80    5.60
   2   4 -17   -6.60    6.20
   2   4 -17   -2.30    4.50
  -2  -4  17    1.10    5.00
  -2  -4  17    0.60    7.40
   1   4 -17    1.30    5.90
   1   4 -17  -10.90    6.10
  -1  -4  17   -4.00    5.10
  -1  -4  17   -0.90    5.00
   0   4 -17    0.20    6.60
   0   4 -17    7.40    4.60
   0   4 -17    9.00    4.70
   0  -4  17    6.10    6.90
  -1   4 -17   22.30    5.70
  -1   4 -17   17.20    5.80
   1  -4  17   27.60    6.00
   3   3 -17    7.60    5.00
  -3  -3  17   -8.40    7.00
  -3  -3  17    0.50    4.80
   2   3 -17    3.30    5.20
   2   3 -17    7.90    6.10
  -2  -3  17    1.30    6.50
  -2  -3  17    4.60    5.30
   1   3 -17   14.60    5.00
   1   3 -17    0.10    4.50
   1   3 -17   12.30    4.40
  -1  -3  17   14.60    6.90
   0   3 -17    1.90    4.40
   0   3 -17    1.80    5.40
   0   3 -17    7.70    4.60
   0  -3  17    2.70    4.60
  -1   3 -17    8.30    5.30
  -1   3 -17   10.30    5.20
  -1   3 -17    5.30    4.70
   1  -3  17   15.50    6.60
  -2   3 -17   18.80    6.90
  -2   3 -17   32.00    6.40
   2  -3  17   22.40    6.70
  -3   3 -17   12.70    4.90
  -3   3 -17    8.10    6.80
   3  -3  17   14.70    6.20
   4   2 -17    1.30    6.60
  -4  -2  17   -9.70    6.90
  -4  -2  17   14.30    7.20
  -4  -2  17    1.70    5.30
   3   2 -17   -8.60    5.40
   3   2 -17   -1.40    4.40
  -3  -2  17    2.60    4.90
  -3  -2  17   -1.60    6.70
   2   2 -17   -1.50    5.60
   2   2 -17   -5.30    4.70
  -2  -2  17    5.80    6.40
  -2  -2  17    5.00    5.00
   1   2 -17   18.00    4.50
   1   2 -17   11.10    5.80
   1   2 -17   18.20    5.30
  -1  -2  17   28.00    6.90
   0   2 -17   19.10    5.40
   0   2 -17    7.70    5.50
   0   2 -17   17.80    5.20
   0  -2  17   13.90    5.00
  -1   2 -17   31.60    5.50
  -1   2 -17   21.00    6.30
  -1   2 -17   19.70    5.40
   1  -2  17   24.20    6.40
  -2   2 -17    4.60    5.80
  -2   2 -17    4.70    4.00
   2  -2  17   -3.20    5.30
  -3   2 -17    9.50    4.70
  -3   2 -17    4.40    5.40
   3  -2  17    5.90    5.40
   4   1 -17   -5.10    6.60
   4   1 -17   -0.80    6.10
  -4  -1  17    0.70    5.00
  -4  -1  17   -0.30    5.90
  -4  -1  17   -5.10    6.30
   3   1 -17   20.40    5.00
   3   1 -17    4.50    5.80
  -3  -1  17   18.00    5.60
  -3  -1  17    5.60    6.50
   2   1 -17    9.70    4.30
   2   1 -17    4.00    5.20
  -2  -1  17   13.70    5.00
   1   1 -17    5.20    4.90
   1   1 -17    1.10    3.60
   1   1 -17    4.60    5.20
  -1  -1  17    2.00    4.50
   0   1 -17    8.20    3.90
   0   1 -17    5.60    4.70
   0   1 -17    7.10    3.80
   0  -1  17   13.40    6.10
  -1   1 -17   35.40    6.20
  -1   1 -17   29.40    6.00
  -1   1 -17   36.20    5.40
   1  -1  17   40.70    6.50
  -2   1 -17   55.59    6.80
  -2   1 -17   53.19    7.10
   2  -1  17   60.09    6.90
  -3   1 -17    6.30    5.50
  -3   1 -17    9.80    5.60
   3  -1  17    9.50    5.00
  -4   1 -17   -6.00    5.80
  -4   1 -17   -0.70    5.50
   4  -1  17   -6.50    4.00
   4   0 -17   -1.00    4.80
   4   0 -17   -7.40    6.30
  -4   0  17  -12.80    5.60
  -4   0  17   -3.50    4.80
   3   0 -17   -2.60    5.90
   3   0 -17    1.70    6.10
  -3   0  17   -5.10    6.10
  -3   0  17   -8.20    4.80
   2   0 -17    6.80    5.40
   2   0 -17    3.10    4.20
  -2   0  17    8.80    5.20
  -2   0  17   12.30    6.40
   1   0 -17   46.50    6.40
   1   0 -17   33.80    6.30
  -1   0  17   44.90    5.70
  -1   0  17   45.70    6.10
   0   0 -17   38.80    5.50
   0   0 -17   51.79    6.00
   0   0 -17   53.19    6.00
   0   0  17   59.39    7.20
  -1   0 -17   11.20    5.40
  -1   0 -17    9.40    4.40
  -1   0 -17   11.30    4.40
   1   0  17   14.70    5.60
  -2   0 -17    6.00    4.50
  -2   0 -17    3.50    5.10
   2   0  17    2.00    4.60
  -3   0 -17   41.10    6.10
  -3   0 -17   35.80    6.70
   3   0  17   40.90    5.60
  -4   0 -17    5.90    4.60
  -4   0 -17    9.20    5.20
   4   0  17   10.90    4.60
   4  -1 -17   -4.30    6.50
   3  -1 -17   25.30    6.60
   3  -1 -17   13.70    6.90
  -3   1  17   11.90    6.90
  -3   1  17   12.10    5.80
   2  -1 -17    8.90    6.10
   2  -1 -17   14.00    5.70
  -2   1  17    6.10    6.40
  -2   1  17    3.20    5.00
   1  -1 -17    7.00    5.10
   1  -1 -17   -3.80    3.20
   1  -1 -17   -3.70    5.10
  -1   1  17  -12.10    4.30
  -1   1  17    1.00    4.40
   0  -1 -17    2.80    3.90
   0  -1 -17   -0.40    3.80
   0  -1 -17    0.60    4.50
   0   1  17    4.50    5.60
  -1  -1 -17   35.60    5.10
  -1  -1 -17   26.90    6.00
  -1  -1 -17   23.60    4.60
   1   1  17   26.00    4.80
  -2  -1 -17   41.90    5.90
  -2  -1 -17   46.90    5.50
   2   1  17   62.69    6.50
  -3  -1 -17   -3.20    4.00
  -3  -1 -17    3.00    4.10
   3   1  17    2.30    4.20
  -4  -1 -17    8.70    5.90
  -4  -1 -17   21.90    5.20
   4   1  17   11.00    4.60
   3  -2 -17    2.70    5.90
   3  -2 -17   -8.90    6.50
  -3   2  17    1.50    4.90
  -3   2  17   -4.90    5.90
   2  -2 -17   16.20    5.90
   2  -2 -17   12.50    6.80
  -2   2  17   12.80    5.90
  -2   2  17   33.00    7.40
   1  -2 -17   12.10    4.30
   1  -2 -17    8.30    4.70
   1  -2 -17   14.10    5.30
  -1   2  17   15.70    5.50
  -1   2  17   20.10    5.20
   0  -2 -17    5.50    5.70
   0  -2 -17    1.00    3.90
   0  -2 -17    4.10    3.40
   0   2  17   -1.80    5.20
  -1  -2 -17   -4.00    3.20
  -1  -2 -17    1.60    5.20
  -1  -2 -17    0.00    2.90
   1   2  17   -0.50    5.30
  -2  -2 -17   -1.60    5.30
  -2  -2 -17    2.10    3.30
   2   2  17   -3.10    4.60
  -3  -2 -17   33.00    6.60
  -3  -2 -17   19.30    4.60
   3   2  17   38.70    5.80
  -4  -2 -17   12.90    6.20
   4   2  17   29.20    4.80
   3  -3 -17    2.30    5.60
   3  -3 -17   11.90    5.20
  -3   3  17    0.90    6.40
  -3   3  17   15.70    5.90
   2  -3 -17    4.90    5.80
   2  -3 -17   -6.10    6.50
  -2   3  17    4.30    6.90
  -2   3  17    6.70    6.10
   1  -3 -17    3.90    3.90
   1  -3 -17    1.00    6.00
   1  -3 -17    3.40    3.90
  -1   3  17    0.20    5.50
  -1   3  17    6.60    6.40
   0  -3 -17   18.50    5.50
   0  -3 -17   24.00    5.40
   0  -3 -17   16.60    5.20
   0   3  17   17.40    6.40
  -1  -3 -17   19.90    4.60
  -1  -3 -17   17.90    5.00
   1   3  17   17.20    6.00
  -2  -3 -17   -0.90    5.50
  -2  -3 -17    0.00    3.80
   2   3  17   -3.70    5.40
  -3  -3 -17    6.70    4.50
  -3  -3 -17    8.20    6.00
   3   3  17   -4.50    4.00
   3   3  17   -2.10    4.20
  -4  -3 -17   21.50    6.10
  -4  -3 -17   23.10    6.70
   4   3  17   12.90    4.40
   4   3  17   20.40    4.10
   2  -4 -17   -8.30    7.20
   2  -4 -17    2.10    6.10
  -2   4  17    5.80    7.40
  -2   4  17   -0.50    4.80
   1  -4 -17    6.90    4.80
   1  -4 -17   -4.50    6.50
   1  -4 -17    7.70    4.30
  -1   4  17    6.90    6.90
   0  -4 -17    4.10    3.80
   0  -4 -17   -1.70    6.20
   0  -4 -17   -0.70    4.70
   0   4  17    6.50    4.80
  -1  -4 -17   -2.20    5.10
  -1  -4 -17    5.80    4.60
   1   4  17    2.30    3.40
   1   4  17    2.40    5.60
  -2  -4 -17   28.00    7.00
  -2  -4 -17   25.30    6.70
   2   4  17   25.80    4.60
   2   4  17   40.60    6.30
  -3  -4 -17   18.70    5.30
  -3  -4 -17   12.80    6.50
   3   4  17   12.00    4.90
   3   4  17   16.50    3.80
  -4  -4 -17    5.60    6.00
  -4  -4 -17    8.30    5.30
   4   4  17    7.60    4.40
   4   4  17    9.80    5.00
   1  -5 -17    2.60    5.50
   0  -5 -17   17.50    5.70
   0  -5 -17    5.60    7.20
   0   5  17   19.70    7.50
  -1  -5 -17    0.30    5.50
  -1  -5 -17   -0.80    6.40
   1   5  17   14.30    6.90
   1   5  17    7.20    3.60
  -2  -5 -17    9.20    6.70
  -2  -5 -17    6.10    6.20
   2   5  17    6.10    3.90
   2   5  17    9.40    6.00
  -3  -5 -17    2.30    6.40
  -3  -5 -17   -0.10    6.40
   3   5  17   11.30    5.10
   3   5  17    6.30    4.80
   2   3 -18   10.60    5.00
  -2  -3  18   11.00    7.20
  -2  -3  18   10.30    7.80
   1   3 -18   -1.50    4.70
   1   3 -18    0.30    4.70
   1   3 -18   -3.10    5.50
  -1  -3  18   -0.80    5.00
   0   3 -18    1.60    4.90
   0   3 -18    4.50    4.70
   0   3 -18    1.90    4.10
   0  -3  18   10.90    6.90
  -1   3 -18   18.90    5.40
  -1   3 -18    8.50    5.10
   1  -3  18   16.50    5.70
  -2   3 -18    0.30    6.80
   3   2 -18   -6.60    6.30
   3   2 -18   -5.30    5.00
  -3  -2  18   -3.20    5.10
  -3  -2  18    2.80    5.20
   2   2 -18    9.90    6.20
   2   2 -18   -0.90    5.10
  -2  -2  18   -0.60    6.70
   1   2 -18   30.80    5.30
   1   2 -18   17.40    5.10
   1   2 -18   26.90    6.10
  -1  -2  18   38.60    7.60
   0   2 -18   20.00    5.70
   0   2 -18    7.20    5.90
   0   2 -18   18.50    4.50
   0  -2  18   11.30    6.40
  -1   2 -18   -1.40    5.70
  -1   2 -18   10.30    5.40
   1  -2  18    7.40    4.70
  -2   2 -18    7.00    5.70
  -2   2 -18    3.20    4.50
   2  -2  18    6.70    5.90
   3   1 -18   20.70    5.60
   3   1 -18    3.90    6.20
  -3  -1  18   11.60    5.60
   2   1 -18   -1.90    4.20
   2   1 -18    0.90    5.60
  -2  -1  18    5.90    5.10
   1   1 -18   -1.50    5.20
   1   1 -18   -6.00    4.70
   1   1 -18    3.00    5.40
  -1  -1  18   -6.00    4.40
   0   1 -18    8.60    4.30
   0   1 -18    2.90    5.00
   0   1 -18    1.90    4.90
   0  -1  18    2.10    6.10
  -1   1 -18   39.40    6.60
  -1   1 -18   27.20    6.10
   1  -1  18   54.19    7.50
  -2   1 -18   16.70    4.90
  -2   1 -18    4.20    5.40
   2  -1  18   15.20    5.70
  -3   1 -18    2.10    5.50
  -3   1 -18   -1.30    4.10
   3  -1  18   -3.90    5.60
   3   0 -18    2.40    6.40
   3   0 -18  -13.70    5.90
  -3   0  18   20.00    7.30
  -3   0  18   -9.10    4.90
   2   0 -18    4.30    6.10
   2   0 -18    8.90    6.10
  -2   0  18   13.30    6.80
   1   0 -18   16.70    4.60
   1   0 -18    7.10    5.70
  -1   0  18   20.00    6.90
   0   0 -18   -1.60    3.40
   0   0 -18    5.60    4.70
   0   0 -18    5.70    5.50
   0   0  18    7.20    6.20
  -1   0 -18    7.10    5.60
  -1   0 -18   -0.20    4.50
   1   0  18    6.30    5.80
  -2   0 -18    5.60    4.30
  -2   0 -18    7.60    4.70
   2   0  18    2.00    4.90
  -3   0 -18   26.90    5.60
  -3   0 -18   23.40    5.60
   3   0  18   35.50    5.90
   3  -1 -18    4.10    4.80
   3  -1 -18   -1.40    6.60
  -3   1  18    8.20    7.10
  -3   1  18   -6.00    5.70
   2  -1 -18   -6.60    4.20
   2  -1 -18   -0.60    5.50
  -2   1  18   -5.80    5.50
  -2   1  18    9.10    5.20
   1  -1 -18   -3.30    3.40
   1  -1 -18    5.00    4.10
   1  -1 -18    9.70    6.20
  -1   1  18   -1.10    6.30
   0  -1 -18   12.20    5.20
   0  -1 -18   19.90    6.10
   0   1  18   28.00    6.70
  -1  -1 -18    3.40    5.60
  -1  -1 -18    0.90    4.00
   1   1  18   -1.40    5.60
  -2  -1 -18   -1.60    4.40
  -2  -1 -18    6.20    4.40
   2   1  18    2.10    5.20
  -3  -1 -18   -4.40    4.10
  -3  -1 -18   -5.80    3.90
   3   1  18   -1.40    4.40
  -4  -1 -18    0.50    4.60
  -4  -1 -18    1.00    6.10
   4   1  18   -8.00    4.30
   2  -2 -18    0.40    4.30
   2  -2 -18    3.10    6.70
  -2   2  18    2.10    5.70
  -2   2  18    8.60    7.00
   1  -2 -18    1.60    3.90
   1  -2 -18    0.10    3.90
   1  -2 -18   -4.20    5.90
  -1   2  18    6.90    6.60
  -1   2  18   -2.60    5.50
   0  -2 -18    2.40    4.50
   0  -2 -18   -0.90    4.30
   0  -2 -18   -2.60    4.80
   0   2  18   -7.10    5.80
  -1  -2 -18   18.20    4.30
  -1  -2 -18   25.30    5.50
   1   2  18   31.30    6.50
  -2  -2 -18   12.40    6.30
   2   2  18   13.50    5.50
  -3  -2 -18   22.30    6.80
   3   2  18   31.00    5.30
  -4  -2 -18    4.10    4.60
   4   2  18    3.30    4.10
   2  -3 -18   -0.50    7.30
   2  -3 -18    5.50    4.80
  -2   3  18    0.40    7.30
  -2   3  18   -7.90    5.70
   1  -3 -18    7.20    4.30
   1  -3 -18    8.50    7.00
  -1   3  18   16.80    6.40
  -1   3  18   18.50    7.40
   0  -3 -18    8.70    6.70
   0  -3 -18    0.00    4.60
   0  -3 -18    5.00    5.20
   0   3  18    7.70    6.40
  -1  -3 -18   14.70    5.60
  -1  -3 -18    9.80    6.30
   1   3  18    8.80    6.10
  -2  -3 -18    0.00    4.30
  -2  -3 -18   -1.10    5.50
   2   3  18    0.90    5.10
  -3  -3 -18    2.60    4.70
  -3  -3 -18   -0.10    5.90
   3   3  18    4.10    4.70
   1  -4 -18    8.10    4.60
   1  -4 -18    0.30    7.20
  -1   4  18    7.00    7.50
   0  -4 -18   -2.50    4.70
   0  -4 -18    2.90    5.00
   0   4  18    1.60    4.90
  -1  -4 -18    7.70    5.70
  -1  -4 -18    1.20    6.50
   1   4  18   17.60    6.50
  -2  -4 -18   -5.40    4.20
  -2  -4 -18   -0.50    5.90
   2   4  18   -3.50    5.30
   2   4  18    2.70    4.10
  -3  -4 -18    6.60    5.00
  -3  -4 -18    5.90    5.20
   3   4  18   22.50    5.30
   3   4  18   17.80    5.40
   1   2 -19    2.50    4.70
   1   2 -19   10.60    6.20
   1   2 -19    5.30    5.70
  -1  -2  19   10.60    7.20
   0   2 -19   20.60    6.20
   0   2 -19   12.70    4.60
   0   2 -19   13.90    6.40
   0  -2  19   16.10    7.40
  -1   2 -19    4.20    5.70
  -1   2 -19   -6.00    5.60
   1  -2  19    0.40    6.50
   2   1 -19   -1.00    5.80
   2   1 -19   -4.00    4.30
  -2  -1  19    4.50    7.20
   1   1 -19    2.80    5.80
   1   1 -19    3.30    5.90
  -1  -1  19    1.40    5.10
   0   1 -19   -4.40    5.00
   0   1 -19    6.00    5.40
   0   1 -19   -4.60    5.10
   0  -1  19   -1.00    6.50
  -1   1 -19   15.60    4.70
  -1   1 -19   20.80    5.10
   1  -1  19   10.50    6.60
  -2   1 -19    1.00    4.20
  -2   1 -19   10.40    6.20
   2  -1  19   12.40    6.20
   2   0 -19   -2.80    4.60
   2   0 -19   -4.10    5.90
  -2   0  19    2.40    5.40
   1   0 -19   14.90    4.80
   1   0 -19   19.40    6.40
  -1   0  19   17.40    7.30
   0   0 -19   -0.30    5.70
   0   0 -19    1.10    4.80
   0   0 -19    1.20    3.80
   0   0  19   13.10    6.60
  -1   0 -19   -6.60    4.70
  -1   0 -19   -1.80    5.60
   1   0  19   -1.20    6.10
  -2   0 -19   15.10    5.80
  -2   0 -19   31.90    6.90
   2   0  19   38.40    6.70
   2  -1 -19    0.50    6.80
   2  -1 -19   -0.20    6.00
  -2   1  19    5.10    7.40
   1  -1 -19    1.50    6.00
   1  -1 -19    4.20    5.70
  -1   1  19   -5.70    4.70
   0  -1 -19   15.00    6.70
   0  -1 -19   15.80    4.40
   0   1  19   19.80    5.60
  -1  -1 -19    8.50    6.20
  -1  -1 -19    5.20    4.40
   1   1  19   28.00    7.00
  -2  -1 -19   -7.60    4.20
  -2  -1 -19    2.40    5.80
   2   1  19   -5.10    5.40
  -3  -1 -19   -2.80    6.00
  -3  -1 -19   -3.00    4.50
   3   1  19    1.20    5.60
   1  -2 -19    4.30    6.80
   1  -2 -19    4.00    5.90
  -1   2  19    3.80    5.30
   0  -2 -19    1.30    4.70
   0  -2 -19   -0.20    6.30
   0   2  19   -1.10    4.70
  -1  -2 -19   -3.00    5.10
  -1  -2 -19   -4.80    4.30
   1   2  19    0.60    6.20
  -2  -2 -19   17.50    6.90
   2   2  19   35.50    6.60
  -3  -2 -19   15.50    6.90
   3   2  19   12.30    5.80
   0  -3 -19    8.20    5.30
   0  -3 -19   10.80    5.60
   0   3  19   11.70    6.80
  -1  -3 -19   -0.40    6.30
  -1  -3 -19   -5.70    5.10
   1   3  19    5.40    4.90
  -2  -3 -19   -0.10    4.50
  -2  -3 -19   -1.50    5.70
   2   3  19    2.70    5.80
   0   0 -20    1.30    6.10
   0   0 -20  -13.00    4.70
   0   0  20    3.80    5.20
  -1   0 -20    7.00    6.40
  -1   0 -20    8.80    5.40
   1   0  20   13.50    7.20
   0  -1 -20   -1.20    6.40
   0   1  20   -3.40    6.80
  -1  -1 -20    8.90    5.10
  -1  -1 -20   23.20    7.20
   1   1  20   25.30    7.20
_
;
_shelx_hkl_checksum              30756
_shelx_res_file
;
TITL p6cgr
CELL  0.71073   6.4158   7.3886  15.2636   87.081   87.488   77.948
ZERR     2.00   0.0003   0.0004   0.0007    0.003    0.003    0.003
LATT   1
SFAC  C    H    N    O    BR
UNIT  30   28   2    6    2
MERG   2
OMIT    -2.00  55.1
FMAP   2
PLAN   40
SIZE     0.200   0.250   0.300
ACTA
BOND   $H
CONF
HTAB
L.S.  20
TEMP    23.00
OMIT 0 0 1
MPLA C1 > C113
MPLA 6 C1 C2 C3 C4 C5 C6 C21
MPLA 6 C11 C12 C13 C14 C15 C16 C113
WGHT    0.026200    0.221400
FVAR       0.52698
C1    1    0.705854    0.276904    0.221141    11.00000    0.03417    0.03361 =
         0.04589   -0.00645    0.00207   -0.00686
C2    1    0.831600    0.233495    0.294782    11.00000    0.03746    0.03953 =
         0.05080   -0.00366    0.00041   -0.00550
C3    1    1.036045    0.129770    0.286131    11.00000    0.04196    0.05158 =
         0.07115   -0.00152   -0.00988    0.00072
AFIX  43
H3    2    1.120052    0.099670    0.335012    11.00000   -1.20000
AFIX   0
C4    1    1.115368    0.070895    0.204746    11.00000    0.03651    0.04578 =
         0.09696   -0.01102    0.00681    0.00196
AFIX  43
H4    2    1.253518    0.001167    0.199416    11.00000   -1.20000
AFIX   0
C5    1    0.996370    0.112342    0.131953    11.00000    0.05049    0.04473 =
         0.07184   -0.02157    0.01708   -0.00883
AFIX  43
H5    2    1.052291    0.072033    0.077412    11.00000   -1.20000
AFIX   0
C6    1    0.790303    0.215735    0.140601    11.00000    0.04678    0.04635 =
         0.05170   -0.01191    0.00273   -0.00822
AFIX  43
H6    2    0.707562    0.244363    0.091293    11.00000   -1.20000
AFIX   0
N1    3    0.499063    0.385680    0.236262    11.00000    0.03085    0.04176 =
         0.04156   -0.00604   -0.00111   -0.00455
O2    4    0.736444    0.299565    0.371700    11.00000    0.04714    0.07550 =
         0.04320   -0.00340   -0.00905    0.00235
C21   1    0.863449    0.277160    0.447868    11.00000    0.06871    0.09145 =
         0.04631    0.00795   -0.01802   -0.00939
AFIX 137
H21A  2    0.909710    0.147622    0.462873    11.00000   -1.50000
H21B  2    0.780178    0.337215    0.495988    11.00000   -1.50000
H21C  2    0.985612    0.331619    0.435810    11.00000   -1.50000
AFIX   0
C11   1    0.156983    0.553134    0.197625    11.00000    0.03448    0.03515 =
         0.03575   -0.00350   -0.00069   -0.00814
C12   1    0.099538    0.598689    0.284834    11.00000    0.03350    0.04380 =
         0.03792   -0.00459   -0.00417   -0.00734
O12   4    0.233280    0.548224    0.349936    11.00000    0.03748    0.08235 =
         0.03771   -0.01406   -0.00644    0.00355
AFIX 147
H12   2    0.344316    0.483636    0.331045    11.00000   -1.50000
AFIX   0
C13   1   -0.108487    0.699305    0.304363    11.00000    0.03700    0.04556 =
         0.03662   -0.00841    0.00148   -0.00791
C14   1   -0.249632    0.752138    0.238297    11.00000    0.03311    0.03876 =
         0.04843   -0.00493   -0.00159   -0.00154
AFIX  43
H14   2   -0.386739    0.818083    0.251078    11.00000   -1.20000
AFIX   0
C15   1   -0.188489    0.707529    0.152614    11.00000    0.03809    0.04036 =
         0.03822    0.00361   -0.00645   -0.00701
BR15  5   -0.389324    0.786759    0.063567    11.00000    0.04838    0.07518 =
         0.04735    0.00530   -0.01454   -0.00178
C16   1    0.010103    0.610589    0.131231    11.00000    0.04279    0.04140 =
         0.03168   -0.00278   -0.00049   -0.00893
AFIX  43
H16   2    0.048142    0.582680    0.073214    11.00000   -1.20000
AFIX   0
C17   1    0.364103    0.442704    0.176691    11.00000    0.04102    0.03996 =
         0.03674   -0.00691    0.00207   -0.00781
AFIX  43
H17   2    0.400323    0.412337    0.118824    11.00000   -1.20000
AFIX   0
O13   4   -0.150374    0.736597    0.390201    11.00000    0.04307    0.08449 =
         0.03884   -0.01840    0.00215    0.00111
C113  1   -0.364201    0.811981    0.416266    11.00000    0.04691    0.11238 =
         0.05783   -0.03125    0.01242   -0.00149
AFIX 137
H11A  2   -0.405552    0.935418    0.391132    11.00000   -1.50000
H11B  2   -0.376166    0.815270    0.479106    11.00000   -1.50000
H11C  2   -0.455812    0.736350    0.396228    11.00000   -1.50000
AFIX   0
HKLF 4
REM  p6cgr
REM R1 =  0.0325 for    2240 Fo > 4sig(Fo)  and  0.0663 for all    3265 data
REM    184 parameters refined using      0 restraints
END
WGHT      0.0262      0.2214
REM Instructions for potential hydrogen bonds
EQIV $1 -x+1, -y+1, -z+1
HTAB C21 O12_$1
HTAB O12 N1
REM Highest difference peak  0.366,  deepest hole -0.341,  1-sigma level  0.057
Q1    1   0.0626  0.6129  0.0360  11.00000  0.05    0.37
Q2    1  -0.2603  0.7884  0.0375  11.00000  0.05    0.26
Q3    1  -0.3486  0.9383  0.0219  11.00000  0.05    0.23
Q4    1   0.8132  0.3788  0.1837  11.00000  0.05    0.23
Q5    1  -0.3009  0.9617  0.0544  11.00000  0.05    0.22
Q6    1   0.1077  0.5490  0.2398  11.00000  0.05    0.22
Q7    1   0.1054  0.5930  0.1647  11.00000  0.05    0.21
Q8    1  -0.2917  0.9030  0.0010  11.00000  0.05    0.20
Q9    1  -0.3938  0.8242  0.0487  11.00000  0.05    0.20
Q10   1   0.4700  0.4203  0.2976  11.00000  0.05    0.20
Q11   1   0.0055  0.6888  0.2797  11.00000  0.05    0.20
Q12   1  -0.3646  0.6744  0.4969  11.00000  0.05    0.20
Q13   1   1.0000  0.3785  0.4379  11.00000  0.05    0.19
Q14   1  -0.4120  0.6387  0.1192  11.00000  0.05    0.19
Q15   1  -0.3685  0.7473  0.4837  11.00000  0.05    0.19
Q16   1   0.7735  0.2827  0.2580  11.00000  0.05    0.19
Q17   1  -0.5994  0.9685  0.0213  11.00000  0.05    0.19
Q18   1  -0.5483  0.9799  0.0377  11.00000  0.05    0.18
Q19   1  -0.2457  0.7203  0.0555  11.00000  0.05    0.18
Q20   1  -0.2755  0.6690  0.5740  11.00000  0.05    0.17
Q21   1  -0.1011  0.6522  0.1418  11.00000  0.05    0.17
Q22   1  -0.3466  0.7796  0.1169  11.00000  0.05    0.17
Q23   1   0.4302  0.5479  0.0983  11.00000  0.05    0.17
Q24   1   0.1605  0.4521  0.4149  11.00000  0.05    0.17
Q25   1   0.2458  0.4839  0.1894  11.00000  0.05    0.16
Q26   1   0.7124  0.3646  0.0755  11.00000  0.05    0.16
Q27   1  -0.3120  0.5847  0.3586  11.00000  0.05    0.16
Q28   1   0.4396  0.6561  0.1815  11.00000  0.05    0.16
Q29   1  -0.3715  0.6949  0.4413  11.00000  0.05    0.16
Q30   1   0.9363  0.1330  0.0883  11.00000  0.05    0.16
Q31   1   1.3142 -0.0515  0.0051  11.00000  0.05    0.16
Q32   1   0.3945  0.4863  0.1610  11.00000  0.05    0.16
Q33   1  -0.3012  0.7854  0.2400  11.00000  0.05    0.16
Q34   1  -0.2005  0.7545  0.1943  11.00000  0.05    0.15
Q35   1   0.1617  0.7308  0.2069  11.00000  0.05    0.15
Q36   1   0.6722  0.1600  0.2747  11.00000  0.05    0.15
Q37   1  -0.1751  0.5114  0.1462  11.00000  0.05    0.15
Q38   1  -0.2930  0.8966  0.0853  11.00000  0.05    0.15
Q39   1   1.0630  0.0650  0.0368  11.00000  0.05    0.15
Q40   1  -0.2931  0.8104 -0.0205  11.00000  0.05    0.15
;
_shelx_res_checksum              74655
_shelxl_version_number           2.014
loop_
_space_group_symop_operation_xyz
'x, y, z'
'-x, -y, -z'
loop_
_atom_site_type_symbol
_atom_site_label
_atom_site_fract_x
_atom_site_fract_y
_atom_site_fract_z
_atom_site_U_iso_or_equiv
_atom_site_adp_type
_atom_site_calc_flag
_atom_site_occupancy
C C1 0.7059(3) 0.2769(3) 0.22114(15) 0.0378(5) Uani d 1
C C2 0.8316(4) 0.2335(3) 0.29478(16) 0.0430(6) Uani d 1
C C3 1.0360(4) 0.1298(4) 0.2861(2) 0.0562(7) Uani d 1
H H3 1.1201 0.0997 0.3350 0.067 Uiso calc 1
C C4 1.1154(4) 0.0709(4) 0.2047(2) 0.0613(8) Uani d 1
H H4 1.2535 0.0012 0.1994 0.074 Uiso calc 1
C C5 0.9964(4) 0.1123(4) 0.1320(2) 0.0557(7) Uani d 1
H H5 1.0523 0.0720 0.0774 0.067 Uiso calc 1
C C6 0.7903(4) 0.2157(3) 0.14060(17) 0.0483(6) Uani d 1
H H6 0.7076 0.2444 0.0913 0.058 Uiso calc 1
N N1 0.4991(3) 0.3857(3) 0.23626(12) 0.0383(4) Uani d 1
O O2 0.7364(3) 0.2996(3) 0.37170(11) 0.0572(5) Uani d 1
C C21 0.8634(5) 0.2772(5) 0.44787(17) 0.0698(9) Uani d 1
H H21A 0.9097 0.1476 0.4629 0.105 Uiso calc 1
H H21B 0.7802 0.3372 0.4960 0.105 Uiso calc 1
H H21C 0.9856 0.3316 0.4358 0.105 Uiso calc 1
C C11 0.1570(3) 0.5531(3) 0.19762(14) 0.0349(5) Uani d 1
C C12 0.0995(3) 0.5987(3) 0.28483(15) 0.0383(5) Uani d 1
O O12 0.2333(3) 0.5482(3) 0.34994(10) 0.0543(5) Uani d 1
H H12 0.3443 0.4836 0.3310 0.081 Uiso calc 1
C C13 -0.1085(4) 0.6993(3) 0.30436(15) 0.0397(6) Uani d 1
C C14 -0.2496(4) 0.7521(3) 0.23830(15) 0.0408(6) Uani d 1
H H14 -0.3867 0.8181 0.2511 0.049 Uiso calc 1
C C15 -0.1885(4) 0.7075(3) 0.15261(15) 0.0391(5) Uani d 1
Br Br15 -0.38932(4) 0.78676(4) 0.06357(2) 0.05846(12) Uani d 1
C C16 0.0101(4) 0.6106(3) 0.13123(14) 0.0386(5) Uani d 1
H H16 0.0481 0.5827 0.0732 0.046 Uiso calc 1
C C17 0.3641(3) 0.4427(3) 0.17669(15) 0.0392(5) Uani d 1
H H17 0.4003 0.4123 0.1188 0.047 Uiso calc 1
O O13 -0.1504(3) 0.7366(3) 0.39020(11) 0.0571(5) Uani d 1
C C113 -0.3642(4) 0.8120(5) 0.41627(19) 0.0740(9) Uani d 1
H H11A -0.4056 0.9354 0.3911 0.111 Uiso calc 1
H H11B -0.3762 0.8153 0.4791 0.111 Uiso calc 1
H H11C -0.4558 0.7364 0.3962 0.111 Uiso calc 1
loop_
_atom_site_aniso_label
_atom_site_aniso_U_11
_atom_site_aniso_U_22
_atom_site_aniso_U_33
_atom_site_aniso_U_12
_atom_site_aniso_U_13
_atom_site_aniso_U_23
C1 0.0342(12) 0.0336(13) 0.0459(14) -0.0069(10) 0.0021(11) -0.0065(11)
C2 0.0375(13) 0.0395(14) 0.0508(15) -0.0055(11) 0.0004(11) -0.0037(12)
C3 0.0420(15) 0.0516(17) 0.0711(19) 0.0007(13) -0.0099(14) -0.0015(14)
C4 0.0365(14) 0.0458(17) 0.097(2) 0.0020(12) 0.0068(16) -0.0110(16)
C5 0.0505(16) 0.0447(16) 0.0718(19) -0.0088(13) 0.0171(15) -0.0216(14)
C6 0.0468(15) 0.0464(16) 0.0517(16) -0.0082(12) 0.0027(12) -0.0119(12)
N1 0.0309(10) 0.0418(12) 0.0416(11) -0.0045(8) -0.0011(9) -0.0060(9)
O2 0.0471(10) 0.0755(13) 0.0432(10) 0.0023(9) -0.0091(8) -0.0034(9)
C21 0.0687(19) 0.091(2) 0.0463(16) -0.0094(17) -0.0180(14) 0.0079(15)
C11 0.0345(12) 0.0351(13) 0.0357(12) -0.0081(10) -0.0007(10) -0.0035(10)
C12 0.0335(12) 0.0438(14) 0.0379(13) -0.0073(10) -0.0042(10) -0.0046(11)
O12 0.0375(9) 0.0823(14) 0.0377(9) 0.0036(9) -0.0064(7) -0.0141(9)
C13 0.0370(13) 0.0456(15) 0.0366(13) -0.0079(11) 0.0015(10) -0.0084(11)
C14 0.0331(12) 0.0388(14) 0.0484(15) -0.0015(10) -0.0016(11) -0.0049(11)
C15 0.0381(13) 0.0404(14) 0.0382(13) -0.0070(11) -0.0064(10) 0.0036(11)
Br15 0.04838(17) 0.0752(2) 0.04735(17) -0.00178(13) -0.01454(12) 0.00530(13)
C16 0.0428(14) 0.0414(14) 0.0317(12) -0.0089(11) -0.0005(10) -0.0028(10)
C17 0.0410(13) 0.0400(14) 0.0367(13) -0.0078(11) 0.0021(11) -0.0069(11)
O13 0.0431(10) 0.0845(14) 0.0388(10) 0.0011(9) 0.0021(8) -0.0184(9)
C113 0.0469(17) 0.112(3) 0.0578(18) -0.0015(17) 0.0124(14) -0.0313(18)
loop_
_atom_type_symbol
_atom_type_description
_atom_type_scat_dispersion_real
_atom_type_scat_dispersion_imag
_atom_type_scat_source
C C 0.0033 0.0016 'International Tables Vol C Tables 4.2.6.8 and 6.1.1.4'
H H 0.0000 0.0000 'International Tables Vol C Tables 4.2.6.8 and 6.1.1.4'
N N 0.0061 0.0033 'International Tables Vol C Tables 4.2.6.8 and 6.1.1.4'
O O 0.0106 0.0060 'International Tables Vol C Tables 4.2.6.8 and 6.1.1.4'
Br Br -0.2901 2.4595 'International Tables Vol C Tables 4.2.6.8 and 6.1.1.4'
loop_
_geom_angle_atom_site_label_1
_geom_angle_atom_site_label_2
_geom_angle_atom_site_label_3
_geom_angle
C6 C1 C2 119.0(2)
C6 C1 N1 125.3(2)
C2 C1 N1 115.7(2)
O2 C2 C3 124.9(2)
O2 C2 C1 115.3(2)
C3 C2 C1 119.8(2)
C4 C3 C2 119.7(3)
C4 C3 H3 120.1
C2 C3 H3 120.1
C5 C4 C3 121.6(2)
C5 C4 H4 119.2
C3 C4 H4 119.2
C4 C5 C6 118.8(3)
C4 C5 H5 120.6
C6 C5 H5 120.6
C1 C6 C5 121.1(2)
C1 C6 H6 119.4
C5 C6 H6 119.4
C17 N1 C1 124.6(2)
C2 O2 C21 118.1(2)
O2 C21 H21A 109.5
O2 C21 H21B 109.5
H21A C21 H21B 109.5
O2 C21 H21C 109.5
H21A C21 H21C 109.5
H21B C21 H21C 109.5
C16 C11 C12 120.0(2)
C16 C11 C17 119.9(2)
C12 C11 C17 120.0(2)
O12 C12 C11 122.2(2)
O12 C12 C13 118.8(2)
C11 C12 C13 119.0(2)
C12 O12 H12 109.5
O13 C13 C14 125.2(2)
O13 C13 C12 114.98(19)
C14 C13 C12 119.8(2)
C13 C14 C15 120.2(2)
C13 C14 H14 119.9
C15 C14 H14 119.9
C16 C15 C14 121.7(2)
C16 C15 Br15 119.87(17)
C14 C15 Br15 118.38(17)
C15 C16 C11 119.3(2)
C15 C16 H16 120.4
C11 C16 H16 120.4
N1 C17 C11 121.1(2)
N1 C17 H17 119.4
C11 C17 H17 119.4
C13 O13 C113 117.68(19)
O13 C113 H11A 109.5
O13 C113 H11B 109.5
H11A C113 H11B 109.5
O13 C113 H11C 109.5
H11A C113 H11C 109.5
H11B C113 H11C 109.5
loop_
_geom_bond_atom_site_label_1
_geom_bond_atom_site_label_2
_geom_bond_distance
C1 C6 1.380(3)
C1 C2 1.397(3)
C1 N1 1.416(3)
C2 O2 1.364(3)
C2 C3 1.379(3)
C3 C4 1.378(4)
C3 H3 0.9300
C4 C5 1.361(4)
C4 H4 0.9300
C5 C6 1.386(3)
C5 H5 0.9300
C6 H6 0.9300
N1 C17 1.277(3)
O2 C21 1.432(3)
C21 H21A 0.9600
C21 H21B 0.9600
C21 H21C 0.9600
C11 C16 1.403(3)
C11 C12 1.404(3)
C11 C17 1.439(3)
C12 O12 1.329(3)
C12 C13 1.413(3)
O12 H12 0.8200
C13 O13 1.356(3)
C13 C14 1.372(3)
C14 C15 1.385(3)
C14 H14 0.9300
C15 C16 1.360(3)
C15 Br15 1.899(2)
C16 H16 0.9300
C17 H17 0.9300
O13 C113 1.416(3)
C113 H11A 0.9600
C113 H11B 0.9600
C113 H11C 0.9600
loop_
_geom_hbond_atom_site_label_D
_geom_hbond_atom_site_label_H
_geom_hbond_atom_site_label_A
_geom_hbond_distance_DH
_geom_hbond_distance_HA
_geom_hbond_distance_DA
_geom_hbond_angle_DHA
_geom_hbond_publ_flag
O12 H12 N1 0.82 1.81 2.543(3) 147 no
loop_
_geom_torsion_atom_site_label_1
_geom_torsion_atom_site_label_2
_geom_torsion_atom_site_label_3
_geom_torsion_atom_site_label_4
_geom_torsion
C6 C1 C2 O2 179.8(2)
N1 C1 C2 O2 1.0(3)
C6 C1 C2 C3 -0.5(4)
N1 C1 C2 C3 -179.3(2)
O2 C2 C3 C4 -179.9(2)
C1 C2 C3 C4 0.5(4)
C2 C3 C4 C5 -0.1(4)
C3 C4 C5 C6 -0.3(4)
C2 C1 C6 C5 0.1(4)
N1 C1 C6 C5 178.8(2)
C4 C5 C6 C1 0.2(4)
C6 C1 N1 C17 -0.6(4)
C2 C1 N1 C17 178.1(2)
C3 C2 O2 C21 6.9(4)
C1 C2 O2 C21 -173.5(2)
C16 C11 C12 O12 -179.7(2)
C17 C11 C12 O12 2.2(3)
C16 C11 C12 C13 1.3(3)
C17 C11 C12 C13 -176.8(2)
O12 C12 C13 O13 0.7(3)
C11 C12 C13 O13 179.8(2)
O12 C12 C13 C14 -179.7(2)
C11 C12 C13 C14 -0.6(3)
O13 C13 C14 C15 179.4(2)
C12 C13 C14 C15 -0.2(4)
C13 C14 C15 C16 0.3(4)
C13 C14 C15 Br15 -179.26(17)
C14 C15 C16 C11 0.4(3)
Br15 C15 C16 C11 179.91(16)
C12 C11 C16 C15 -1.1(3)
C17 C11 C16 C15 177.0(2)
C1 N1 C17 C11 -179.9(2)
C16 C11 C17 N1 -178.6(2)
C12 C11 C17 N1 -0.5(3)
C14 C13 O13 C113 9.7(4)
C12 C13 O13 C113 -170.7(2)
