#------------------------------------------------------------------------------
#$Date: 2019-02-14 05:36:51 +0200 (Thu, 14 Feb 2019) $
#$Revision: 213640 $
#$URL: file:///home/coder/svn-repositories/cod/cif/2/02/14/2021493.cif $
#------------------------------------------------------------------------------
#
# This file is available in the Crystallography Open Database (COD),
# http://www.crystallography.net/. The original data for this entry
# were provided by IUCr Journals, http://journals.iucr.org/.
#
# The file may be used within the scientific community so long as
# proper attribution is given to the journal article from which the
# data were obtained.
#
data_2021493
loop_
_publ_author_name
'Losev, Evgeniy A.'
'Boldyreva, Elena'
_publ_section_title
;
 Concomitant cocrystal and salt: no interconversion in the solid state
;
_journal_coeditor_code           KU3233
_journal_issue                   3
_journal_name_full               'Acta Crystallographica Section C'
_journal_page_first
;
;
_journal_paper_doi               10.1107/S2053229619001372
_journal_volume                  75
_journal_year                    2019
_chemical_formula_iupac          'C3 H7.5 N O2 +, C4 H5.5 O6 -'
_chemical_formula_moiety         'C3 H7.5 N O2 +, C4 H5.5 O6 -'
_chemical_formula_sum            'C7 H13 N O8'
_chemical_formula_weight         239.18
_chemical_name_common            '\b-Alanine--<i>DL</i>-tartaric acid (1/1)'
_chemical_name_systematic        '\b-Alaninium <i>DL</i>-tartarate'
_space_group_crystal_system      triclinic
_space_group_IT_number           2
_space_group_name_Hall           '-P 1'
_space_group_name_H-M_alt        'P -1'
_symmetry_space_group_name_Hall  '-P 1'
_symmetry_space_group_name_H-M   'P -1'
_atom_sites_solution_hydrogens   mixed
_audit_creation_method
;
Olex2 1.2
(compiled 2018.05.29 svn.r3508 for OlexSys, GUI svn.r5506)
;
_cell_angle_alpha                108.459(7)
_cell_angle_beta                 96.649(8)
_cell_angle_gamma                92.235(7)
_cell_formula_units_Z            2
_cell_length_a                   4.8948(5)
_cell_length_b                   8.5707(7)
_cell_length_c                   11.9179(9)
_cell_measurement_reflns_used    2559
_cell_measurement_temperature    100
_cell_measurement_theta_max      29.5330
_cell_measurement_theta_min      2.5210
_cell_volume                     469.54(7)
_computing_cell_refinement
;
CrysAlis PRO (Agilent, 2014)
;
_computing_data_collection
;
CrysAlis PRO (Agilent, 2014)
;
_computing_data_reduction
;
CrysAlis PRO (Agilent, 2014)
;
_computing_molecular_graphics
;
OLEX2 (Dolomanov <i>et al.</i>,  2009)
;
_computing_publication_material
;
OLEX2 (Dolomanov <i>et al.</i>,  2009)
;
_computing_structure_refinement
;
SHELXL2018 (Sheldrick, 2015b)
;
_computing_structure_solution
;
olex2.solve (Bourhis <i>et al.</i>,  2015)
;
_diffrn_ambient_temperature      100
_diffrn_detector                 'CCD plate'
_diffrn_measured_fraction_theta_full 0.999
_diffrn_measured_fraction_theta_max 0.999
_diffrn_measurement_device_type  'Stoe IPDS'
_diffrn_measurement_method       '\w scans'
_diffrn_radiation_monochromator  graphite
_diffrn_radiation_probe          x-ray
_diffrn_radiation_type           MoK\a
_diffrn_radiation_wavelength     0.71073
_diffrn_reflns_av_R_equivalents  0.0449
_diffrn_reflns_av_unetI/netI     0.0490
_diffrn_reflns_limit_h_max       5
_diffrn_reflns_limit_h_min       -6
_diffrn_reflns_limit_k_max       10
_diffrn_reflns_limit_k_min       -10
_diffrn_reflns_limit_l_max       14
_diffrn_reflns_limit_l_min       -14
_diffrn_reflns_number            5829
_diffrn_reflns_theta_full        25.242
_diffrn_reflns_theta_max         26.370
_diffrn_reflns_theta_min         2.513
_diffrn_source                   'Enhance (Mo) X-ray Source'
_exptl_absorpt_coefficient_mu    0.157
_exptl_absorpt_correction_T_max  0.995
_exptl_absorpt_correction_T_min  0.964
_exptl_absorpt_correction_type   gaussian
_exptl_absorpt_process_details
;
(CrysAlis PRO; Agilent, 2014)
;
_exptl_crystal_colour            colourless
_exptl_crystal_density_diffrn    1.692
_exptl_crystal_description       ' '
_exptl_crystal_F_000             252
_exptl_crystal_size_max          0.4337
_exptl_crystal_size_mid          0.071
_exptl_crystal_size_min          0.034
_refine_diff_density_max         0.316
_refine_diff_density_min         -0.271
_refine_ls_extinction_method     none
_refine_ls_goodness_of_fit_ref   1.038
_refine_ls_hydrogen_treatment    mixed
_refine_ls_matrix_type           full
_refine_ls_number_parameters     154
_refine_ls_number_reflns         1915
_refine_ls_number_restraints     0
_refine_ls_restrained_S_all      1.038
_refine_ls_R_factor_all          0.0632
_refine_ls_R_factor_gt           0.0390
_refine_ls_shift/su_max          0.000
_refine_ls_shift/su_mean         0.000
_refine_ls_structure_factor_coef Fsqd
_refine_ls_weighting_details
'w=1/[\s^2^(Fo^2^)+(0.0309P)^2^+0.1807P] where P=(Fo^2^+2Fc^2^)/3'
_refine_ls_weighting_scheme      calc
_refine_ls_wR_factor_gt          0.0769
_refine_ls_wR_factor_ref         0.0833
_reflns_number_gt                1427
_reflns_number_total             1915
_reflns_threshold_expression     'I > 2\s(I)'
_cod_data_source_file            ku3233sup1.cif
_cod_data_source_block           100_salt
_cod_database_code               2021493
_shelx_space_group_comment
;
The symmetry employed for this shelxl refinement is uniquely defined
by the following loop, which should always be used as a source of
symmetry information in preference to the above space-group names.
They are only intended as comments.
;
_shelx_estimated_absorpt_t_min   0.935
_shelx_estimated_absorpt_t_max   0.995
_shelx_hkl_file
;
   0   0  -2 72.4364 2.66816   1
   0   0   2 74.9892 2.69511   1
   0   0   3 119.020 4.05574   1
   0   0  -3 122.277 4.11724   1
   0   0  -4 66.6343 3.68020   1
   0   0   4 62.9832 3.60575   1
   0   0   5 314.637 8.33231   1
   0   0  -5 310.689 8.32301   1
   0   0   6 107.991 5.66261   1
   0   0  -6 121.948 5.98883   1
   0   0   7 76.6302 5.38250   1
   0   0  -7 78.3240 5.46577   1
   0   0  -8 32.1645 4.49981   1
   0   0   8 31.3349 4.30917   1
   0   0   9 142.775 8.32278   1
   0   0  -9 152.156 8.63744   1
   0   0 -10 17.5966 4.56205   1
   0   0  10 12.6459 4.59351   1
   0   0  11 99.4806 8.55633   1
   0   0 -11 104.349 8.50320   1
   0   0  12 2.55993 5.27220   1
   0   0 -12-5.49971 5.62380   1
   0   0 -12 5.59697 5.90783   2
   0   0 -13 10.7811 7.75113   2
   0   0  13 17.1284 6.65342   1
   0   0 -13 3.83631 6.60449   1
   0   0  14 15.4518 8.43822   1
   0   0 -14 29.4318 9.62502   2
   0   0 -14 38.9052 8.98785   1
   0   0 -15 13.8394 10.5184   2
   0   0 -15 2.20817 9.57967   1
   0   0  15 16.1670 8.81914   1
   0   1 -16 31.4228 8.70295   2
   0  -1  16 17.3938 7.22371   1
   0  -1  16 37.9316 8.11224   1
   0  -1  15 17.6386 7.91961   1
   0  -1  15 1.70305 7.67202   1
   0   1 -15 21.4092 9.60871   2
   0   1 -14 11.9643 6.98056   1
   0  -1  14 1.48239 6.13454   1
   0   1 -14 25.2560 8.60420   2
   0   1 -13 133.769 11.6774   2
   0  -1  13 117.296 9.54435   1
   0   1 -13 139.772 10.2041   1
   0   1 -12 20.6548 6.48622   2
   0  -1  12 21.7700 5.93467   1
   0   1 -12 22.2620 5.94270   1
   0   1 -11 18.8806 4.80349   1
   0   1 -11 24.0911 5.76119   2
   0  -1  11 17.2123 4.68058   1
   0   1 -10 49.7827 5.54783   1
   0  -1  10 44.2646 5.20043   1
   0   1 -10 46.7720 6.42886   2
   0   1  -9 4.91219 3.21967   1
   0   1  -9 1.28243 3.50671   2
   0  -1   9-2.85955 3.11034   1
   0   1  -8 12.5489 3.03468   1
   0  -1   8 11.8747 2.99073   1
   0   1  -8 15.2405 3.88666   2
   0   1  -7 19.7605 3.56801   2
   0  -1   7 19.0574 2.99057   1
   0   1  -7 15.6422 2.91790   1
   0  -1   6 3.00075 1.96983   1
   0   1  -6 3.36068 2.02261   1
   0   1  -6 2.23489 2.32877   2
   0   1  -5 12.5781 2.49467   2
   0  -1   5 11.1183 1.99441   1
   0   1  -5 10.6370 2.05235   1
   0   1  -4 7.95286 1.64251   1
   0  -1   4 7.45024 1.61870   1
   0   1  -4 4.96183 1.85215   2
   0  -1   3 2229.84 17.5788   2
   0   1  -3 2214.58 17.4749   2
   0  -1   3 2228.81 13.9671   1
   0   1  -2 327.709 5.85212   2
   0   1  -2 335.271 4.41320   1
   0  -1   2 332.572 4.39589   1
   0  -1   2 335.161 5.94781   2
   0   1  -1 10.7599 1.13051   1
   0  -1   1 10.1097 1.41026   2
   0   1  -1 11.4227 1.43445   2
   0  -1   1 10.2704 1.07512   1
   0  -1   0 197.442 4.00849   2
   0   1   0 198.379 4.06093   1
   0   1   0 202.316 4.04447   2
   0  -1   0 198.818 4.08040   1
   0   1   1 110.326 3.53262   2
   0  -1  -1 120.482 3.67554   2
   0   1   1 119.460 3.86350   1
   0  -1  -1 117.425 3.83845   1
   0  -1  -2 40.4842 2.95788   1
   0   1   2 38.8431 2.94874   1
   0  -1  -2 41.6851 2.78778   2
   0  -1  -3 260.730 7.20915   1
   0   1   3 256.220 7.20108   1
   0  -1  -4 177.229 6.69537   1
   0   1   4 165.810 6.53313   1
   0   1   5 27.3300 3.52959   1
   0  -1  -5 24.0723 3.42990   1
   0   1   6 349.473 10.9831   1
   0  -1  -6 381.779 11.3701   1
   0  -1  -7 1170.05 21.0210   1
   0   1   7 1107.90 20.5795   1
   0   1   8 0.48734 3.40521   1
   0  -1  -8 4.13434 3.42535   1
   0   1   9 9.93819 4.30835   1
   0  -1  -9 2.26588 4.06335   1
   0   1  10 4.19706 4.75979   1
   0  -1 -10 2.91690 4.65602   1
   0  -1 -11 26.5301 6.65573   1
   0   1  11 14.0912 6.02621   1
   0  -1 -12 24.9500 7.48969   1
   0   1  12 17.0886 6.86473   1
   0  -1 -13 23.7927 8.01745   2
   0  -1 -13 33.9582 8.36425   1
   0   1  14 3.86196 8.40298   1
   0  -1 -14 4.31532 9.23795   1
   0  -1 -14-6.99359 8.97064   2
   0  -1 -14 16.9127 9.84165   2
   0  -1 -15 31.9620 12.1916   2
   0  -1 -15 4.41858 10.5133   1
   0   1  15 4.96085 9.84886   1
   0  -1 -15 23.8604 10.9011   2
   0  -2  16 127.751 11.5577   1
   0  -2  16 110.488 11.0157   1
   0  -2  15 77.1463 9.19903   1
   0  -2  15 67.3820 8.80740   1
   0   2 -15 91.2448 12.9791   2
   0  -2  14 27.4422 6.50360   1
   0  -2  14 29.8134 6.57708   1
   0   2 -14 20.3070 8.24767   2
   0  -2  13 74.4335 7.09885   1
   0  -2  13 70.6022 7.23729   1
   0   2 -13 67.4401 9.10235   2
   0   2 -12 2.31893 5.42971   2
   0  -2  12 9.08955 4.50680   1
   0  -2  12 5.09902 4.10970   1
   0   2 -11 255.149 12.6985   2
   0  -2  11 245.296 9.99896   1
   0  -2  11 273.821 10.6131   1
   0  -2  10 133.465 7.22098   1
   0   2 -10 153.360 9.41994   2
   0  -2  10 130.668 7.05573   1
   0   2  -9 3.59543 3.48180   2
   0  -2   9 11.9329 3.00889   1
   0  -2   9 6.34268 2.77094   1
   0  -2   8 135.018 6.14112   1
   0  -2   8 136.332 6.09092   1
   0   2  -8 137.555 7.77387   2
   0  -2   7 68.0004 4.13977   1
   0   2  -7 77.6101 5.67472   2
   0  -2   7 67.6476 4.07259   1
   0  -2   6 209.727 6.06844   1
   0  -2   6 214.543 6.28721   1
   0   2  -6 209.503 8.00650   2
   0  -2   5 95.4571 5.24234   2
   0  -2   5 94.1692 3.94686   1
   0  -2   5 89.3810 3.73357   1
   0   2  -5 95.0138 5.17878   2
   0   2  -4 58.2394 3.89231   2
   0  -2   4 56.2996 2.79495   1
   0  -2   4 50.4222 3.69577   2
   0   2  -3 122.540 4.90028   2
   0   2  -3 126.859 3.75936   1
   0  -2   3 130.248 3.81543   1
   0  -2   3 117.548 4.87392   2
   0  -2   2 3088.83 18.0442   1
   0   2  -2 3032.58 21.5770   2
   0   2  -2 3048.71 18.0407   1
   0  -2   2 2989.19 21.4840   2
   0  -2   1 19.0330 2.07213   1
   0   2  -1 15.1910 2.18554   2
   0   2  -1 14.7112 1.99110   1
   0  -2   1 13.1822 2.14947   2
   0  -2   0 20.2035 2.37840   1
   0   2   0 23.2662 2.52114   1
   0  -2   0 24.8711 2.51467   2
   0   2   0 25.1504 2.54060   2
   0  -2  -1 191.740 5.94948   2
   0   2   1 186.026 6.23657   1
   0   2   1 190.824 5.95618   2
   0  -2  -1 185.962 6.24341   1
   0   2   2 76.7564 4.33758   2
   0  -2  -2 80.3779 4.40835   2
   0   2   2 87.5487 4.93083   1
   0  -2  -2 78.9219 4.63269   1
   0  -2  -3 428.797 10.8344   1
   0  -2  -3 395.906 9.91820   2
   0   2   3 408.939 10.6894   1
   0  -2  -4 1305.74 20.0962   1
   0   2   4 1235.82 19.7756   1
   0  -2  -4 1220.80 18.5808   2
   0  -2  -5 5.87390 3.21928   1
   0   2   5 0.84394 2.88113   1
   0  -2  -5-1.22923 2.59907   2
   0  -2  -6 136.737 7.97377   1
   0  -2  -6 129.304 7.54885   2
   0   2   6 126.707 7.80360   1
   0   2   7 3.79730 3.49089   1
   0  -2  -7 1.09763 3.25014   2
   0  -2  -7 5.06144 3.78367   1
   0  -2  -8 72.8015 7.18831   1
   0   2   8 65.6886 6.96271   1
   0  -2  -8 61.4237 6.57641   2
   0  -2  -9 51.4764 6.94916   2
   0  -2  -9 50.0286 6.89056   1
   0   2   9 47.0447 6.98939   1
   0  -2 -10 111.612 9.84656   2
   0  -2 -10 113.654 9.81382   1
   0   2  10 109.225 9.91423   1
   0  -2 -11 85.0900 9.79258   2
   0  -2 -11 79.8287 9.46951   1
   0   2  11 67.3592 9.03853   1
   0   2  12 47.6505 9.37172   1
   0  -2 -12 62.5313 10.0670   1
   0  -2 -12 37.0599 8.90332   2
   0   2  13 9.55343 9.06196   1
   0  -2 -13 0.32055 9.29479   1
   0  -2 -13 22.3679 10.1053   2
   0  -2 -14 36.7572 11.7171   1
   0   2  14 2.69478 11.2473   1
   0  -2 -14 26.0146 10.6312   2
   0   3 -16-1.23773 10.8674   2
   0  -3  16 8.54709 6.95935   1
   0  -3  16-3.30034 6.75478   1
   0  -3  15 88.4686 8.67548   1
   0  -3  15 88.6173 8.52586   1
   0   3 -15 115.394 13.3153   2
   0  -3  14 14.3223 5.16707   1
   0  -3  14 5.28407 5.04059   1
   0   3 -14 11.8959 7.07923   2
   0  -3  13 154.677 8.76525   1
   0  -3  13 130.157 8.10814   1
   0   3 -13 159.939 12.1393   2
   0  -3  12 27.9774 4.69325   1
   0  -3  12 35.2432 4.86378   1
   0   3 -12 26.7865 6.43051   2
   0  -3  11 9.72437 3.54216   1
   0   3 -11 5.92512 4.76275   2
   0  -3  11 11.1823 3.64737   1
   0  -3  10 14.3378 3.27793   1
   0  -3  10 15.3474 3.34714   1
   0   3 -10 8.91104 4.27080   2
   0  -3   9 38.5659 3.82508   1
   0   3  -9 45.0496 5.60920   2
   0  -3   9 42.6365 3.92335   1
   0   3  -8 12.9987 3.73613   2
   0  -3   8 24.0980 3.02544   1
   0  -3   8 22.7622 2.94506   1
   0   3  -7 644.855 15.3412   2
   0  -3   7 646.536 15.5102   2
   0  -3   7 625.669 11.3249   1
   0  -3   7 632.531 11.1105   1
   0   3  -6 18.3512 3.35236   2
   0  -3   6 12.8347 2.12014   1
   0  -3   6 16.6266 2.40104   1
   0  -3   6 12.8900 3.21451   2
   0  -3   5 99.4624 4.21094   1
   0   3  -5 97.7605 5.66671   2
   0   3  -5 99.8916 4.19599   1
   0  -3   5 100.640 5.79046   2
   0   3  -4 190.308 7.23805   2
   0  -3   4 181.547 7.13146   2
   0  -3   4 188.372 5.52656   1
   0   3  -4 188.861 5.60456   1
   0  -3   3 300.530 7.10024   1
   0   3  -3 302.227 7.15539   1
   0   3  -3 322.546 8.87537   2
   0  -3   3 308.588 8.73498   2
   0   3  -2 0.03367 2.02824   2
   0  -3   2-0.99998 1.98018   2
   0   3  -2 0.75209 1.68829   1
   0  -3   2-0.70129 1.69788   1
   0  -3   1 56.9450 3.82615   1
   0   3  -1 61.1816 3.91282   1
   0   3  -1 59.3706 4.13866   2
   0  -3   1 54.3603 3.96928   2
   0   3   0 15.3981 2.76741   2
   0  -3   0 13.5303 2.67580   1
   0  -3   0 19.0919 2.91685   2
   0   3   0 16.0336 2.72909   1
   0  -3  -1 1321.12 19.0307   1
   0   3   1 1346.69 19.1218   1
   0   3   1 1339.32 18.3765   2
   0  -3  -1 1331.19 18.2885   2
   0  -3  -2 804.575 15.0178   2
   0  -3  -2 799.332 15.8007   1
   0   3   2 788.678 14.9517   2
   0   3   2 773.216 15.6266   1
   0  -3  -3 5.72750 2.81929   2
   0   3   3 1.17188 2.89914   1
   0  -3  -3 4.50745 3.08583   1
   0   3   4 60.1848 5.55801   1
   0  -3  -4 53.2840 5.04129   2
   0  -3  -4 58.8525 5.59022   1
   0   3   5 41.7959 5.46833   1
   0  -3  -5 35.8173 5.27280   1
   0  -3  -5 42.1994 5.02683   2
   0  -3  -6 45.2077 6.12459   1
   0   3   6 46.3473 6.14155   1
   0  -3  -6 49.2552 5.74919   2
   0   3   7 77.5575 7.72518   1
   0  -3  -7 70.3300 6.96428   2
   0  -3  -7 76.7682 7.68838   1
   0  -3  -8 188.035 11.4954   1
   0   3   8 159.023 10.8558   1
   0  -3  -8 179.242 10.7429   2
   0  -3  -9 2.23640 5.29886   1
   0  -3  -9-7.51074 5.55498   2
   0   3   9 1.21637 5.43293   1
   0  -3 -10 16.9221 6.66485   2
   0   3  10 35.4596 8.33093   1
   0  -3 -10 14.0886 7.07609   1
   0  -3 -11 62.3290 10.4412   1
   0   3  11 67.4672 10.5438   1
   0  -3 -11 70.4357 9.54726   2
   0   3  12 4.05279 8.94947   1
   0  -3 -12 14.9092 9.76768   1
   0  -3 -12 15.5156 8.86731   2
   0  -3 -13 7.85466 10.2330   2
   0  -3 -13 19.6509 10.7716   1
   0   3  13 12.9846 10.6192   1
   0   4 -16 6.37122 10.8256   2
   0  -4  16-1.06196 5.65659   1
   0  -4  16 5.46222 6.23773   1
   0  -4  15 74.5385 7.29680   1
   0   4 -15 81.1488 12.5236   2
   0  -4  15 92.5509 7.93259   1
   0  -4  14-6.14623 4.72272   1
   0   4 -14-3.02929 7.42466   2
   0  -4  14 9.87005 4.72395   1
   0   4 -13 2.54988 6.81557   2
   0  -4  13 4.94566 3.79103   1
   0  -4  13 1.66686 3.93233   1
   0  -4  12 16.8792 4.09783   1
   0   4 -12 10.1595 5.99749   2
   0  -4  12 10.4739 3.76314   1
   0   4 -11 54.5019 7.14440   2
   0  -4  11 60.6641 5.01730   1
   0  -4  11 50.4865 4.81859   1
   0   4 -10 31.9835 5.74838   2
   0  -4  10 29.3017 3.74864   1
   0  -4  10 30.3880 3.70884   1
   0  -4   9 22.9484 3.34217   1
   0   4  -9 23.4812 4.95419   2
   0  -4   9 25.1364 3.30519   1
   0  -4   8 16.3367 2.85598   1
   0  -4   8 11.9259 4.04119   2
   0   4  -8 12.4877 4.05672   2
   0  -4   8 17.0719 2.84802   1
   0   4  -7 7.87474 3.48018   2
   0  -4   7 8.81728 2.34374   1
   0  -4   7 6.29468 2.40338   1
   0  -4   7 9.25996 3.60742   2
   0  -4   6 672.271 11.8047   1
   0  -4   6 644.090 15.6276   2
   0   4  -6 650.202 11.6502   1
   0   4  -6 617.959 15.2415   2
   0  -4   5 168.697 6.16406   1
   0   4  -5 162.568 7.78868   2
   0  -4   5 164.939 7.97038   2
   0   4  -5 167.240 6.21735   1
   0  -4   4 6.08202 2.12177   1
   0   4  -4 7.66429 2.91813   2
   0   4  -4 7.30175 2.30367   1
   0  -4   4 6.64255 2.89362   2
   0  -4   3 80.8985 5.54796   2
   0   4  -3 86.2233 5.65339   2
   0   4  -3 86.1397 4.89993   1
   0  -4   3 89.6639 4.99617   1
   0  -4   2 48.0798 4.13329   1
   0   4  -2 49.0422 4.47756   2
   0   4  -2 46.2213 4.02226   1
   0  -4   2 50.0163 4.61095   2
   0   4  -1 397.344 10.9211   1
   0  -4   1 406.027 11.3627   2
   0   4  -1 412.293 11.3619   2
   0  -4   1 411.288 11.1026   1
   0  -4   0 32.1788 4.19921   1
   0   4   0 32.5088 3.96707   2
   0  -4   0 30.6841 3.95347   2
   0   4   0 31.2948 4.12532   1
   0  -4  -1 481.595 13.3479   1
   0   4   1 468.249 13.1540   1
   0   4   1 466.385 12.7172   2
   0  -4  -1 475.723 12.8134   2
   0   4   2 74.7090 5.80801   2
   0   4   2 74.2297 6.20610   1
   0  -4  -2 79.3269 6.41072   1
   0  -4  -2 73.6669 5.78512   2
   0   4   3 198.763 9.31525   2
   0  -4  -3 201.162 9.29608   2
   0   4   3 189.225 9.66937   1
   0  -4  -3 204.055 9.76314   1
   0   4   4 238.797 11.1803   1
   0  -4  -4 240.808 10.5816   2
   0  -4  -4 246.487 11.3292   1
   0   4   5 281.498 12.9270   1
   0  -4  -5 279.210 12.6515   1
   0  -4  -5 281.617 12.0078   2
   0  -4  -6-1.13573 4.24797   2
   0  -4  -6 4.97184 4.37816   1
   0   4   6 1.07130 4.61498   1
   0  -4  -7 129.753 9.59013   2
   0  -4  -7 124.300 10.3048   1
   0   4   7 120.756 10.1281   1
   0  -4  -8 15.8059 6.19406   2
   0  -4  -8 7.14361 5.96412   1
   0   4   8 1.44484 6.15163   1
   0   4   9-9.68333 6.82365   1
   0  -4  -9-0.11531 6.47654   1
   0  -4  -9 11.6797 6.57529   2
   0  -4 -10 21.5441 8.40663   2
   0   4  10 16.6640 8.72875   1
   0  -4 -10 1.57656 7.57501   1
   0  -4 -11 14.9323 8.30702   2
   0   4  11-0.89629 9.64399   1
   0  -4 -11 7.81612 9.11427   1
   0  -4 -12-12.8803 11.8476   1
   0  -4 -12-0.61275 10.1877   2
   0   4  12-0.74559 10.6429   1
   0  -5  16 14.6558 4.76141   1
   0   5 -16 15.1570 10.9490   2
   0  -5  16 11.4546 4.78549   1
   0  -5  15 1.41354 4.39696   1
   0  -5  15 2.84669 4.21368   1
   0   5 -15 14.5133 10.3284   2
   0  -5  14 19.9241 4.40741   1
   0  -5  14 21.1908 4.48045   1
   0   5 -14 32.0394 8.90396   2
   0   5 -13 9.55775 7.66552   2
   0  -5  13 2.54922 3.74369   1
   0  -5  13 5.62132 3.78280   1
   0  -5  12 77.6775 5.71430   1
   0   5 -12 79.1013 9.21074   2
   0  -5  12 79.4371 5.85791   1
   0   5 -11-1.69049 5.34579   2
   0  -5  11 2.62969 2.96818   1
   0  -5  11 0.42065 2.85189   1
   0  -5  10 1.02195 2.86357   1
   0  -5  10-0.10076 2.61284   1
   0   5 -10-0.90834 4.70753   2
   0  -5   9 62.5784 4.71367   1
   0   5  -9 59.4920 6.94487   2
   0  -5   9 53.2457 4.53319   1
   0  -5   9 49.8126 6.77763   2
   0  -5   8 342.213 9.57393   1
   0   5  -8 350.345 13.6383   2
   0  -5   8 323.684 13.2624   2
   0   5  -7 94.3413 5.44754   1
   0  -5   7 102.177 5.56517   1
   0   5  -7 104.553 7.61350   2
   0  -5   7 110.763 7.98122   2
   0   5  -6 104.418 7.36048   2
   0   5  -6 113.586 5.96105   1
   0  -5   6 107.566 5.73115   1
   0  -5   6 100.920 7.39228   2
   0   5  -5 7.24262 3.51262   2
   0  -5   5 3.89564 3.25577   2
   0  -5   5 2.96191 2.43397   1
   0   5  -5 6.42633 2.69113   1
   0   5  -4 248.819 10.2992   2
   0  -5   4 245.401 10.2734   2
   0   5  -4 239.272 8.68702   1
   0  -5   4 247.197 8.86606   1
   0   5  -3 57.3180 4.88190   1
   0  -5   3 67.0296 5.23371   1
   0  -5   3 55.1469 5.48146   2
   0   5  -3 65.9746 5.82486   2
   0  -5   2 34.8806 4.66156   2
   0   5  -2 33.1215 4.24537   1
   0   5  -2 27.9970 4.27318   2
   0  -5   2 30.3106 4.20146   1
   0  -5   1 99.9171 6.89756   2
   0   5  -1 102.732 6.78679   1
   0   5  -1 110.220 7.14453   2
   0  -5   1 116.834 7.22403   1
   0   5   0 814.816 18.2794   2
   0  -5   0 783.729 18.1576   1
   0   5   0 813.208 18.3868   1
   0  -5   0 805.258 18.2796   2
   0  -5  -1 397.958 13.3100   2
   0   5   1 381.466 13.0397   2
   0  -5  -1 377.379 13.3941   1
   0   5   1 374.909 13.3055   1
   0   5   2 21.0371 4.54860   2
   0  -5  -2 22.3745 4.94392   1
   0  -5  -2 24.7442 4.61402   2
   0   5   2 28.9775 5.19900   1
   0   5   3-2.22470 3.59055   2
   0   5   3-1.53399 4.40785   1
   0  -5  -3 8.74059 4.59873   1
   0  -5  -3-5.17933 4.01660   2
   0  -5  -4 14.0155 4.59287   2
   0   5   4 9.56851 5.08591   1
   0  -5  -4 2.82971 4.37476   1
   0   5   5 516.893 18.7182   1
   0  -5  -5 592.255 19.7438   1
   0  -5  -5 580.286 18.4640   2
   0  -5  -6 108.431 10.2411   1
   0   5   6 91.3083 9.74854   1
   0  -5  -6 113.673 9.57234   2
   0  -5  -7 18.7343 6.72669   1
   0  -5  -7 23.1370 6.76925   2
   0   5   7 18.4819 6.53495   1
   0   5   8 77.5747 10.6785   1
   0  -5  -8 87.6504 9.81055   2
   0  -5  -8 68.3735 10.1538   1
   0   5   9 41.7756 10.3212   1
   0  -5  -9 43.5471 8.96335   2
   0  -5  -9 25.6154 8.63980   1
   0  -5 -10 17.0518 10.0215   1
   0  -5 -10 22.5206 9.49508   2
   0   5  10-6.32488 10.4078   1
   0  -5 -11 5.35343 10.4623   2
   0  -5 -11 4.09397 11.4760   1
   0   5  11 5.08731 11.0369   1
   0   5  12 3.70545 6.19425   1
   0  -5 -12 19.3828 7.22790   1
   0   6 -16-15.3825 11.9704   2
   0  -6  16-1.94518 2.62286   1
   0  -6  15 10.3061 3.70950   1
   0  -6  15 13.6737 3.84026   1
   0   6 -15 4.97047 10.1472   2
   0  -6  14 28.4547 4.25876   1
   0  -6  14 21.4029 4.21779   1
   0   6 -14 22.2207 9.37570   2
   0   6 -13 22.0726 7.92953   2
   0  -6  13 14.4720 3.99328   1
   0  -6  13 17.4763 4.28151   1
   0  -6  12 150.988 7.53810   1
   0  -6  12 153.698 7.38566   1
   0   6 -12 137.941 11.6087   2
   0  -6  11 98.5938 6.51086   1
   0  -6  11 94.6916 6.17072   1
   0   6 -11 82.5301 9.33891   2
   0  -6  11 94.7010 9.84435   2
   0   6 -10 5.66991 5.09045   2
   0  -6  10 2.90973 3.06459   1
   0  -6  10 7.94529 5.87853   2
   0  -6  10 0.74298 3.20021   1
   0   6  -9 185.841 11.3118   2
   0  -6   9 181.227 7.89390   1
   0  -6   9 176.808 11.2863   2
   0  -6   8 51.7197 7.01869   2
   0   6  -8 55.3178 4.92224   1
   0   6  -8 54.2667 6.88266   2
   0  -6   8 54.7010 4.99378   1
   0  -6   7 245.578 9.30614   1
   0   6  -7 227.631 8.98444   1
   0   6  -7 235.732 11.8427   2
   0  -6   7 226.146 11.6866   2
   0   6  -6-1.55494 2.66900   1
   0  -6   6 1.27784 3.89130   2
   0  -6   6 3.21791 2.99872   1
   0   6  -6 6.26553 4.23452   2
   0   6  -5 222.801 9.39468   1
   0   6  -5 240.703 11.3614   2
   0  -6   5 240.517 9.68435   1
   0  -6   5 243.647 11.5644   2
   0  -6   4-0.76755 3.54511   2
   0  -6   4-0.54695 3.09849   1
   0   6  -4 2.41707 3.67471   2
   0   6  -4-0.40040 3.07063   1
   0  -6   3 67.1830 6.59968   2
   0  -6   3 71.7183 6.27047   1
   0   6  -3 79.6895 6.38301   1
   0   6  -3 71.0176 6.68779   2
   0  -6   2 102.736 7.48786   1
   0  -6   2 111.010 8.03686   2
   0   6  -2 104.185 7.47679   1
   0   6  -2 105.970 7.81356   2
   0   6  -1 335.431 13.1550   2
   0  -6   1 348.249 13.4721   2
   0  -6   1 342.495 13.1146   1
   0   6  -1 315.978 12.6964   1
   0  -6   0 75.8851 7.17264   2
   0  -6   0 80.0281 7.19845   1
   0   6   0 66.9404 6.72329   1
   0   6   0 77.6364 7.21935   2
   0  -6  -1 25.5474 5.32092   2
   0   6   1 19.1821 4.91759   1
   0   6   1 28.8443 5.34795   2
   0  -6  -1 21.1915 5.45290   1
   0  -6  -2 4.31423 4.18840   2
   0  -6  -2 7.58052 4.39190   1
   0   6   2 4.67360 4.35476   1
   0   6   2 2.57538 4.29636   2
   0  -6  -3 82.6938 8.26943   2
   0   6   3 82.2340 8.89049   1
   0  -6  -3 73.5715 8.43492   1
   0   6   3 82.1548 8.08523   2
   0  -6  -4 98.5786 9.03677   2
   0  -6  -4 96.4534 9.45233   1
   0   6   4 106.024 10.1286   1
   0  -6  -5 99.7272 10.5465   1
   0  -6  -5 102.453 9.76894   2
   0   6   5 90.6788 9.85870   1
   0  -6  -6 53.3142 8.44795   2
   0   6   6 55.4471 9.62560   1
   0  -6  -6 43.5636 8.96014   1
   0   6   7 148.944 13.3484   1
   0  -6  -7 173.956 13.2734   2
   0  -6  -7 150.532 13.2738   1
   0   6   8 38.4897 10.6238   1
   0  -6  -8 22.2586 9.40067   1
   0  -6  -8 21.9928 8.14137   2
   0   6   9 27.1470 11.0246   1
   0  -6  -9 5.49144 9.08581   2
   0  -6  -9 5.43409 10.5466   1
   0   6  10 2.97173 11.9720   1
   0  -6 -10 6.01915 11.6785   1
   0  -6 -10-1.08167 10.3402   2
   0  -7  15 9.95901 2.80653   1
   0   7 -15 8.32689 11.0775   2
   0  -7  14 9.19042 3.91150   1
   0   7 -14 0.34149 9.38840   2
   0  -7  14 5.28883 3.82435   1
   0   7 -13 13.1545 8.60519   2
   0  -7  13 27.9731 4.59935   1
   0  -7  13 24.0306 4.48263   1
   0  -7  12 27.2530 8.41148   2
   0   7 -12 30.7804 8.65788   2
   0  -7  12 16.1341 4.49495   1
   0  -7  12 11.7344 4.55535   1
   0  -7  11 95.4406 10.8909   2
   0  -7  11 95.8854 6.60397   1
   0  -7  11 93.3090 6.93614   1
   0   7 -11 101.443 10.4291   2
   0  -7  10 709.161 23.3001   2
   0  -7  10 749.269 17.1473   1
   0   7 -10 750.530 23.6555   2
   0  -7  10 772.549 16.8175   1
   0   7  -9 38.1901 5.13925   1
   0  -7   9 34.3918 7.05542   2
   0   7  -9 44.0317 7.63540   2
   0  -7   9 41.9172 5.16980   1
   0  -7   8 12.7451 4.12891   1
   0   7  -8 6.10056 3.93841   1
   0  -7   8 13.6993 5.82029   2
   0   7  -8 10.6152 5.38733   2
   0   7  -7 5.47880 5.06881   2
   0  -7   7 0.36438 3.36883   1
   0   7  -7 1.55879 3.67251   1
   0  -7   7 3.80952 4.81999   2
   0   7  -6 45.9029 6.88860   2
   0  -7   6 42.6661 6.78949   2
   0   7  -6 34.6167 5.17996   1
   0  -7   6 42.9755 5.56438   1
   0   7  -5 164.368 10.5731   2
   0  -7   5 147.859 8.90352   1
   0   7  -5 155.838 9.09750   1
   0  -7   5 151.873 10.3955   2
   0  -7   4 60.3100 6.51440   1
   0   7  -4 49.7369 6.72020   2
   0  -7   4 47.0757 6.72679   2
   0   7  -4 47.6501 6.05529   1
   0  -7   3-4.36316 4.70687   2
   0   7  -3-0.67697 4.04189   1
   0  -7   3-2.21020 3.97979   1
   0   7  -2 78.5384 7.98640   2
   0  -7   2 63.8424 7.08932   1
   0  -7   2 63.8988 7.56927   2
   0   7  -2 53.1508 6.63250   1
   0   7  -1 4.85275 4.50504   1
   0  -7   1 1.42482 4.73474   1
   0   7  -1 2.99616 4.81362   2
   0  -7   1 3.13579 4.57688   2
   0  -7   0 5.98611 4.80408   2
   0  -7   0-0.87266 4.79444   1
   0   7   0 5.18169 4.94213   2
   0   7   0 4.93633 4.91003   1
   0   7   1 19.6205 5.85705   1
   0  -7  -1 19.6634 6.05994   2
   0   7   1 20.6383 5.82490   2
   0  -7  -1 10.0788 5.38228   1
   0   7   2 11.4875 6.06362   2
   0  -7  -2-0.26094 4.89051   1
   0   7   2-4.33654 5.55925   1
   0  -7  -2 1.74823 5.10696   2
   0  -7  -3 65.2501 8.52442   2
   0   7   3 55.6880 8.05181   2
   0  -7  -3 52.9422 8.01525   1
   0   7   3 59.5837 8.45832   1
   0   7   4 7.80789 6.72312   1
   0  -7  -4 6.41045 7.13879   1
   0  -7  -4-0.49688 6.16206   2
   0  -7  -5 22.4151 8.60172   1
   0   7   5 30.3480 9.38245   1
   0  -7  -5 43.4769 8.43157   2
   0   7   6 8.46622 9.23431   1
   0  -7  -6 35.1432 10.5242   1
   0  -7  -6 18.6786 8.80412   2
   0  -7  -7 59.5065 10.9967   2
   0   7   7 27.3207 11.0956   1
   0  -7  -7 61.8064 12.2975   1
   0  -7  -8 3.61823 9.70656   2
   0  -7  -8-11.7200 10.6851   1
   0   7   8-0.16252 9.89324   1
   0   7   9 33.1886 14.4634   1
   0  -7  -9 0.98595 12.1562   2
   0  -7  -9-7.68625 11.8059   1
   0  -8  15 3.24031 2.29023   1
   0   8 -15-13.9236 11.7791   2
   0  -8  14 78.6068 5.92565   1
   0  -8  14 64.0692 5.53358   1
   0   8 -14 64.6517 13.1419   2
   0  -8  13 172.901 8.61300   1
   0   8 -13 205.257 16.7874   2
   0  -8  13 176.986 8.84772   1
   0  -8  12 23.5795 5.42272   1
   0  -8  12 29.6916 10.0394   2
   0   8 -12 31.5139 9.50733   2
   0  -8  12 39.6118 5.90892   1
   0  -8  11-2.55445 4.41171   1
   0  -8  11-1.46740 4.66924   1
   0   8 -11 6.56524 7.74445   2
   0  -8  11 4.21508 7.96194   2
   0  -8  10 71.9100 6.86426   1
   0  -8  10 83.2355 10.3705   2
   0   8 -10 61.4098 9.50505   2
   0   8 -10 59.5271 6.43182   1
   0   8  -9 53.6777 9.03812   2
   0   8  -9 44.8772 6.30587   1
   0  -8   9 49.6119 6.37908   1
   0  -8   9 43.5916 8.68506   2
   0  -8   8 4.19814 6.24458   2
   0   8  -8 0.98594 5.98442   2
   0  -8   8-0.88964 4.49363   1
   0   8  -8 0.67143 4.29540   1
   0  -8   7 43.6427 6.29897   1
   0  -8   7 50.2598 8.32332   2
   0   8  -7 40.4617 6.02019   1
   0   8  -7 46.7169 7.98664   2
   0   8  -6 5.59851 5.80099   2
   0  -8   6 0.95292 5.62137   2
   0   8  -6 0.50877 4.33892   1
   0  -8   6 6.59329 4.81428   1
   0   8  -5 119.982 9.31574   1
   0  -8   5 117.011 9.17968   1
   0  -8   5 140.055 11.2253   2
   0   8  -5 135.557 10.8901   2
   0  -8   4 2.66490 4.81392   1
   0   8  -4-1.51287 4.93354   1
   0   8  -4 12.4346 5.93673   2
   0  -8   4 6.44229 5.60550   2
   0   8  -3 357.299 16.2322   2
   0   8  -3 324.914 14.8189   1
   0  -8   3 358.738 16.5748   2
   0  -8   3 343.900 15.2270   1
   0  -8   2 88.1031 9.04982   1
   0   8  -2 96.0173 9.41269   1
   0  -8   2 90.3852 9.56501   2
   0   8  -2 93.5199 9.69849   2
   0  -8   1 3.02795 5.75189   1
   0   8  -1-2.86250 5.24266   1
   0  -8   1 3.05120 5.60520   2
   0   8  -1-1.52343 5.53176   2
   0   8   0 55.0795 8.21878   2
   0  -8   0 44.5070 7.93329   1
   0  -8   0 62.0208 8.86296   2
   0   8   0 56.9441 8.52420   1
   0  -8  -1 19.6332 7.34209   1
   0  -8  -1 25.5016 7.47222   2
   0   8   1 23.6988 7.40987   2
   0   8   1 12.2135 7.27430   1
   0   8   2 18.1418 7.14458   2
   0   8   2 17.8938 7.70704   1
   0  -8  -2 20.9915 7.53102   2
   0  -8  -2 15.5440 6.92545   1
   0  -8  -3 4.37326 7.02648   2
   0  -8  -3 5.86477 6.93669   1
   0   8   3 0.55147 7.25808   2
   0   8   3 4.12355 7.82895   1
   0   8   4 1.99000 8.82487   1
   0  -8  -4 14.5994 8.09906   2
   0  -8  -4 23.0581 9.17210   1
   0  -8  -5-3.54543 9.47619   1
   0   8   5-8.95287 10.2124   1
   0  -8  -5-0.68381 9.62000   2
   0  -8  -6 2.88783 9.83650   2
   0  -8  -6 9.54300 10.7606   1
   0   8   6-6.57122 9.67605   1
   0  -8  -7-9.79259 12.5264   1
   0   8   7-10.3210 13.4943   1
   0  -8  -7-9.62593 12.7041   2
   0  -8  -8 4.45451 8.52046   2
   0  -8  -8 8.54309 9.96696   1
   0  -9  14-4.09636 4.65081   1
   0   9 -14 12.0916 13.1514   2
   0  -9  14 3.52124 4.65490   1
   0  -9  13 25.7792 12.1293   2
   0  -9  13-0.17169 5.85514   1
   0   9 -13 19.1378 11.4354   2
   0  -9  13-0.35277 5.85488   1
   0  -9  12-2.17706 5.60677   1
   0  -9  12-0.07443 10.3573   2
   0   9 -12-5.61472 9.91125   2
   0  -9  12 6.24201 5.76688   1
   0   9 -11 11.2821 9.00869   2
   0  -9  11-3.14443 9.45761   2
   0   9 -11 5.96123 5.59452   1
   0  -9  11 4.11013 5.57605   1
   0   9 -10 54.2008 11.0760   2
   0  -9  10 59.8960 10.6039   2
   0   9 -10 29.0839 6.40266   1
   0  -9  10 51.5768 7.32495   1
   0   9  -9 0.44069 5.32090   1
   0   9  -9 7.06523 7.82415   2
   0  -9   9 7.64923 5.79629   1
   0  -9   9 9.99716 8.94138   2
   0   9  -8-0.43900 7.77094   2
   0  -9   8 6.66875 7.34166   2
   0  -9   8 0.72528 5.53103   1
   0   9  -8-0.89540 5.33371   1
   0  -9   7 94.9068 9.09156   1
   0   9  -7 89.6410 8.96955   1
   0  -9   7 122.015 12.0702   2
   0   9  -7 100.379 10.8908   2
   0   9  -6 246.944 15.4218   2
   0  -9   6 229.794 13.2412   1
   0   9  -6 216.863 12.7500   1
   0  -9   6 237.856 15.3389   2
   0   9  -5-3.55459 5.73430   1
   0   9  -5 1.66170 6.56164   2
   0  -9   5 9.79398 7.16111   2
   0  -9   5-0.14868 5.71461   1
   0  -9   4 44.4287 8.92893   2
   0  -9   4 46.1801 8.16078   1
   0   9  -4 47.0374 8.01015   1
   0   9  -4 60.0212 9.55778   2
   0   9  -3 33.1225 7.87800   1
   0   9  -3 30.9804 7.97842   2
   0  -9   3 24.0470 7.31477   1
   0  -9   3 29.6079 8.26312   2
   0   9  -2 105.862 11.1526   1
   0   9  -2 105.259 11.2102   2
   0  -9   2 122.675 11.5319   1
   0  -9   2 136.953 12.5047   2
   0   9  -1 0.43366 7.21132   2
   0  -9   1-4.45871 7.41271   1
   0   9  -1-0.06038 7.18361   1
   0  -9   1 5.75650 6.99428   2
   0  -9   0-5.72071 7.11805   1
   0  -9   0 0.51654 7.33678   2
   0   9   0-7.34043 8.21027   1
   0   9   0-1.78756 7.92215   2
   0  -9  -1 19.0184 8.55825   1
   0   9   1 0.59532 7.74192   2
   0  -9  -1 3.38642 7.77550   2
   0   9   1 3.40010 8.01958   1
   0  -9  -2 30.0383 9.27970   2
   0  -9  -2 17.8774 9.44908   1
   0   9   2 16.7592 8.93285   1
   0   9   2 28.1759 8.88433   2
   0   9   3-4.62606 10.1166   1
   0  -9  -3 2.43559 9.60928   2
   0  -9  -3 14.4388 8.90547   1
   0  -9  -4 13.5552 10.2383   2
   0   9   4 3.68834 10.7385   1
   0  -9  -4-12.1352 10.6595   1
   0   9   5 21.6337 12.0295   1
   0  -9  -5 7.55499 11.1712   2
   0  -9  -5 8.59290 12.9892   1
   0  -9  -6 38.7163 15.6570   1
   0  -9  -6-0.16579 12.2838   2
   0   9   6 38.9020 15.1039   1
   0  10 -13 56.5541 11.5460   2
   0 -10  13 40.9345 11.1720   2
   0 -10  12 8.59374 12.3230   2
   0  10 -12 0.08107 11.9012   2
   0 -10  12-8.16836 7.66871   1
   0 -10  12 0.64380 7.24843   1
   0  10 -11 29.6775 12.4337   2
   0  10 -11 27.2382 7.56638   1
   0 -10  11 43.9418 11.9784   2
   0 -10  11 24.6868 7.83887   1
   0  10 -10 2.86539 10.0903   2
   0 -10  10 4.07232 7.24996   1
   0 -10  10-6.68400 10.1869   2
   0  10 -10-14.3817 7.60106   1
   0 -10   9 48.7770 8.53011   1
   0  10  -9 55.9939 8.64560   1
   0  10  -9 72.9061 12.6021   2
   0 -10   8 7.54071 9.29676   2
   0  10  -8 1.86254 6.81512   1
   0 -10   8-2.93500 7.53230   1
   0  10  -8 14.3289 8.95752   2
   0 -10   7 32.5854 10.0804   2
   0  10  -7 32.0500 9.69930   2
   0 -10   7 33.6422 8.27750   1
   0  10  -7 7.28919 7.18927   1
   0  10  -6 4.72355 7.14959   1
   0 -10   6-5.49025 6.96852   1
   0 -10   6 6.37846 8.64284   2
   0  10  -5 17.9051 9.37814   2
   0 -10   5-9.33678 7.19968   1
   0 -10   5 6.34097 8.46308   2
   0  10  -5 18.2908 7.69341   1
   0  10  -4 206.972 15.9202   2
   0 -10   4 214.876 15.1120   1
   0  10  -4 190.207 14.5583   1
   0 -10   4 207.669 16.1003   2
   0  10  -3 27.5552 8.99468   1
   0 -10   3 46.6898 9.83748   1
   0 -10   3 55.3362 11.0635   2
   0  10  -3 45.3974 10.3016   2
   0 -10   2 67.2423 10.7775   1
   0  10  -2 72.3330 11.6058   2
   0  10  -2 55.7107 10.7727   1
   0 -10   2 52.7907 11.1563   2
   0  10  -1-8.73954 9.53299   1
   0 -10   1 14.0135 9.30715   2
   0  10  -1 10.5133 9.19027   2
   0 -10   1 0.56056 8.74009   1
   0  10   0 25.6673 10.3349   2
   0  10   0 19.0933 9.47544   1
   0 -10   0 16.8182 10.1221   2
   0 -10   0 20.8095 9.93361   1
   0  10   1 74.8015 13.0820   2
   0 -10  -1 55.6275 13.2190   1
   0 -10  -1 89.3328 14.2152   2
   0  10   1 68.1098 13.9026   1
   0  10   2-13.5945 11.4400   1
   0 -10  -2 5.98248 10.7780   1
   0  10   2-0.47685 11.0535   2
   0 -10  -2 4.30901 11.7580   2
   0  10   3 5.43806 13.2873   1
   0 -10  -3-10.9325 13.7582   1
   0 -10  -3-7.45681 11.7243   2
   0 -11  11 56.8820 11.6588   2
   0  11 -11 18.4094 6.83658   1
   0 -11  11 10.7669 6.40213   1
   0  11 -11 51.2807 10.7257   2
   0 -11  10-20.3700 9.45503   1
   0  11 -10 9.92630 8.77518   1
   0  11 -10 11.3252 12.6019   2
   0 -11  10-3.19569 13.0666   2
   0  11  -9 20.7783 9.48890   1
   0 -11   9 12.3806 8.61322   1
   0  11  -9 18.8225 11.7500   2
   0  11  -8 43.8771 12.4714   2
   0  11  -8 56.5295 11.5924   1
   0 -11   8 44.2018 10.6150   1
   0 -11   8 61.1998 13.4534   2
   0 -11   7 16.9762 11.9073   2
   0  11  -7 10.1790 11.5681   2
   0  11  -7-15.5547 9.06668   1
   0 -11   7 16.1588 9.20196   1
   0  11  -6 45.3671 12.9209   2
   0  11  -6 30.4608 10.6146   1
   0 -11   6 29.7380 12.3633   2
   0 -11   6 41.6810 10.8435   1
   0  11  -5 64.7508 13.4321   2
   0  11  -5 64.5061 12.0470   1
   0 -11   5 58.9078 12.1466   1
   0 -11   5 75.6952 14.2381   2
   0 -11   4 19.2699 10.5358   1
   0  11  -4 18.8388 10.9349   1
   0 -11   4 25.2061 11.7763   2
   0  11  -4 20.3857 11.8251   2
   0 -11   3 1.56110 11.1798   2
   0 -11   3-12.0706 10.7151   1
   0  11  -3 6.54861 10.9607   2
   0  11  -3-0.81676 10.4156   1
   0 -11   2 100.800 14.9230   2
   0  11  -2 121.740 15.7038   2
   0  11  -2 94.6439 14.9274   1
   0 -11   2 98.2138 13.8161   1
   0  11  -1 27.7947 12.2888   2
   0  11  -1 2.36702 11.2214   1
   0 -11   1 5.12483 11.4156   1
   0 -11   1 10.8159 12.0844   2
   0 -11   0 12.7636 13.4171   2
   0  11   0-0.25687 12.0575   1
   0 -11   0-5.75343 11.8065   1
   0  11   0-6.13645 12.4979   2
   0  11   1 18.1143 11.8024   2
   0 -11  -1 41.2121 13.2402   1
   0  11   1 45.7476 14.5089   1
   1 -11  -1 15.4131 12.1980   2
  -1  11   1 18.1556 12.0711   2
  -1  11   1 11.5375 12.6406   1
   1 -11  -1-2.55486 12.6031   1
   1 -11   0 26.1737 13.2907   1
   1 -11   0 31.4403 13.6798   2
  -1  11   0 50.0769 13.8019   2
  -1  11   0 7.14284 12.6508   1
   1 -11   1 86.7968 13.7704   1
  -1  11  -1 94.3195 14.3993   1
  -1  11  -1 105.844 15.0708   2
  -1  11  -2 23.6710 10.9169   1
  -1  11  -2 19.1458 10.8727   2
   1 -11   2 6.87677 10.9474   1
   1 -11   2 7.68127 11.1115   2
   1 -11   3 13.8096 11.4733   2
  -1  11  -3 25.9135 11.6856   2
  -1  11  -3-7.54327 9.83492   1
   1 -11   3 3.48851 9.85443   1
  -1  11  -4-2.22399 10.8803   2
   1 -11   4-9.18080 10.8552   2
   1 -11   4 13.0430 9.45233   1
  -1  11  -4 11.8032 9.97748   1
  -1  11  -5 56.9257 11.0064   1
   1 -11   5 36.2676 9.86455   1
  -1  11  -5 25.8216 12.1747   2
   1 -11   5 58.0555 13.6116   2
  -1  11  -6 25.2195 8.99233   1
   1 -11   6 16.8905 11.9956   2
  -1  11  -6 8.27703 11.3232   2
   1 -11   6 21.1509 9.17721   1
   1 -11   7-11.6786 11.6612   2
   1 -11   7 5.56747 8.53689   1
  -1  11  -7-3.15667 8.10823   1
  -1  11  -7-2.03832 11.2722   2
   1 -11   8-0.24575 8.51114   1
  -1  11  -8-6.42413 8.12119   1
   1 -11   8 5.63115 12.4305   2
  -1  11  -8-20.9912 13.3867   2
  -1  11  -9 4.44530 12.6338   2
   1 -11   9 13.2243 13.3424   2
   1 -11   9-7.53747 8.58637   1
  -1  11  -9 7.82750 7.71892   1
   1 -11  10 31.1582 14.0180   2
   1 -11  10 12.0270 7.70611   1
  -1  11 -10-7.23638 13.0367   2
  -1  11 -10 4.07264 7.71278   1
   1 -10  -4 18.3226 12.2050   2
  -1  10   4-1.10390 13.7936   1
   1 -10  -4-7.11817 13.4946   1
  -1  10   3-2.85346 13.2509   1
   1 -10  -3-0.60722 12.2232   1
  -1  10   3 8.82856 11.0754   2
   1 -10  -3-19.8348 12.8991   2
   1 -10  -2 82.8758 14.1438   1
  -1  10   2 90.8208 13.6744   2
  -1  10   2 89.9633 14.4878   1
   1 -10  -1-0.44436 9.90491   2
  -1  10   1 38.6937 12.3282   1
  -1  10   1 29.9388 11.4175   2
   1 -10  -1 30.5458 11.3943   1
  -1  10   0 38.6228 10.3311   1
   1 -10   0 46.3784 11.3064   1
  -1  10   0 64.0667 11.8484   2
   1 -10   0 50.5346 11.3876   2
  -1  10  -1 41.3229 9.80816   1
   1 -10   1 34.8968 9.96083   1
  -1  10  -1 46.0937 10.5277   2
   1 -10   1 42.8753 10.1756   2
   1 -10   2-1.77316 9.07514   2
  -1  10  -2 7.64098 8.74089   2
  -1  10  -2-16.1163 8.74163   1
   1 -10   2 16.5516 8.23163   1
  -1  10  -3 10.1362 8.76823   2
   1 -10   3 10.4442 8.72980   2
   1 -10   3-0.47715 7.74090   1
  -1  10  -3 14.4524 8.10316   1
  -1  10  -4-0.48277 8.38160   2
   1 -10   4 10.2442 7.19445   1
   1 -10   4 14.7907 8.91758   2
  -1  10  -4 4.11764 7.37074   1
  -1  10  -5 32.2155 8.18613   1
   1 -10   5 43.7542 8.60892   1
  -1  10  -5 44.4382 10.4482   2
  -1  10  -6 16.0537 6.86791   1
   1 -10   6-4.21358 9.09492   2
   1 -10   6 1.41165 6.37444   1
  -1  10  -6 3.80442 9.00746   2
  -1  10  -7 23.7089 7.42376   1
   1 -10   7 23.0647 10.0982   2
   1 -10   7 21.5292 6.63366   1
  -1  10  -7 49.0131 10.7887   2
   1 -10   8 94.6224 13.3688   2
   1 -10   8 76.6108 8.58429   1
  -1  10  -8 68.0408 8.39288   1
  -1  10  -9 18.7141 6.44270   1
  -1  10  -9 28.5427 11.2281   2
   1 -10   9 21.5661 6.73266   1
   1 -10   9 27.9250 11.7054   2
  -1  10 -10 14.3049 11.3006   2
  -1  10 -10 6.77273 5.49283   1
   1 -10  10-1.20520 5.53849   1
   1 -10  10-0.16277 10.7766   2
   1 -10  11 55.0268 13.9772   2
   1 -10  11 33.3982 5.38886   1
  -1  10 -11 42.3697 12.9064   2
  -1  10 -12 25.6148 13.0042   2
   1 -10  12 0.35333 13.7684   2
   1 -10  12 4.89713 1.78019   1
   1  -9  -6-10.3249 13.2828   1
   1  -9  -6-6.81822 11.6778   2
  -1   9   6-9.27353 13.2746   1
  -1   9   5 4.29808 12.2496   1
   1  -9  -5 8.85574 10.4212   2
   1  -9  -5 22.1903 11.3318   1
   1  -9  -4 71.5614 12.8055   2
  -1   9   4 56.3157 13.7150   1
   1  -9  -4 61.3752 13.8178   1
  -1   9   3 1.80396 9.02410   1
  -1   9   3 3.63938 9.00524   2
   1  -9  -3 1.50864 9.80861   1
   1  -9  -3 8.81427 9.07060   2
   1  -9  -2 11.0759 9.26438   1
  -1   9   2 5.72544 7.82249   2
  -1   9   2 5.69306 7.98826   1
   1  -9  -2 16.3194 8.69559   2
   1  -9  -1 8.77257 8.22213   1
  -1   9   1 17.6995 8.38815   2
  -1   9   1 17.9709 8.99563   1
   1  -9  -1 12.3865 8.31934   2
   1  -9   0 1.12176 7.45372   2
   1  -9   0-15.2510 8.51733   1
  -1   9   0 0.67945 7.56462   1
  -1   9   0-1.10400 7.17226   2
   1  -9   1 121.168 11.7510   2
   1  -9   1 121.805 11.6358   1
  -1   9  -1 104.214 11.3773   2
  -1   9  -1 112.017 11.1245   1
  -1   9  -2 10.4134 6.75635   2
  -1   9  -2 15.0384 6.63593   1
   1  -9   2 22.6088 7.70563   2
   1  -9   2 7.77547 6.36816   1
  -1   9  -3-0.65214 6.55536   2
   1  -9   3 1.15953 5.96456   1
   1  -9   3 5.11283 6.54729   2
  -1   9  -3 8.55202 6.09714   1
  -1   9  -4 47.2965 7.64481   1
   1  -9   4 51.7328 9.18967   2
   1  -9   4 41.4341 7.22001   1
  -1   9  -4 45.6349 8.79091   2
  -1   9  -5 47.0293 7.66101   1
   1  -9   5 46.9331 7.25997   1
   1  -9   5 63.0370 10.0678   2
  -1   9  -5 62.2550 9.49226   2
   1  -9   6 7.37495 5.21710   1
  -1   9  -6-0.20197 5.11343   1
  -1   9  -6-6.30434 7.14644   2
   1  -9   6-5.77957 7.54115   2
   1  -9   7 7.66290 7.57693   2
  -1   9  -7 3.36928 7.29543   2
   1  -9   7-0.14714 4.85819   1
  -1   9  -7-7.62170 5.11610   1
   1  -9   8 94.3062 12.2174   2
   1  -9   8 87.2028 7.72368   1
  -1   9  -8 77.0209 7.41050   1
  -1   9  -8 91.7885 11.4798   2
   1  -9   9 50.8740 10.5416   2
  -1   9  -9 28.3704 5.60788   1
  -1   9  -9 55.2290 10.9517   2
   1  -9   9 29.8393 5.46009   1
  -1   9 -10 62.6219 11.7986   2
  -1   9 -10 27.1166 4.76843   1
   1  -9  10 65.4051 11.8728   2
   1  -9  10 41.2514 5.14984   1
   1  -9  11 77.2986 12.8269   2
  -1   9 -11 87.5155 13.1011   2
   1  -9  11 57.2007 4.35956   1
   1  -9  11 50.0282 4.14354   1
   1  -9  12 88.8907 15.2827   2
  -1   9 -12 93.9522 14.8448   2
  -1   9 -13 5.87854 12.9870   2
   1  -8  -8 28.0197 11.9469   2
   1  -8  -8 18.0910 14.2574   1
  -1   8   8 31.6504 13.9502   1
   1  -8  -7 16.2703 11.8322   1
  -1   8   7 12.0617 12.3860   1
   1  -8  -7 23.5869 10.6270   2
  -1   8   6 99.7623 14.0949   1
   1  -8  -6 128.891 13.7188   2
   1  -8  -6 87.0632 14.3281   1
   1  -8  -5 58.9136 11.2291   1
  -1   8   5 30.8324 9.82058   1
   1  -8  -5 55.0405 10.2661   2
   1  -8  -4-2.76911 6.95789   2
  -1   8   4 16.4988 9.03818   1
  -1   8   4 0.41807 6.83437   2
   1  -8  -4 3.99101 8.91676   1
  -1   8   3 39.8818 8.79200   2
  -1   8   3 40.9762 9.02667   1
   1  -8  -3 40.8736 8.88786   2
   1  -8  -3 42.4332 9.31487   1
  -1   8   2 2.10219 6.05370   2
   1  -8  -2 0.36391 6.28680   1
   1  -8  -2-8.93397 6.50818   2
  -1   8   2 8.19482 7.24498   1
   1  -8  -1 223.423 13.8663   2
   1  -8  -1 182.092 12.9326   1
  -1   8   1 204.265 13.2557   2
  -1   8   1 191.677 13.3948   1
   1  -8   0 13.4180 6.27270   1
  -1   8   0-0.05241 5.86786   1
  -1   8   0 4.47121 5.57131   2
   1  -8   0 5.34195 5.74933   2
   1  -8   1 47.6661 7.38293   1
  -1   8  -1 56.5525 8.27927   2
   1  -8   1 52.8414 8.11433   2
  -1   8  -1 47.0560 7.41175   1
   1  -8   2 100.196 9.88690   2
   1  -8   2 85.8719 8.40145   1
  -1   8  -2 100.297 9.79013   2
  -1   8  -2 90.5687 8.71887   1
  -1   8  -3 575.782 18.3664   1
  -1   8  -3 612.421 20.9184   2
   1  -8   3 565.190 18.2885   1
   1  -8   3 597.869 20.9653   2
   1  -8   4-0.21071 5.53276   2
  -1   8  -4 11.2002 6.06074   2
  -1   8  -4 14.9810 5.05512   1
   1  -8   4 3.25300 4.71249   1
   1  -8   5 22.8918 5.36388   1
  -1   8  -5 21.6083 6.87565   2
   1  -8   5 25.2189 7.12076   2
  -1   8  -5 24.4598 5.49119   1
   1  -8   6 290.028 11.8193   1
   1  -8   6 292.815 15.7741   2
  -1   8  -6 246.997 11.0080   1
  -1   8  -6 314.322 15.9455   2
  -1   8  -7 6.30580 3.74866   1
  -1   8  -7-2.67930 6.24924   2
   1  -8   7 5.13390 6.25259   2
   1  -8   7 2.99642 3.79676   1
   1  -8   8 4.82524 6.48857   2
  -1   8  -8 1.45233 6.61952   2
  -1   8  -8 1.95325 3.68833   1
   1  -8   8 0.77357 3.65940   1
   1  -8   9-0.94029 7.19384   2
  -1   8  -9 0.85369 6.65023   2
  -1   8  -9 3.87981 3.25744   1
   1  -8   9 2.91399 3.35304   1
   1  -8  10 63.9581 10.2453   2
   1  -8  10 50.5678 4.14323   1
  -1   8 -10 53.0863 9.66578   2
   1  -8  10 46.5885 4.15698   1
   1  -8  11 18.8061 9.63350   2
  -1   8 -11 15.9729 8.58663   2
  -1   8 -12 10.9440 9.62890   2
  -1   8 -13-17.9542 10.3466   2
  -1   8 -14-21.6262 12.0354   2
   1  -7  -9 26.0625 11.1756   2
   1  -7  -9 10.6538 13.8371   1
  -1   7   9 11.5851 13.0624   1
   1  -7  -8 76.0108 11.8361   2
   1  -7  -8 45.6831 12.6086   1
  -1   7   8 41.6043 13.7888   1
  -1   7   7 105.265 13.2635   1
   1  -7  -7 127.571 14.2284   1
   1  -7  -7 130.967 12.3735   2
  -1   7   6 77.5128 12.4120   1
   1  -7  -6 63.0333 9.77174   2
   1  -7  -6 60.8056 10.9578   1
   1  -7  -5 24.0392 8.33877   1
   1  -7  -5 34.5590 7.79484   2
  -1   7   5 32.6793 8.93723   1
   1  -7  -4 13.9650 6.89042   1
   1  -7  -4 11.2969 6.68537   2
  -1   7   4 3.09061 5.64222   2
  -1   7   4 5.89167 7.09220   1
   1  -7  -3 10.4590 6.85977   1
  -1   7   3 12.3938 5.72481   2
  -1   7   3 5.73369 6.06382   1
   1  -7  -3 12.8126 5.72229   2
   1  -7  -2 46.9449 7.64312   1
  -1   7   2 53.5089 8.12838   1
  -1   7   2 46.6177 7.32011   2
   1  -7  -2 52.2428 7.42232   2
  -1   7   1 450.227 17.5121   1
  -1   7   1 487.506 17.5372   2
   1  -7  -1 438.756 17.3299   1
   1  -7  -1 458.124 17.2137   2
   1  -7   0 27.6204 6.05502   1
   1  -7   0 31.0312 6.26207   2
  -1   7   0 31.7688 6.29685   2
  -1   7   0 32.5396 6.08480   1
   1  -7   1 83.3126 8.15241   2
  -1   7  -1 82.5568 8.10145   2
   1  -7   1 90.2880 8.05822   1
  -1   7  -1 91.7831 8.13144   1
   1  -7   2-0.63648 3.94066   1
  -1   7  -2-0.38505 4.27426   2
  -1   7  -2 0.14920 3.83074   1
   1  -7   2 1.40528 4.47674   2
  -1   7  -3-4.65784 3.75959   1
  -1   7  -3-2.07642 4.70506   2
   1  -7   3 3.66275 3.81182   1
   1  -7   3-1.05944 4.21593   2
   1  -7   4 64.7946 6.17779   1
  -1   7  -4 60.3163 6.01940   1
   1  -7   4 68.5241 7.81546   2
  -1   7  -4 75.2783 7.80855   2
   1  -7   5 10.1503 3.93698   1
  -1   7  -5 6.75843 5.01132   2
   1  -7   5-1.39249 4.58202   2
  -1   7  -5 2.29889 3.36610   1
  -1   7  -6 201.209 12.2168   2
   1  -7   6 197.978 12.3087   2
   1  -7   6 179.910 8.38963   1
  -1   7  -6 186.322 8.44578   1
   1  -7   7 21.6804 3.69987   1
  -1   7  -7 13.1133 5.90731   2
   1  -7   7 19.8789 6.37554   2
  -1   7  -7 18.1343 3.61741   1
  -1   7  -8 34.2270 7.10854   2
   1  -7   8 27.7916 3.82361   1
   1  -7   8 33.6733 7.37953   2
  -1   7  -8 24.8934 3.60687   1
  -1   7  -9 9.81556 6.50636   2
   1  -7   9 11.8396 6.35251   2
   1  -7   9 10.9805 2.45948   1
   1  -7  10 363.990 18.1866   2
  -1   7 -10 369.725 17.8878   2
   1  -7  11 9.55775 7.85024   2
  -1   7 -11 4.64593 7.43500   2
  -1   7 -12 44.2393 9.86218   2
  -1   7 -13 1.42043 9.39605   2
  -1   7 -14 24.4579 10.9427   2
  -1   7 -15-4.32976 12.0568   2
   1  -6 -11 47.2790 11.2136   1
  -1   6  11 36.7622 11.0525   1
   1  -6 -11 14.1530 7.29763   2
  -1   6  10 5.73784 12.0483   1
   1  -6 -10 1.01160 9.93817   2
   1  -6 -10-0.08514 12.4998   1
   1  -6  -9 92.8241 12.2688   2
  -1   6   9 96.2625 13.3938   1
   1  -6  -9 89.6222 14.2266   1
   1  -6  -8 48.1780 10.6437   1
   1  -6  -8 56.4573 9.18429   2
  -1   6   8 72.8590 11.8887   1
  -1   6   7 87.7207 11.5121   1
   1  -6  -7 101.988 11.9978   1
   1  -6  -7 85.8631 9.94152   2
   1  -6  -6-3.02348 5.21531   2
   1  -6  -6-1.59296 6.39100   1
  -1   6   6 3.59633 6.98726   1
   1  -6  -5 11.5986 5.29077   2
   1  -6  -5 1.12759 5.95999   1
  -1   6   5-4.85563 6.51901   1
   1  -6  -4 100.845 9.87742   1
  -1   6   4 84.8665 9.45396   1
  -1   6   4 94.9911 8.53172   2
   1  -6  -4 100.313 8.76542   2
  -1   6   3 9.83523 5.29719   1
   1  -6  -3 18.1467 5.05427   2
  -1   6   3 6.55663 4.54796   2
   1  -6  -3 3.86549 4.92526   1
   1  -6  -2 82.4165 7.59256   2
  -1   6   2 80.4590 7.55024   2
   1  -6  -2 75.9823 7.87875   1
  -1   6   2 81.1428 8.09167   1
   1  -6  -1 131.794 9.29998   1
  -1   6   1 135.980 8.96934   2
  -1   6   1 112.566 8.57613   1
   1  -6  -1 146.878 9.21934   2
   1  -6   0-0.03665 3.50154   1
   1  -6   0 2.80890 3.80001   2
  -1   6   0 8.58217 4.14538   2
  -1   6   0-3.98890 4.12672   1
  -1   6  -1 491.318 15.6063   2
   1  -6   1 486.411 15.6283   2
  -1   6  -1 478.994 14.8686   1
   1  -6   1 500.852 15.1888   1
   1  -6   2 21.3703 4.76743   2
  -1   6  -2 23.9415 4.41460   1
  -1   6  -2 20.2661 4.76844   2
   1  -6   2 13.2832 3.87694   1
  -1   6  -3 33.8825 5.34780   2
   1  -6   3 31.6642 4.45168   1
   1  -6   3 27.5413 5.06499   2
  -1   6  -3 31.3964 4.38648   1
  -1   6  -4 9.74585 3.23454   1
  -1   6  -4 7.64343 4.21534   2
   1  -6   4 15.7956 4.60554   2
   1  -6   4 7.07224 3.23324   1
   1  -6   5 173.828 7.45175   1
  -1   6  -5 182.434 10.4067   2
   1  -6   5 168.987 10.1897   2
  -1   6  -5 165.235 7.19611   1
   1  -6   6 331.090 9.32501   1
   1  -6   6 332.667 14.1470   2
  -1   6  -6 338.945 14.0787   2
  -1   6  -6 323.864 9.11990   1
   1  -6   7 104.952 9.04498   2
  -1   6  -7 105.449 8.90160   2
   1  -6   7 95.3872 4.91383   1
  -1   6  -7 86.4890 4.62339   1
   1  -6   8 30.2106 2.74815   1
  -1   6  -8 35.2217 6.51417   2
  -1   6  -8 24.7102 2.54313   1
   1  -6   8 34.1314 6.62780   2
   1  -6   9 37.2062 2.02670   1
   1  -6   9 44.0340 7.70463   2
  -1   6  -9 43.7379 7.43850   2
  -1   6 -10 25.2387 6.64431   2
  -1   6 -11 10.4077 6.73728   2
  -1   6 -12-0.61686 7.12843   2
  -1   6 -13 72.5412 11.2791   2
  -1   6 -14 102.309 13.8375   2
  -1   6 -15 16.6201 11.1743   2
   1  -5 -12 41.1993 14.2540   1
   1  -5 -12 29.3875 10.6498   2
  -1   5  12 9.88069 12.7691   1
   1  -5 -11 6.39511 9.15981   2
  -1   5  11 14.8944 12.0429   1
   1  -5 -11 4.10562 11.3098   1
   1  -5 -10 116.432 11.8329   2
   1  -5 -10 103.044 13.9422   1
  -1   5  10 87.1066 12.7836   1
  -1   5   9 66.8819 11.6615   1
   1  -5  -9 82.3652 9.60324   2
   1  -5  -9 91.9158 12.4625   1
   1  -5  -8 41.1158 8.52180   1
   1  -5  -8 45.6525 7.74503   2
  -1   5   8 38.6060 8.55985   1
  -1   5   7 36.6995 8.08423   1
   1  -5  -7 50.0169 8.34560   1
   1  -5  -7 36.2833 6.38739   2
   1  -5  -6 0.95224 5.66648   1
   1  -5  -6 7.01129 4.73421   2
  -1   5   6 1.87759 5.72486   1
   1  -5  -5 12.0647 4.97781   1
   1  -5  -5 7.85558 4.51914   2
  -1   5   5 4.55818 4.98095   1
  -1   5   4 69.0301 7.58561   1
   1  -5  -4 70.7674 6.85059   2
  -1   5   4 75.2404 6.73733   2
   1  -5  -4 81.1887 8.29374   1
   1  -5  -3-0.92144 3.42463   2
   1  -5  -3 1.16714 4.09785   1
  -1   5   3-3.82873 3.56265   2
  -1   5   3-0.52760 4.22808   1
   1  -5  -2 121.203 7.70695   2
  -1   5   2 122.357 8.58508   1
  -1   5   2 127.749 7.85033   2
   1  -5  -2 126.448 8.59165   1
   1  -5  -1 134.409 8.31042   1
   1  -5  -1 133.518 7.87502   2
  -1   5   1 128.595 8.23203   1
  -1   5   1 127.844 7.64070   2
  -1   5   0 28.7372 4.32988   2
  -1   5   0 23.1763 4.14393   1
   1  -5   0 25.3164 4.33860   2
   1  -5   0 24.7858 4.32169   1
   1  -5   1 23.7809 4.22868   2
  -1   5  -1 24.4636 3.90411   1
  -1   5  -1 25.1108 4.25606   2
   1  -5   1 23.7363 3.94835   1
   1  -5   2 33.7599 4.06912   1
   1  -5   2 31.1955 4.59281   2
  -1   5  -2 31.7256 4.53392   2
  -1   5  -2 30.5399 3.90415   1
   1  -5   3 209.993 7.83425   1
  -1   5  -3 206.160 7.77022   1
   1  -5   3 213.987 9.79616   2
  -1   5  -3 212.950 9.73910   2
   1  -5   4 115.959 5.59934   1
   1  -5   4 123.370 7.86575   2
  -1   5  -4 135.118 8.13462   2
  -1   5  -4 110.677 5.38071   1
  -1   5  -5 116.963 5.08815   1
  -1   5  -5 122.932 8.02081   2
   1  -5   5 118.318 5.17843   1
   1  -5   5 121.004 8.09220   2
  -1   5  -6 6.45477 1.83505   1
   1  -5   6 10.9099 2.01467   1
  -1   5  -6 6.85441 3.96778   2
   1  -5   6 11.4963 4.31243   2
  -1   5  -7 8.74792 4.17339   2
   1  -5   7 6.97769 1.43184   1
   1  -5   7 13.2576 4.64469   2
  -1   5  -7 7.25618 1.42067   1
  -1   5  -8 334.973 14.1584   2
   1  -5   8 339.378 14.5049   2
  -1   5  -9 4.89748 4.77520   2
  -1   5 -10 58.8405 8.16194   2
  -1   5 -11 255.338 14.6595   2
  -1   5 -12 66.6754 9.40220   2
  -1   5 -13 198.234 14.8099   2
  -1   5 -14 12.9233 9.33607   2
  -1   5 -15 22.4861 11.2840   2
  -1   5 -16 27.2140 8.70724   2
  -1   4  13 30.5768 12.9246   1
   1  -4 -13 15.3023 13.4044   1
   1  -4 -13 1.74654 9.97475   2
   1  -4 -12 21.4637 9.31615   2
   1  -4 -12 37.1019 12.7869   1
  -1   4  12-3.14331 11.2305   1
   1  -4 -11-10.2310 9.87540   1
   1  -4 -11 6.44361 7.42029   2
  -1   4  11-6.50999 8.76089   1
   1  -4 -10 26.3284 8.48810   1
   1  -4 -10 29.8959 7.23708   2
  -1   4  10 17.0199 8.17938   1
  -1   4   9 18.0231 7.98606   1
   1  -4  -9 22.5118 7.88877   1
   1  -4  -9 18.7159 6.19011   2
  -1   4   8 89.0689 9.86040   1
   1  -4  -8 96.4698 8.41751   2
   1  -4  -8 91.6576 10.0204   1
   1  -4  -7 5.05934 4.29806   2
   1  -4  -7 9.92010 5.33466   1
   1  -4  -6 37.4662 6.60606   1
   1  -4  -6 45.2396 5.56465   2
  -1   4   6 42.7497 6.68650   1
   1  -4  -5 183.103 10.7833   1
   1  -4  -5 181.824 8.97530   2
  -1   4   5 168.384 10.3506   1
  -1   4   4-1.80967 3.72453   1
  -1   4   4-1.25233 2.86001   2
   1  -4  -4 4.26763 3.06175   2
   1  -4  -4 5.17891 3.78988   1
   1  -4  -3 714.269 15.7902   2
   1  -4  -3 699.352 17.9060   1
  -1   4   3 669.294 17.5178   1
  -1   4   3 707.343 15.7015   2
  -1   4   2 240.466 9.11615   2
   1  -4  -2 260.437 10.4920   1
  -1   4   2 244.760 10.2706   1
   1  -4  -2 260.458 9.42943   2
   1  -4  -1 113.316 6.86317   1
   1  -4  -1 122.362 6.55438   2
  -1   4   1 108.561 6.82087   1
  -1   4   1 110.862 6.31055   2
  -1   4   0 91.7989 5.83671   1
   1  -4   0 88.6460 5.66699   1
  -1   4   0 90.6166 5.71302   2
   1  -4   0 92.0794 5.76717   2
   1  -4   1 131.646 6.26642   1
  -1   4  -1 127.848 6.61653   2
   1  -4   1 127.554 6.70251   2
  -1   4  -1 124.330 6.15805   1
   1  -4   2 206.044 7.03909   1
  -1   4  -2 194.372 6.84734   1
   1  -4   2 195.902 8.23058   2
  -1   4  -2 205.402 8.39787   2
   1  -4   3 168.823 5.81262   1
  -1   4  -3 167.178 7.81716   2
   1  -4   3 156.056 7.70211   2
  -1   4  -3 162.549 5.71504   1
   1  -4   4 70.2314 5.78412   2
  -1   4  -4 62.4261 3.31945   1
   1  -4   4 63.4492 3.35015   1
  -1   4  -4 57.2202 5.26553   2
   1  -4   5 51.6878 5.29043   2
   1  -4   5 50.2746 2.56654   1
  -1   4  -5 50.5350 5.25655   2
  -1   4  -5 41.6776 2.32767   1
   1  -4   6 205.888 9.91495   2
  -1   4  -6 228.131 10.2631   2
   1  -4   6 196.820 3.53272   1
  -1   4  -7 6.62833 3.88271   2
   1  -4   7 5.38539 3.96304   2
  -1   4  -8 140.781 9.26499   2
  -1   4  -9 20.9873 5.43060   2
  -1   4 -10 25.2424 6.01226   2
  -1   4 -11 62.0405 8.38574   2
  -1   4 -12-2.86755 6.52884   2
  -1   4 -13-4.25350 7.36790   2
  -1   4 -14-6.67830 9.36510   2
  -1   4 -15 5.82135 10.1593   2
  -1   4 -16 39.9441 11.6515   2
   1  -3 -13-12.8704 11.2584   1
   1  -3 -13-1.80854 8.86604   2
  -1   3  13 0.53096 11.8116   1
  -1   3  12 8.46773 9.24390   1
   1  -3 -12 28.6045 8.09615   2
   1  -3 -12 12.3604 9.10137   1
   1  -3 -11 11.4653 8.40423   1
  -1   3  11 14.1666 7.99572   1
   1  -3 -11 15.6540 6.85408   2
   1  -3 -10-3.65271 6.90799   1
  -1   3  10 9.71316 7.27017   1
   1  -3 -10 7.79113 5.47389   2
   1  -3  -9 77.7870 7.63206   2
  -1   3   9 72.6952 9.06703   1
   1  -3  -9 73.0812 8.92029   1
   1  -3  -8 28.3810 5.08103   2
   1  -3  -8 35.5319 6.82383   1
  -1   3   8 32.5683 6.41392   1
  -1   3   7-0.21766 4.63228   1
   1  -3  -7 5.96107 4.60592   1
   1  -3  -7 2.36732 3.45794   2
  -1   3   6 7.50515 4.06108   1
   1  -3  -6 12.4389 4.61343   1
   1  -3  -6 17.5560 3.83451   2
   1  -3  -5 298.535 10.0382   2
   1  -3  -5 296.207 12.0931   1
  -1   3   5 286.987 11.8900   1
   1  -3  -4 273.397 11.0389   1
  -1   3   4 291.063 11.3119   1
   1  -3  -4 280.679 9.12956   2
  -1   3   3 105.796 6.69249   1
   1  -3  -3 110.248 5.72568   2
  -1   3   3 107.894 5.67763   2
   1  -3  -3 114.356 6.97134   1
   1  -3  -2 41.0582 4.23586   1
  -1   3   2 36.2265 4.11400   1
  -1   3   2 32.9506 3.39628   2
   1  -3  -2 37.5470 3.58319   2
   1  -3  -1 114.051 5.97401   1
  -1   3   1 121.719 6.15750   1
   1  -3  -1 121.469 5.57229   2
  -1   3   1 112.938 5.31788   2
  -1   3   0 142.893 5.96411   2
   1  -3   0 140.778 5.91685   2
   1  -3   0 134.831 5.87886   1
  -1   3   0 139.920 5.97994   1
   1  -3   1 355.087 9.27626   2
   1  -3   1 361.013 8.37325   1
  -1   3  -1 339.902 8.17722   1
  -1   3  -1 349.083 9.15532   2
  -1   3  -2 2726.87 26.0315   2
   1  -3   2 2674.56 25.9394   2
  -1   3  -2 2718.90 20.0227   1
   1  -3   2 2718.33 19.9413   1
  -1   3  -3 52.2945 4.33842   2
  -1   3  -3 52.5103 2.55915   1
   1  -3   3 58.2835 4.59250   2
   1  -3   3 54.6591 2.64379   1
  -1   3  -4 101.103 2.48543   1
   1  -3   4 103.478 2.53832   1
   1  -3   4 107.658 6.23812   2
  -1   3  -4 111.854 6.29230   2
  -1   3  -5 24.4198 3.85893   2
   1  -3   5 24.9823 3.99008   2
  -1   3  -6 63.5302 5.68311   2
  -1   3  -7 43.0732 5.47684   2
  -1   3  -8 82.0373 7.25803   2
   1  -3   9 92.9324 2.68955   1
   1  -3   9 97.1980 2.84014   1
  -1   3 -10 5.66396 5.17177   2
   1  -3  10 3.88695 1.36346   1
  -1   3 -11 177.501 12.0358   2
   1  -3  11 149.405 4.79628   1
   1  -3  12 2.71936 2.02465   1
  -1   3 -12 10.2205 6.78634   2
   1  -3  12 2.45391 2.06857   1
   1  -3  13 2.31438 2.32992   1
   1  -3  13 5.82923 2.44320   1
   1  -3  14 0.26738 2.63940   1
   1  -3  14 2.67532 2.74130   1
  -1   3 -14 10.7152 8.65964   2
   1  -3  15 81.5710 4.63480   1
   1  -3  15 138.995 5.34017   1
  -1   3 -16 3.10269 8.81531   2
   1  -2 -14 50.4663 10.3211   2
   1  -2 -14 55.6036 10.7384   2
  -1   2  14 35.7254 11.5308   1
   1  -2 -14 67.4779 12.8186   1
  -1   2  13 42.8134 10.6965   1
   1  -2 -13 24.1994 8.74822   2
   1  -2 -13 16.1472 9.56010   1
   1  -2 -12 8.91847 6.31599   2
   1  -2 -12 1.64873 7.95600   1
  -1   2  12 1.56001 7.79640   1
  -1   2  11 31.2447 8.05568   1
   1  -2 -11 32.1714 8.00897   1
   1  -2 -11 29.2231 6.43587   2
   1  -2 -10 47.0303 6.44592   2
   1  -2 -10 50.6106 8.16601   1
  -1   2  10 41.2467 7.52710   1
   1  -2  -9 301.847 12.0712   2
  -1   2   9 280.163 13.7777   1
   1  -2  -9 301.922 14.5452   1
   1  -2  -8 6.39044 4.68721   1
  -1   2   8 7.19443 4.74298   1
   1  -2  -8 3.86795 3.31362   2
  -1   2   7 88.0394 7.65933   1
   1  -2  -7 88.8248 7.66345   1
   1  -2  -7 94.6257 6.18553   2
  -1   2   6 78.6388 6.80044   1
   1  -2  -6 79.8340 5.37094   2
   1  -2  -6 81.7009 6.72305   1
  -1   2   5 854.795 18.4420   1
   1  -2  -5 894.101 14.8420   2
   1  -2  -5 921.857 19.1278   1
  -1   2   4 124.943 6.97746   1
   1  -2  -4 119.534 6.89670   1
   1  -2  -4 123.629 5.32597   2
   1  -2  -3 204.661 8.11375   1
   1  -2  -3 195.085 6.04859   2
  -1   2   3 196.352 7.97925   1
  -1   2   3 197.083 6.07786   2
  -1   2   2 2652.94 25.6811   1
   1  -2  -2 2687.04 20.4010   2
  -1   2   2 2674.54 20.2550   2
   1  -2  -2 2661.75 25.7222   1
  -1   2   1 1119.96 15.1864   1
   1  -2  -1 1178.02 15.6080   1
  -1   2   1 1137.23 12.8682   2
   1  -2  -1 1133.33 12.9024   2
  -1   2   0 917.096 12.2233   1
   1  -2   0 871.542 11.5548   2
   1  -2   0 912.729 12.2331   1
  -1   2   0 925.208 11.8636   2
  -1   2  -1 516.377 7.92194   1
   1  -2   1 539.486 9.71565   2
  -1   2  -1 544.107 9.70035   2
   1  -2   1 515.669 7.97138   1
  -1   2  -2 1272.88 9.81387   1
   1  -2   2 1260.05 15.9273   2
   1  -2   2 1273.12 9.94541   1
  -1   2  -2 1285.32 16.0073   2
  -1   2  -3 886.565 14.4270   2
   1  -2   3 875.928 14.4672   2
  -1   2  -4 789.136 14.7818   2
  -1   2  -5-2.23190 2.70593   2
  -1   2  -6 5.87144 3.17531   2
   1  -2   7 18.8982 1.63235   1
   1  -2   7 12.1498 1.42418   1
  -1   2  -7 18.7073 4.16885   2
  -1   2  -8 383.406 13.8810   2
   1  -2   8 366.358 7.22937   1
  -1   2  -9 5.31390 4.20938   2
   1  -2   9 0.33802 1.79015   1
  -1   2 -10 25.7791 6.08441   2
   1  -2  10 23.0164 3.10660   1
  -1   2 -11 26.7792 6.79112   2
   1  -2  11 20.7940 3.60486   1
  -1   2 -12 153.289 12.3945   2
   1  -2  12 132.242 6.80828   1
   1  -2  12 148.410 7.28658   1
   1  -2  13 12.5405 4.39086   1
   1  -2  13 9.39329 4.34217   1
  -1   2 -13 17.8819 8.15750   2
   1  -2  14 8.47253 4.93571   1
  -1   2 -14-6.32276 8.83132   2
   1  -2  14 5.43354 4.51361   1
   1  -2  15 7.59123 5.21146   1
  -1   2 -15 25.8927 10.7964   2
   1  -2  15 22.5666 5.38484   1
   1  -1 -15 11.6866 9.85546   2
   1  -1 -15 32.8608 11.1557   2
  -1   1  15 9.05452 11.3782   1
   1  -1 -15 37.6222 13.2479   1
   1  -1 -14 103.527 11.7085   2
  -1   1  14 93.5205 13.2755   1
   1  -1 -14 79.4289 12.7561   1
   1  -1 -14 88.2086 11.2373   2
   1  -1 -13-6.82065 6.77127   2
   1  -1 -13-9.43982 8.50286   1
   1  -1 -13 1.77368 6.56621   2
  -1   1  13-1.45258 8.14287   1
  -1   1  12 9.99221 6.86082   1
   1  -1 -12 23.8863 6.46698   2
   1  -1 -12 10.8572 6.78507   1
   1  -1 -11 25.3014 5.80381   2
   1  -1 -11 36.0010 7.76566   1
  -1   1  11 32.8459 7.28114   1
  -1   1  10 12.5368 5.55053   1
   1  -1 -10 6.23091 5.33915   1
   1  -1 -10 5.12785 4.13455   2
  -1   1   9 41.7901 6.11428   1
   1  -1  -9 46.0605 6.70269   1
   1  -1  -9 37.4314 4.96235   2
  -1   1   8 45.4145 5.90587   1
   1  -1  -8 46.4418 4.76908   2
   1  -1  -8 38.3431 5.81619   1
  -1   1   7 322.988 12.1338   1
   1  -1  -7 341.829 12.6899   1
   1  -1  -7 331.613 9.84095   2
   1  -1  -6 8.91249 3.50129   1
   1  -1  -6 10.4529 2.48361   2
  -1   1   6 6.65848 3.07236   1
  -1   1   5 200.217 8.43076   1
   1  -1  -5 203.520 6.30672   2
   1  -1  -5 205.636 8.69801   1
   1  -1  -4 205.129 5.52220   2
   1  -1  -4 212.009 8.16378   1
  -1   1   4 214.606 8.11464   1
   1  -1  -3 234.752 5.00428   2
   1  -1  -3 237.292 7.87287   1
  -1   1   3 235.441 7.74042   1
   1  -1  -2 1215.12 9.64084   2
   1  -1  -2 1246.85 15.8348   1
  -1   1   2 1225.21 15.5494   1
  -1   1   2 1222.04 9.61942   2
  -1   1   1 1830.13 16.8975   1
  -1   1   1 1841.35 11.5810   2
   1  -1  -1 1892.33 11.7425   2
   1  -1  -1 1847.37 17.2059   1
   1  -1   0 5.68350 1.40489   2
  -1   1   0 4.22750 1.31116   2
  -1   1   0 2.18151 1.42504   1
   1  -1   0 2.65894 1.48280   1
   1  -1   1 117.066 4.14715   2
  -1   1  -1 113.652 4.06998   2
  -1   1  -1 117.896 3.25568   1
  -1   1  -2 79.1602 2.05686   1
  -1   1  -2 78.5242 4.03367   2
  -1   1  -3 2.13680 1.99917   2
   1  -1   4 9.74003 1.10147   1
  -1   1  -4 8.00688 1.07138   1
  -1   1  -5 856.994 9.48099   1
   1  -1   5 854.506 9.46530   1
   1  -1   6 451.171 8.16493   1
  -1   1  -6 465.433 8.27723   1
   1  -1   7 149.555 5.56020   1
  -1   1  -7 143.989 5.46217   1
  -1   1  -8 0.83043 2.15204   1
   1  -1   8 2.67287 2.26219   1
  -1   1  -8 5.50781 3.90324   2
  -1   1  -9 142.805 9.62782   2
   1  -1   9 128.460 6.33778   1
  -1   1  -9 136.922 6.61181   1
  -1   1 -10 3.42407 4.79133   2
  -1   1 -10 2.07076 3.03949   1
   1  -1  10 2.24651 3.03433   1
   1  -1  11 46.7459 5.26624   1
  -1   1 -11 53.2335 7.89957   2
  -1   1 -11 54.4220 5.60770   1
   1  -1  12 4.59508 4.12097   1
  -1   1 -12 1.01793 6.61010   2
  -1   1 -12 6.39843 4.38094   1
   1  -1  13 179.719 10.1225   1
  -1   1 -13 186.857 14.2288   2
  -1   1 -13 157.998 9.87109   1
  -1   1 -14 11.8511 9.81942   2
  -1   1 -14 14.0652 6.76464   1
   1  -1  14 14.9335 6.33688   1
   1  -1  15 35.1347 7.75819   1
  -1   1 -15 65.3532 13.5295   2
  -1   0  15-1.42456 10.0901   1
   1   0 -15-13.8652 9.33406   2
   1   0 -15 3.55882 10.1059   1
   1   0 -15 4.67535 9.30285   2
   1   0 -14 6.23908 8.71620   1
  -1   0  14 21.5331 8.46752   1
   1   0 -14 22.0646 7.82537   2
   1   0 -14 7.91668 7.35078   2
   1   0 -13 56.4595 8.43176   2
  -1   0  13 59.4703 9.14345   1
   1   0 -13 63.5468 9.76691   1
   1   0 -12 36.3653 6.54568   2
  -1   0  12 40.6325 7.46681   1
   1   0 -12 32.4001 7.26506   1
  -1   0  11 586.074 19.1799   1
   1   0 -11 617.954 17.5005   2
   1   0 -11 657.231 20.5767   1
  -1   0  10 25.6818 5.55386   1
   1   0 -10 20.6622 5.40427   1
   1   0 -10 30.9432 5.09278   2
  -1   0   9 6.15420 4.12845   1
   1   0  -9 0.92779 3.21937   2
   1   0  -9 6.46331 4.14112   1
   1   0  -8 115.887 7.84479   1
  -1   0   8 108.007 7.47492   1
   1   0  -7 9.53345 3.42797   1
  -1   0   7 4.67388 3.17428   1
   1   0  -6 93.5686 6.22435   1
  -1   0   6 94.4860 6.11044   1
   1   0  -5 8.83320 2.83635   1
  -1   0   5 10.4096 2.87788   1
  -1   0   4 724.130 13.4081   1
   1   0  -4 713.747 13.4331   1
   1   0  -3 802.947 13.0533   1
  -1   0   3 789.567 12.8997   1
   1   0  -2 112.775 4.66721   1
  -1   0   2 112.803 4.76439   1
  -1   0   1 42.6737 2.69985   1
  -1   0   1 42.3370 2.92583   1
   1   0   0 1537.19 12.8472   1
  -1   0   0 1583.91 13.0811   1
  -1   0  -1 0.98694 1.15257   1
   1   0   1 2.40583 1.23968   1
  -1   0  -2 308.519 5.75645   1
   1   0   2 314.358 5.80611   1
   1   0   3 5.04780 1.44085   1
  -1   0  -3 7.62028 1.55693   1
   1   0   4 699.942 10.4593   1
  -1   0  -4 695.390 10.4443   1
   1   0   5 21.0499 2.62328   1
  -1   0  -5 18.2992 2.48879   1
   1   0   6 20.3177 2.95320   1
  -1   0  -6 27.2994 3.15311   1
   1   0   7 125.374 6.25517   1
  -1   0  -7 124.666 6.16954   1
  -1   0  -8 8.44482 3.14551   1
   1   0   8 9.45479 3.28986   1
  -1   0  -9 15.8531 4.03093   1
   1   0   9 10.7416 3.65836   1
   1   0  10 91.4575 7.06932   1
  -1   0 -10 104.382 7.52371   1
   1   0  11 16.3904 5.19246   1
  -1   0 -11 35.8838 6.16516   1
  -1   0 -12 159.309 10.2514   1
  -1   0 -12 174.083 13.1920   2
   1   0  12 159.418 10.1905   1
  -1   0 -13 113.638 12.8628   2
   1   0  13 97.8893 9.36732   1
  -1   0 -13 109.757 9.75537   1
  -1   0 -14 1.33058 7.49671   1
  -1   0 -14 2.65755 9.94554   2
   1   0  14 6.51228 6.80799   1
  -1   0 -15 13.3438 12.5132   2
   1   0  15 12.5880 8.62479   1
  -1   0 -15 16.5847 9.26525   1
  -1  -1  16 3.94189 10.5874   1
   1   1 -16 2.48496 9.83183   2
  -1  -1  16-15.4563 9.71188   1
  -1  -1  15 1.16183 8.48131   1
   1   1 -15 20.0448 8.87617   2
  -1  -1  15 7.22523 8.31610   1
   1   1 -14 71.0145 9.36891   2
  -1  -1  14 73.1301 10.1682   1
  -1  -1  14 64.3359 9.29781   1
   1   1 -13 30.2618 6.89623   2
  -1  -1  13 19.0615 6.68498   1
   1   1 -12 79.5971 7.96520   2
  -1  -1  12 74.2948 8.60507   1
   1   1 -12 79.4893 8.76347   1
   1   1 -11 47.9339 6.98275   1
   1   1 -11 50.6856 6.18233   2
  -1  -1  11 55.0598 7.09388   1
   1   1 -10 79.3616 7.53284   1
   1   1 -10 69.3607 6.16430   2
  -1  -1  10 73.8892 7.03711   1
  -1  -1   9 7.21000 3.76241   1
   1   1  -9 4.45869 3.11329   2
   1   1  -9 2.95209 3.64977   1
  -1  -1   8 15.3891 3.80806   1
   1   1  -8 14.6342 3.97083   1
   1   1  -8 16.2094 3.15704   2
  -1  -1   7 28.2941 4.08447   1
   1   1  -7 32.1199 4.35987   1
   1   1  -7 27.7758 3.24605   2
   1   1  -6 142.368 5.40527   2
  -1  -1   6 142.661 6.94034   1
   1   1  -6 166.493 7.59865   1
  -1  -1   5 635.518 12.7413   1
  -1  -1   5 658.052 13.3597   1
   1   1  -5 658.465 9.78701   2
  -1  -1   4 4221.71 21.1725   2
   1   1  -4 4247.70 21.1818   2
  -1  -1   4 4327.87 30.4834   1
  -1  -1   4 4246.65 31.3101   1
  -1  -1   3 4030.44 28.6225   1
  -1  -1   3 4088.31 27.5736   1
  -1  -1   3 4003.00 17.7690   2
   1   1  -3 4004.87 17.8328   2
   1   1  -2 3.48401 1.06679   2
  -1  -1   2 1.54037 1.03788   2
  -1  -1   2 4.10777 1.84933   1
   1   1  -2 1.67022 1.63184   1
   1   1  -1 4.69860 1.31866   2
  -1  -1   1 3.40667 1.30884   2
  -1  -1   1 3.17687 1.80321   1
   1   1  -1 2.34908 1.84347   1
  -1  -1   0 52.2489 3.22996   1
   1   1   0 50.2681 3.20818   1
  -1  -1   0 51.1204 2.93056   2
  -1  -1  -1 262.363 6.61232   1
   1   1   1 267.786 6.67747   1
  -1  -1  -2 413.965 8.71033   1
   1   1   2 429.515 8.82295   1
  -1  -1  -3 36.7219 3.31555   1
   1   1   3 32.9083 3.13392   1
   1   1   4 580.163 11.8695   1
  -1  -1  -4 575.660 11.8576   1
   1   1   5 43.6743 4.18819   1
  -1  -1  -5 48.9664 4.25251   1
   1   1   6 158.760 7.54122   1
  -1  -1  -6 162.139 7.52075   1
  -1  -1  -7 13.8673 3.76796   1
   1   1   7 9.65977 3.46001   1
   1   1   8 161.121 8.74813   1
  -1  -1  -8 165.098 8.74500   1
  -1  -1  -9 62.6816 6.47275   1
   1   1   9 65.6301 6.49960   1
   1   1  10 81.1683 7.65484   1
  -1  -1 -10 82.3563 7.69852   1
   1   1  11 22.4228 6.32986   1
  -1  -1 -11 23.2707 5.92209   1
   1   1  12-2.83733 5.72176   1
  -1  -1 -12-1.02339 6.24334   1
  -1  -1 -13 22.1059 8.00407   1
   1   1  13 24.7511 8.21938   1
  -1  -1 -14 21.2650 9.18913   1
   1   1  14 6.52907 8.71905   1
  -1  -1 -14 2.78713 12.2155   2
  -1  -1 -14 7.03928 11.8727   2
  -1  -2  16-3.51571 9.68729   1
   1   2 -16 20.7290 10.0110   2
  -1  -2  16 2.09788 9.90741   1
  -1  -2  15-9.03641 7.64768   1
   1   2 -15-6.51933 7.55575   2
  -1  -2  15-3.66546 7.33260   1
   1   2 -14 18.1923 6.91421   2
  -1  -2  14 21.3640 7.67373   1
  -1  -2  14 29.6365 7.07441   1
  -1  -2  13 0.22250 5.63732   1
   1   2 -13 6.69507 5.71972   2
  -1  -2  13 8.67363 5.76962   1
  -1  -2  12-5.86252 5.26966   1
   1   2 -12-5.58966 4.68117   2
  -1  -2  12-0.03959 4.83355   1
  -1  -2  11 1.14753 3.94097   1
  -1  -2  11 4.29247 4.43924   1
   1   2 -11-6.45769 4.15143   2
  -1  -2  10 24.2853 4.64192   1
   1   2 -10 24.5258 4.50828   2
  -1  -2  10 25.7652 4.92653   1
  -1  -2   9 8.58988 3.56334   1
   1   2  -9 10.0770 3.43384   2
  -1  -2   9 8.25100 3.70868   1
  -1  -2   8 6.87421 3.44097   1
   1   2  -8-1.30898 2.56741   2
  -1  -2   8 4.66947 2.91954   1
  -1  -2   7 72.7705 5.30434   1
   1   2  -7 69.3902 4.65668   2
  -1  -2   7 66.0701 5.34943   1
   1   2  -6 141.562 5.76918   2
  -1  -2   6 145.257 6.94893   1
  -1  -2   6 146.357 5.92247   2
  -1  -2   6 155.318 6.90307   1
  -1  -2   5 125.612 5.03908   2
   1   2  -5 115.235 4.83685   2
  -1  -2   5 124.677 5.91087   1
  -1  -2   5 125.811 6.22821   1
   1   2  -4 170.971 6.52495   1
   1   2  -4 170.847 5.40039   2
  -1  -2   4 168.479 5.38418   2
  -1  -2   4 172.019 6.53735   1
  -1  -2   3 153.542 5.91250   1
   1   2  -3 152.489 4.97690   2
  -1  -2   3 147.451 4.86859   2
   1   2  -3 148.614 5.91719   1
  -1  -2   2 16.9524 2.20461   2
  -1  -2   2 21.9471 2.87634   1
   1   2  -2 17.7208 2.70871   1
   1   2  -2 21.4434 2.39201   2
  -1  -2   1 357.768 7.94324   2
   1   2  -1 378.267 8.99184   1
   1   2  -1 368.837 8.06626   2
  -1  -2   1 380.095 8.93819   1
  -1  -2   0 3.63465 2.14801   1
   1   2   0 5.62572 2.08688   2
   1   2   0 3.31324 2.25441   1
  -1  -2   0 3.38980 1.94659   2
  -1  -2  -1 1327.72 17.6329   2
   1   2   1 1317.14 17.5047   1
  -1  -2  -1 1349.18 17.6847   1
   1   2   2 3136.88 28.4179   1
  -1  -2  -2 3210.96 29.5421   2
  -1  -2  -2 3302.87 29.0646   1
  -1  -2  -3 829.771 16.3123   2
   1   2   3 840.938 15.6913   1
  -1  -2  -3 874.623 16.0160   1
   1   2   4 41.5429 4.46588   1
  -1  -2  -4 51.4340 4.80146   1
  -1  -2  -4 40.7863 4.70924   2
   1   2   5 16.6014 3.73066   1
  -1  -2  -5 13.6374 3.45851   1
  -1  -2  -6 5.07335 3.43454   1
   1   2   6 9.55549 3.73012   1
  -1  -2  -7 13.5101 4.30143   1
   1   2   7 19.0757 4.69184   1
  -1  -2  -8 17.1000 5.02292   1
   1   2   8 24.2253 5.41810   1
   1   2   9 36.1313 6.62100   1
  -1  -2  -9 35.2839 7.08442   2
  -1  -2  -9 39.0833 6.47162   1
  -1  -2 -10 13.2014 5.78884   1
  -1  -2 -10 16.2093 7.05681   2
   1   2  10 13.4349 6.10403   1
   1   2  11-2.04682 6.38576   1
  -1  -2 -11 5.11563 7.57048   2
  -1  -2 -11-2.34103 6.54641   1
  -1  -2 -12-4.29518 9.34515   2
  -1  -2 -12 5.35330 7.25194   1
   1   2  12 5.41587 7.03073   1
  -1  -2 -13-7.34752 9.35193   1
   1   2  13-4.39132 9.28780   1
  -1  -2 -13 21.7263 10.6057   2
  -1  -2 -14 34.0887 9.07590   1
   1   2  14 27.2484 8.20722   1
  -1  -2 -14 3.86405 8.57369   2
  -1  -3  16-4.54077 8.66062   1
   1   3 -16 7.10844 9.41255   2
  -1  -3  16-9.22540 8.79143   1
   1   3 -15 49.2377 9.86231   2
  -1  -3  15 66.7982 9.92818   1
  -1  -3  15 50.7817 8.99968   1
   1   3 -14-2.86517 6.25162   2
  -1  -3  14 4.35271 5.71572   1
  -1  -3  14 3.36658 6.40566   1
  -1  -3  13 20.3638 5.92776   1
   1   3 -13 27.1244 6.60524   2
  -1  -3  13 29.2330 6.39712   1
   1   3 -12 6.45501 4.94535   2
  -1  -3  12 4.65572 4.48023   1
  -1  -3  12-1.15238 4.24081   1
  -1  -3  11 183.382 9.84305   1
  -1  -3  11 203.404 10.3978   1
   1   3 -11 208.916 10.5525   2
  -1  -3  10 13.1405 4.13740   1
   1   3 -10 13.8674 4.27708   2
  -1  -3  10 7.88798 4.16250   1
   1   3  -9 453.666 13.1672   2
  -1  -3   9 451.301 13.2911   1
  -1  -3   9 441.814 13.5784   1
  -1  -3   8 40.9767 4.58186   1
   1   3  -8 42.1918 4.54713   2
  -1  -3   8 47.0971 5.08098   1
  -1  -3   7 11.8281 3.06961   1
  -1  -3   7 15.3261 3.53641   1
   1   3  -7 16.0632 3.17034   2
  -1  -3   7 12.4544 3.00384   2
   1   3  -6 85.2897 5.49089   1
   1   3  -6 76.7762 4.90183   2
  -1  -3   6 72.2873 4.88515   2
  -1  -3   6 87.1573 5.53644   1
  -1  -3   5 256.657 8.58761   1
   1   3  -5 252.097 8.54376   1
   1   3  -5 223.120 7.57915   2
  -1  -3   5 245.280 7.94525   2
   1   3  -4 281.327 8.21435   2
  -1  -3   4 300.281 9.10123   1
   1   3  -4 281.083 8.82724   1
  -1  -3   4 279.160 8.22525   2
   1   3  -3 638.808 12.0932   2
  -1  -3   3 621.953 11.9871   2
   1   3  -3 635.094 12.9833   1
  -1  -3   3 632.091 12.8867   1
  -1  -3   2 612.726 12.6674   1
   1   3  -2 560.056 12.3253   1
   1   3  -2 577.946 11.6975   2
  -1  -3   2 573.302 11.6898   2
   1   3  -1 13.5678 3.05633   1
   1   3  -1 10.8060 2.64602   2
  -1  -3   1 16.0944 2.89583   2
  -1  -3   1 14.5817 3.06580   1
  -1  -3   0 1344.37 19.1919   2
  -1  -3   0 1397.50 20.0249   1
   1   3   0 1347.20 19.7532   1
   1   3   0 1369.67 19.4586   2
  -1  -3  -1 214.557 8.40199   2
  -1  -3  -1 237.910 8.84906   1
   1   3   1 209.172 8.41690   1
   1   3   1 228.516 8.62948   2
  -1  -3  -2 1.52583 2.82143   1
  -1  -3  -2 0.95123 2.70310   2
   1   3   2 4.08868 2.69214   1
   1   3   3 15.4460 3.73637   1
  -1  -3  -3 17.9983 3.84938   1
  -1  -3  -3 16.8819 3.83460   2
  -1  -3  -4 28.4623 4.72840   1
   1   3   4 27.9922 4.55538   1
  -1  -3  -4 32.5138 4.91607   2
   1   3   5 85.8752 7.02861   1
  -1  -3  -5 79.3777 7.11218   2
  -1  -3  -5 81.5965 6.98400   1
  -1  -3  -6 586.796 18.1397   2
  -1  -3  -6 564.869 17.0417   1
   1   3   6 531.468 16.6745   1
  -1  -3  -7 23.1163 5.61320   1
   1   3   7 9.11623 4.98786   1
  -1  -3  -7 12.1827 5.35444   2
   1   3   8 610.540 19.6744   1
  -1  -3  -8 684.143 21.7676   2
  -1  -3  -8 636.814 20.0052   1
   1   3   9 17.9499 6.34047   1
  -1  -3  -9 30.7555 7.57592   2
  -1  -3  -9 37.2095 7.61545   1
   1   3  10 36.9304 8.28411   1
  -1  -3 -10 44.8305 8.96192   2
  -1  -3 -10 34.9102 8.37382   1
   1   3  11 19.0552 8.19741   1
  -1  -3 -11 25.1642 8.79814   2
  -1  -3 -11 6.80977 7.61421   1
  -1  -3 -12-4.86912 10.0332   2
  -1  -3 -12 7.26228 9.42445   1
   1   3  12-8.80245 8.92030   1
  -1  -3 -13 41.8517 12.6686   1
   1   3  13 41.9761 12.2464   1
  -1  -4  16 12.9049 8.14806   1
  -1  -4  16 24.0301 8.67952   1
   1   4 -16 24.1468 9.92505   2
   1   4 -15-0.43229 7.75941   2
  -1  -4  15-1.03341 6.94858   1
  -1  -4  15 18.3657 7.40122   1
   1   4 -14 33.9117 8.07708   2
  -1  -4  14 49.2816 7.54149   1
  -1  -4  14 39.0090 7.21569   1
  -1  -4  13 21.4905 5.94410   1
  -1  -4  13 19.0307 5.60944   1
   1   4 -13 14.4615 6.03372   2
   1   4 -12 6.46417 5.06442   2
  -1  -4  12 9.69511 5.01490   1
  -1  -4  12 12.7728 5.20849   1
  -1  -4  11 133.363 8.70289   1
  -1  -4  11 150.994 9.20128   1
   1   4 -11 147.479 9.54387   2
  -1  -4  10 51.8951 5.63816   1
   1   4 -10 49.5279 6.00135   2
  -1  -4  10 65.6451 6.60754   1
  -1  -4   9 158.366 8.81296   2
  -1  -4   9 164.353 8.88445   1
  -1  -4   9 165.017 8.52845   1
   1   4  -9 156.291 8.56305   2
   1   4  -8 113.667 7.22405   2
  -1  -4   8 115.745 6.93528   1
  -1  -4   8 107.392 7.09223   2
  -1  -4   8 122.637 7.46652   1
   1   4  -7 223.992 9.28256   2
  -1  -4   7 220.781 9.22882   2
   1   4  -7 213.139 8.89776   1
  -1  -4   7 217.871 8.93620   1
   1   4  -6 44.1166 4.59332   1
   1   4  -6 47.9358 4.68278   2
  -1  -4   6 49.6943 4.75931   1
  -1  -4   6 41.4656 4.48190   2
  -1  -4   5 52.8254 4.72647   2
   1   4  -5 56.4357 4.91560   1
   1   4  -5 55.4318 4.79987   2
  -1  -4   5 58.4517 4.98959   1
   1   4  -4 18.4759 3.32994   2
  -1  -4   4 15.1389 3.26519   2
   1   4  -4 19.5222 3.48282   1
  -1  -4   4 15.6159 3.22957   1
   1   4  -3 33.9080 4.05556   1
  -1  -4   3 39.5010 4.24633   2
  -1  -4   3 36.9763 4.17252   1
   1   4  -3 37.1484 4.07561   2
   1   4  -2 889.884 16.8521   2
  -1  -4   2 917.698 17.1796   2
   1   4  -2 914.198 17.6046   1
  -1  -4   2 975.921 18.0465   1
  -1  -4   1 1.90190 2.90937   1
   1   4  -1 7.15559 3.24447   1
   1   4  -1 7.34993 3.01795   2
  -1  -4   1 4.81341 2.86870   2
  -1  -4   0 47.7108 4.89348   2
  -1  -4   0 52.1141 5.02024   1
   1   4   0 43.5103 4.75966   2
   1   4   0 44.0511 4.95496   1
  -1  -4  -1 27.4970 4.24627   2
  -1  -4  -1 28.0004 4.37049   1
   1   4   1 26.2985 4.14408   1
   1   4   1 25.2398 4.24806   2
  -1  -4  -2 0.82310 3.09025   2
   1   4   2-2.09460 3.44309   1
  -1  -4  -2-1.86044 3.01819   1
   1   4   3 23.8080 4.86186   1
  -1  -4  -3 18.9384 4.54457   1
  -1  -4  -3 16.5395 4.25271   2
   1   4   4 0.46220 4.09725   1
  -1  -4  -4-2.14340 3.73661   1
  -1  -4  -4 0.95414 3.65232   2
  -1  -4  -5 281.162 13.1050   2
  -1  -4  -5 271.364 12.7465   1
   1   4   5 273.195 12.9389   1
  -1  -4  -6 52.3086 6.96637   1
   1   4   6 54.2556 7.35537   1
  -1  -4  -6 52.9496 7.19249   2
   1   4   7 30.6269 6.77832   1
  -1  -4  -7 14.5234 5.92225   2
  -1  -4  -7 30.7410 7.01985   1
  -1  -4  -8 7.07246 6.69417   2
   1   4   8 17.9448 6.90933   1
  -1  -4  -8 9.62296 6.56499   1
  -1  -4  -9 21.9519 7.74864   1
   1   4   9 18.4916 7.84251   1
  -1  -4  -9 18.2906 7.87501   2
  -1  -4 -10-4.86468 8.74499   2
  -1  -4 -10-0.43905 8.45955   1
   1   4  10-7.98849 8.75528   1
   1   4  11 2.78895 9.54918   1
  -1  -4 -11-15.3814 10.1325   2
  -1  -4 -11 9.52061 9.86641   1
  -1  -4 -12 17.8027 12.1490   1
  -1  -4 -12-13.8802 11.5241   2
   1   4  12 21.8744 12.4388   1
  -1  -5  16 5.91328 8.00919   1
  -1  -5  16-4.23153 7.61218   1
   1   5 -16-9.87099 10.1731   2
   1   5 -15 5.45352 8.89549   2
  -1  -5  15 22.0936 7.15935   1
  -1  -5  15 16.1932 7.48237   1
  -1  -5  14 5.58297 6.08206   1
   1   5 -14 0.41997 7.20761   2
  -1  -5  14 7.64710 5.79758   1
   1   5 -13 144.372 11.5794   2
  -1  -5  13 156.732 10.1784   1
  -1  -5  13 162.969 10.5813   1
  -1  -5  12 36.0013 5.97294   1
   1   5 -12 44.3070 7.42033   2
  -1  -5  12 41.6922 6.45744   1
   1   5 -11 164.439 10.4698   2
  -1  -5  11 166.916 9.89304   1
  -1  -5  11 163.522 9.36000   1
  -1  -5  10 188.607 9.98456   1
  -1  -5  10 184.954 9.45666   1
   1   5 -10 198.244 10.8357   2
  -1  -5  10 184.372 10.6195   2
  -1  -5   9-0.86208 3.66515   1
   1   5  -9-4.15887 3.95939   2
  -1  -5   9 2.23808 4.04465   2
  -1  -5   9-3.63507 3.73565   1
  -1  -5   8 64.6096 5.92706   1
  -1  -5   8 70.3295 6.54989   2
   1   5  -8 65.2458 6.40638   2
   1   5  -8 60.3929 5.84885   1
  -1  -5   7 47.8939 5.41613   2
   1   5  -7 45.1318 5.54037   2
  -1  -5   7 51.8005 5.26205   1
   1   5  -7 48.9015 5.26337   1
   1   5  -6 138.958 8.14751   2
  -1  -5   6 126.980 7.74553   2
   1   5  -6 122.486 7.43501   1
  -1  -5   6 122.470 7.30116   1
   1   5  -5 123.603 7.56402   2
  -1  -5   5 126.105 7.43880   1
  -1  -5   5 131.479 7.85773   2
   1   5  -5 136.216 7.81236   1
  -1  -5   4 1.71590 2.94881   2
   1   5  -4 0.78698 3.11284   1
   1   5  -4 0.93538 3.07247   2
  -1  -5   4-3.76490 3.16128   1
   1   5  -3 377.629 12.4693   2
  -1  -5   3 395.862 12.8021   2
   1   5  -3 380.628 12.6544   1
  -1  -5   3 380.439 12.5569   1
   1   5  -2 24.2183 4.33321   2
  -1  -5   2 23.5041 4.19350   1
  -1  -5   2 28.5097 4.56808   2
   1   5  -2 24.1476 4.27751   1
   1   5  -1 9.19394 3.71087   2
  -1  -5   1 13.5759 4.09713   1
  -1  -5   1 10.9870 3.78688   2
   1   5  -1 20.7764 4.49800   1
  -1  -5   0 3.28579 3.66132   2
   1   5   0 8.71208 3.89132   2
  -1  -5   0 8.45247 4.17261   1
   1   5   0 7.42951 3.68142   1
   1   5   1 158.194 9.35811   2
  -1  -5  -1 156.851 9.62670   1
   1   5   1 159.678 9.56972   1
  -1  -5  -1 160.542 9.34461   2
   1   5   2 477.608 15.9805   2
  -1  -5  -2 466.784 15.7647   2
  -1  -5  -2 461.299 16.1506   1
   1   5   2 436.049 15.7057   1
  -1  -5  -3 117.057 8.93151   2
   1   5   3 99.9836 8.55284   1
  -1  -5  -3 111.235 8.96740   1
  -1  -5  -4 202.846 11.9273   1
  -1  -5  -4 203.292 11.8184   2
   1   5   4 185.739 11.7448   1
   1   5   5 61.7188 8.32185   1
  -1  -5  -5 75.4746 8.74576   1
  -1  -5  -5 71.0850 8.55511   2
   1   5   6 20.3384 6.41984   1
  -1  -5  -6 14.6610 6.25610   2
  -1  -5  -6 15.4548 6.23547   1
  -1  -5  -7 6.44647 7.11010   2
   1   5   7 2.15445 6.42665   1
  -1  -5  -7 13.1012 7.19577   1
  -1  -5  -8-11.1327 8.16242   2
   1   5   8-0.75368 7.12130   1
  -1  -5  -8-6.09283 7.72671   1
  -1  -5  -9 51.7993 10.5943   1
  -1  -5  -9 47.1438 10.4476   2
   1   5   9 33.9747 9.72426   1
  -1  -5 -10-4.49607 10.3361   2
   1   5  10 8.16033 9.77282   1
  -1  -5 -10-2.82810 9.72984   1
   1   5  11 78.2564 15.1679   1
  -1  -5 -11 95.5506 15.6861   1
   1   6 -16 28.8070 12.1301   2
  -1  -6  16 20.0064 8.68052   1
  -1  -6  16 22.3780 8.27287   1
  -1  -6  15 32.4912 7.79310   1
  -1  -6  15 26.7593 8.04875   1
   1   6 -15 35.9763 10.3202   2
  -1  -6  14 5.70276 6.32850   1
   1   6 -14 4.95847 7.48110   2
  -1  -6  14-9.37244 6.36722   1
  -1  -6  13 7.04603 5.37344   1
  -1  -6  13 21.6598 6.42234   1
   1   6 -13 22.3811 7.42656   2
   1   6 -12 94.3216 9.68321   2
  -1  -6  12 90.5670 8.37749   1
  -1  -6  12 92.2291 8.05269   1
  -1  -6  11 92.5005 9.36678   2
  -1  -6  11 100.017 8.23407   1
  -1  -6  11 92.9977 8.33636   1
   1   6 -11 90.4928 9.11588   2
  -1  -6  10 135.728 9.99901   2
  -1  -6  10 145.845 9.04876   1
   1   6 -10 157.890 10.7025   2
  -1  -6  10 124.436 8.85973   1
   1   6  -9 48.1025 6.69568   2
   1   6  -9 33.9787 5.35249   1
  -1  -6   9 42.0927 5.53813   1
  -1  -6   9 42.2171 6.71762   2
   1   6  -8 18.4389 4.58315   1
  -1  -6   8 16.2332 5.34904   2
   1   6  -8 10.7630 4.59205   2
  -1  -6   8 15.7414 4.39365   1
   1   6  -7 116.662 8.56789   2
   1   6  -7 106.471 7.61035   1
  -1  -6   7 119.800 8.65304   2
  -1  -6   7 126.109 8.14084   1
  -1  -6   6-2.41318 3.77588   2
   1   6  -6-1.32078 3.67592   2
  -1  -6   6 1.13777 3.63361   1
   1   6  -6 0.95793 3.52550   1
  -1  -6   5 253.298 11.6443   2
   1   6  -5 248.186 11.4191   2
   1   6  -5 265.457 11.4850   1
  -1  -6   5 258.546 11.3127   1
  -1  -6   4 223.299 11.0596   2
  -1  -6   4 242.614 11.0656   1
   1   6  -4 225.256 10.9568   2
   1   6  -4 207.878 10.4801   1
  -1  -6   3 5.11690 3.65778   1
   1   6  -3 1.97943 3.67069   1
   1   6  -3-1.90073 3.74500   2
  -1  -6   3 5.23074 3.91139   2
  -1  -6   2-0.07550 3.96511   1
   1   6  -2-2.69979 4.42944   1
  -1  -6   2 4.63265 4.03403   2
   1   6  -2 1.99365 3.71959   2
  -1  -6   1 9.73558 4.51417   2
  -1  -6   1 15.2780 4.70930   1
   1   6  -1 10.0782 4.42688   2
   1   6  -1 15.4052 4.53308   1
  -1  -6   0 24.2438 5.45081   2
   1   6   0 19.1936 5.19199   2
   1   6   0 22.9707 5.59891   1
  -1  -6   0 14.1019 4.99394   1
   1   6   1 238.864 12.4333   2
  -1  -6  -1 232.787 12.2377   2
  -1  -6  -1 225.441 12.4624   1
   1   6   1 205.835 11.8785   1
   1   6   2 69.8223 7.78161   2
  -1  -6  -2 57.1373 7.78142   1
   1   6   2 53.7433 7.16211   1
  -1  -6  -2 68.6623 7.83225   2
  -1  -6  -3 2.88121 5.19019   2
   1   6   3-0.51335 5.09339   1
  -1  -6  -3-2.44026 4.71193   1
  -1  -6  -4 21.9956 6.41671   2
   1   6   4 24.1239 6.56187   1
  -1  -6  -4 9.58154 5.77034   1
  -1  -6  -5 23.5676 7.38510   2
   1   6   5 28.1404 7.55254   1
  -1  -6  -5 27.3642 7.39756   1
  -1  -6  -6 2.84742 7.35573   2
   1   6   6-0.75797 8.05885   1
  -1  -6  -6-5.35568 6.26322   1
  -1  -6  -7 9.72838 8.01065   2
   1   6   7 2.03344 8.18320   1
  -1  -6  -7 13.9143 8.58194   1
  -1  -6  -8 109.607 13.5588   2
   1   6   8 84.4877 13.0691   1
  -1  -6  -8 95.0475 12.8246   1
  -1  -6  -9 5.23704 10.2509   2
   1   6   9-1.16916 11.2750   1
   1   6  10 4.08904 12.1172   1
  -1  -6 -10 7.35946 12.2275   2
  -1  -6 -10-4.65821 12.7728   1
   1   7 -15 134.003 14.4230   2
  -1  -7  15 112.738 10.3170   1
  -1  -7  15 124.470 10.4117   1
   1   7 -14 39.7192 10.4861   2
  -1  -7  14 22.6312 7.27376   1
  -1  -7  14 27.4725 8.04226   1
   1   7 -13 118.093 12.2634   2
  -1  -7  13 117.076 10.0938   1
  -1  -7  13 101.105 9.18761   1
  -1  -7  12 4.91223 5.98625   1
  -1  -7  12 14.4481 7.23745   2
   1   7 -12 10.4773 7.19100   2
  -1  -7  12-3.33017 5.29144   1
  -1  -7  11 0.26381 6.10489   2
  -1  -7  11-0.88878 5.08985   1
   1   7 -11 3.95001 6.34312   2
  -1  -7  11 0.59057 4.98467   1
   1   7 -10-4.98815 6.05645   2
  -1  -7  10 8.14738 5.09275   1
  -1  -7  10-3.66212 5.39579   2
   1   7 -10 1.59684 4.60067   1
  -1  -7   9 18.6718 5.36674   1
   1   7  -9 21.5774 6.20670   2
   1   7  -9 26.2684 5.65338   1
  -1  -7   9 23.6620 6.48197   2
  -1  -7   8 30.5166 6.64501   2
   1   7  -8 40.4946 6.93553   2
  -1  -7   8 41.9683 6.26661   1
   1   7  -8 34.8004 6.10533   1
   1   7  -7 38.8793 6.19875   1
  -1  -7   7 42.8244 6.16857   1
  -1  -7   7 30.5438 6.31194   2
   1   7  -7 43.6519 6.79712   2
   1   7  -6 10.0343 5.02668   2
  -1  -7   6 13.1538 4.59583   1
  -1  -7   6 8.52230 4.99986   2
   1   7  -6 22.3856 5.37634   1
   1   7  -5 124.095 9.39429   2
   1   7  -5 126.870 9.20649   1
  -1  -7   5 133.458 9.94664   2
  -1  -7   5 142.151 9.59078   1
   1   7  -4 87.2220 8.26322   1
  -1  -7   4 82.7532 8.20805   2
  -1  -7   4 99.1551 8.53688   1
   1   7  -4 94.4244 8.48922   2
   1   7  -3 51.7692 7.19190   1
   1   7  -3 49.9558 6.88767   2
  -1  -7   3 53.5827 7.02463   1
  -1  -7   3 49.2767 7.04559   2
   1   7  -2 15.8671 5.38430   1
  -1  -7   2 31.9957 6.16580   1
  -1  -7   2 28.2032 6.01886   2
   1   7  -2 27.9621 6.18143   2
   1   7  -1 4.65760 5.07155   2
  -1  -7   1 13.0156 5.86320   1
  -1  -7   1 9.45728 5.26053   2
   1   7  -1 6.06834 5.45634   1
   1   7   0 55.6109 7.77528   2
  -1  -7   0 50.7358 7.67854   2
   1   7   0 43.5198 7.36005   1
  -1  -7   0 52.9567 7.81187   1
   1   7   1 72.3523 8.70205   2
  -1  -7  -1 62.8187 8.45800   1
   1   7   1 58.8004 8.24990   1
  -1  -7  -1 79.9345 9.01513   2
   1   7   2 278.631 15.0860   2
  -1  -7  -2 267.503 14.9099   2
   1   7   2 274.899 15.2295   1
  -1  -7  -2 290.541 15.6033   1
  -1  -7  -3 66.6459 9.99574   1
  -1  -7  -3 59.9528 9.21534   2
   1   7   3 48.0653 9.25256   1
  -1  -7  -4 8.27192 6.86706   2
   1   7   4-2.17584 7.52954   1
  -1  -7  -4 9.10406 7.21160   1
  -1  -7  -5 1.28151 7.38126   1
  -1  -7  -5-1.55589 7.72709   2
   1   7   5 4.86990 8.24076   1
   1   7   6 24.6770 9.34390   1
  -1  -7  -6 9.40838 9.22466   1
  -1  -7  -6 16.6990 8.83384   2
  -1  -7  -7 139.444 15.2323   1
  -1  -7  -7 116.467 14.2832   2
   1   7   7 158.906 15.9441   1
  -1  -7  -8 20.6571 11.7166   1
   1   7   8 10.1866 12.8326   1
  -1  -7  -8-4.44725 11.2673   2
  -1  -7  -9 3.65638 6.26783   2
  -1  -8  15 5.91639 8.10164   1
   1   8 -15-8.63511 10.8475   2
  -1  -8  15-1.63523 7.79199   1
   1   8 -14 53.6864 11.7660   2
  -1  -8  14 55.4917 9.19235   1
  -1  -8  14 54.0849 9.07660   1
   1   8 -13 119.222 13.3611   2
  -1  -8  13 137.547 14.1195   2
  -1  -8  13 137.831 10.7439   1
  -1  -8  13 144.357 11.7152   1
  -1  -8  12 26.1961 7.19708   1
   1   8 -12 26.4642 9.38581   2
  -1  -8  12 27.1737 9.18005   2
  -1  -8  12 22.1363 6.97940   1
  -1  -8  11 0.56449 5.69747   1
   1   8 -11-0.94083 7.59229   2
  -1  -8  11 7.60021 7.40378   2
   1   8 -10 28.4521 8.11351   2
  -1  -8  10 22.9868 6.20734   1
  -1  -8  10 32.8345 8.26860   2
   1   8 -10 26.9349 6.69665   1
   1   8  -9 5.92578 5.68947   1
  -1  -8   9 12.7546 5.44026   1
   1   8  -9-2.77807 6.49139   2
  -1  -8   9-5.77771 6.15233   2
  -1  -8   8 70.6272 9.52581   2
   1   8  -8 57.1471 8.57887   2
  -1  -8   8 62.8286 7.94460   1
   1   8  -8 58.0968 7.74242   1
   1   8  -7 43.0487 7.11127   1
  -1  -8   7 41.1812 6.97609   1
   1   8  -7 39.7727 7.43929   2
  -1  -8   7 41.7441 7.71204   2
   1   8  -6 277.420 14.7703   2
  -1  -8   6 287.593 14.1191   1
   1   8  -6 260.259 13.5389   1
  -1  -8   6 299.469 15.4077   2
  -1  -8   5 4.76900 5.33924   1
   1   8  -5 8.16057 6.01988   2
   1   8  -5 0.33829 5.47885   1
  -1  -8   5 2.25298 5.77254   2
  -1  -8   4 54.4444 8.38454   2
  -1  -8   4 48.3813 7.77597   1
   1   8  -4 39.2895 7.57603   2
   1   8  -4 35.4885 7.48073   1
   1   8  -3 89.7473 9.71096   1
  -1  -8   3 86.7401 9.59089   1
   1   8  -3 94.7348 9.82768   2
  -1  -8   3 102.618 10.1393   2
  -1  -8   2 165.785 12.2445   2
  -1  -8   2 174.975 12.3408   1
   1   8  -2 156.656 11.9215   2
   1   8  -2 157.144 12.1392   1
   1   8  -1 3.78148 6.41387   1
   1   8  -1 10.5541 6.34257   2
  -1  -8   1 7.08241 6.36545   2
  -1  -8   1 5.81150 5.74080   1
  -1  -8   0-0.05816 6.21131   2
  -1  -8   0-1.24935 6.48865   1
   1   8   0 4.82143 6.66689   2
   1   8   0-0.94826 6.07351   1
   1   8   1 14.8986 7.18342   2
  -1  -8  -1 10.4695 6.76562   2
  -1  -8  -1 20.3404 7.85107   1
   1   8   1 13.5990 7.63248   1
   1   8   2 9.48395 6.92635   1
  -1  -8  -2 6.75437 7.32501   2
  -1  -8  -2 5.90827 6.84574   1
  -1  -8  -3 4.77854 8.50493   1
   1   8   3 17.2055 9.35710   1
  -1  -8  -3 3.07303 8.16291   2
  -1  -8  -4 18.1793 9.51216   2
   1   8   4 13.2239 8.82345   1
  -1  -8  -4 30.8327 9.89353   1
  -1  -8  -5 11.4131 10.4283   2
  -1  -8  -5 9.07724 9.82015   1
   1   8   5 11.6139 10.7590   1
  -1  -8  -6 68.6805 14.7751   1
   1   8   6 57.5618 12.7481   1
  -1  -8  -7-17.2517 12.6262   1
  -1  -8  -7-6.13799 12.4055   2
   1   8   7 2.66111 12.1124   1
  -1  -9  14 0.40991 8.15336   1
   1   9 -14 18.9398 12.2705   2
  -1  -9  14 5.41502 11.9778   2
  -1  -9  14 1.06044 8.52653   1
   1   9 -13 46.9709 12.0852   2
  -1  -9  13 42.9865 8.88581   1
  -1  -9  13 58.8984 12.7603   2
  -1  -9  13 40.1034 9.44777   1
  -1  -9  12 9.11767 10.7080   2
  -1  -9  12 18.9534 7.67707   1
   1   9 -12 19.2440 10.5490   2
  -1  -9  12 27.3916 8.89139   1
   1   9 -11 0.92777 8.77621   2
  -1  -9  11 2.19108 6.94838   1
   1   9 -11 1.66050 6.95419   1
  -1  -9  11 0.06746 8.84367   2
  -1  -9  10 16.7324 7.01719   1
   1   9 -10 9.81429 7.66417   2
  -1  -9  10 18.1199 9.05576   2
   1   9 -10 8.67261 7.16412   1
  -1  -9   9 204.198 15.0677   2
   1   9  -9 204.229 14.8890   2
  -1  -9   9 223.014 14.0391   1
   1   9  -9 194.061 13.1417   1
   1   9  -8 27.7099 7.63332   1
  -1  -9   8 44.8035 8.07416   1
  -1  -9   8 35.7006 8.64963   2
   1   9  -8 47.8500 9.42612   2
  -1  -9   7 103.020 11.1467   2
   1   9  -7 91.5701 10.0492   1
  -1  -9   7 76.1345 9.34293   1
   1   9  -7 84.9930 10.4869   2
  -1  -9   6 83.3886 10.5793   2
   1   9  -6 67.1288 9.14530   1
  -1  -9   6 82.0072 9.77330   1
   1   9  -6 76.2833 10.1308   2
   1   9  -5 98.0918 10.7877   2
   1   9  -5 74.9585 9.96109   1
  -1  -9   5 83.7726 10.1195   1
  -1  -9   5 100.589 11.2522   2
  -1  -9   4 119.853 11.8392   2
   1   9  -4 132.307 12.1817   2
  -1  -9   4 121.352 11.4491   1
   1   9  -4 98.9146 11.1715   1
   1   9  -3-7.37429 7.20445   1
  -1  -9   3-4.31505 7.36826   2
   1   9  -3-0.30986 7.00463   2
  -1  -9   3 9.37020 7.24133   1
   1   9  -2 7.97581 7.50745   1
   1   9  -2 7.49985 7.17744   2
  -1  -9   2-12.3268 7.66338   1
  -1  -9   2-1.54329 7.17246   2
   1   9  -1 4.13209 7.74392   2
  -1  -9   1 7.05674 8.05116   2
   1   9  -1 2.11052 7.15013   1
  -1  -9   1 22.5126 8.59663   1
   1   9   0 26.4426 9.04229   2
  -1  -9   0 25.5620 9.11437   2
  -1  -9   0 11.0200 8.33792   1
   1   9   0 30.1400 9.74155   1
  -1  -9  -1 41.0040 10.0008   1
  -1  -9  -1 33.6193 9.61154   2
   1   9   1 25.0863 9.32942   2
   1   9   1 14.8856 9.06956   1
   1   9   2-9.92991 10.1159   1
  -1  -9  -2-11.5893 9.85705   2
  -1  -9  -2 4.09706 9.11967   1
  -1  -9  -3 22.1690 11.4327   2
  -1  -9  -3 3.51067 10.4471   1
   1   9   3 23.6252 11.8708   1
   1   9   4 7.74938 12.2433   1
  -1  -9  -4-7.96333 12.1079   1
  -1  -9  -4 1.14214 11.5045   2
  -1  -9  -5 117.261 17.5884   1
   1   9   5 95.6198 15.5477   1
  -1 -10  12-9.59503 9.50552   1
   1  10 -12 2.15606 9.59837   1
  -1 -10  12 14.5773 12.9491   2
   1  10 -12-15.6277 11.5760   2
  -1 -10  11-6.39002 8.76951   1
  -1 -10  11 2.43600 11.6093   2
   1  10 -11 12.7023 11.0948   2
   1  10 -11-4.57655 9.02473   1
   1  10 -10 105.223 14.4345   2
  -1 -10  10 109.021 14.6562   2
  -1 -10  10 114.267 12.4628   1
  -1 -10   9 7.73034 8.30468   1
   1  10  -9-4.21640 9.20298   2
   1  10  -9 19.7970 9.28431   1
  -1 -10   9 12.3567 10.1619   2
   1  10  -8 42.2169 9.40631   1
   1  10  -8 42.5295 10.6453   2
  -1 -10   8 42.1132 11.0379   2
  -1 -10   8 35.8098 9.20146   1
  -1 -10   7 1.54052 8.02926   1
   1  10  -7-1.67942 9.56104   2
  -1 -10   7-0.64117 9.50664   2
   1  10  -7 19.5346 8.53088   1
   1  10  -6-0.06991 9.03047   2
  -1 -10   6 5.40227 8.87855   2
   1  10  -6 1.45253 7.93949   1
  -1 -10   6 11.0355 8.28546   1
  -1 -10   5 44.7673 10.7840   2
   1  10  -5 54.8142 11.1353   2
  -1 -10   5 35.4247 10.0993   1
   1  10  -5 42.2225 10.1557   1
   1  10  -4 85.7073 12.0056   1
  -1 -10   4 93.3650 12.0244   1
  -1 -10   4 81.6403 12.4406   2
   1  10  -4 104.106 12.8821   2
  -1 -10   3 62.7994 10.8504   1
   1  10  -3 67.7282 11.0835   1
  -1 -10   3 87.8856 12.3964   2
   1  10  -3 73.6528 11.7373   2
   1  10  -2 115.013 13.6464   1
  -1 -10   2 142.705 14.7265   2
  -1 -10   2 141.488 14.8127   1
   1  10  -2 139.255 14.5674   2
   1  10  -1 14.4712 10.7084   1
   1  10  -1 11.3155 10.2999   2
  -1 -10   1 15.0357 10.7527   2
  -1 -10   1-7.23963 9.83286   1
   1  10   0 1.11921 10.8670   1
   1  10   0 12.1434 10.9692   2
  -1 -10   0 0.94721 10.1436   2
  -1 -10   0 24.6404 11.6414   1
  -1 -10  -1 13.1941 10.9837   2
  -1 -10  -1 14.1376 11.6368   1
   1  10   1 21.9904 11.5286   2
   1  10   1 1.08935 10.8613   1
   1  10   2 6.07357 12.4776   1
  -1 -10  -2 3.91768 12.2497   1
  -1 -10  -2-8.84014 13.3718   2
   1  10   3 86.4810 16.2293   1
  -1 -10  -3 87.0115 16.3501   1
   1  11 -10 11.5046 12.9884   2
  -1 -11  10 7.50097 13.4193   2
   1  11 -10 38.4420 11.9923   1
  -1 -11  10 2.91610 10.6943   1
   1  11  -9 26.4223 12.5336   2
   1  11  -9-13.7075 11.4136   1
  -1 -11   9 16.7479 12.6226   2
  -1 -11   9 11.2686 10.6055   1
   1  11  -8 26.8184 12.1879   2
  -1 -11   8 58.7106 13.8020   2
   1  11  -8 42.9325 11.8597   1
  -1 -11   8 54.2488 11.4363   1
  -1 -11   7 42.5280 12.2684   2
   1  11  -7 25.6286 11.9045   2
  -1 -11   7 25.7015 10.8610   1
   1  11  -7 33.7482 10.9641   1
  -1 -11   6-0.73585 11.7080   2
   1  11  -6-13.4437 10.8968   1
   1  11  -6 8.63964 11.3094   2
  -1 -11   6 1.02404 10.9486   1
   1  11  -5 80.8189 13.9406   2
   1  11  -5 53.5886 13.0332   1
  -1 -11   5 60.2147 12.4329   1
  -1 -11   5 86.1015 14.4524   2
   1  11  -4 5.73186 11.1974   1
  -1 -11   4 20.1207 11.6455   2
  -1 -11   4 30.6203 11.1084   1
   1  11  -4 3.29333 11.8386   2
   1  11  -3 60.1440 13.6847   2
   1  11  -3 32.4935 12.6774   1
  -1 -11   3 43.7586 13.0282   2
  -1 -11   3 14.5389 11.4744   1
   1  11  -2 23.7269 11.8970   1
   1  11  -2 26.8094 12.8373   2
  -1 -11   2 55.9561 13.6808   2
  -1 -11   2 34.7112 12.8262   1
   1  11  -1-5.55619 12.9483   2
  -1 -11   1-2.63877 12.6112   2
  -1 -11   1-4.97438 12.0008   1
   1  11   0 14.7956 12.1843   1
  -1 -11   0 18.1859 12.2271   1
  -2  11   0 2.36420 11.2022   2
   2 -11   0 5.44765 11.7344   1
  -2  11   0 39.3412 13.4249   1
   2 -11   0 19.1852 12.0778   2
   2 -11   1-7.83613 11.8801   1
  -2  11  -1-4.84583 12.1602   2
  -2  11  -1-3.44382 11.2179   1
   2 -11   1-11.9967 12.2007   2
  -2  11  -2-1.78057 11.0055   1
  -2  11  -2 20.9705 12.8252   2
   2 -11   2 4.51163 11.7687   2
   2 -11   2-6.10449 10.9131   1
  -2  11  -3 12.7464 9.78026   1
   2 -11   3-5.01764 10.4591   1
  -2  11  -3 16.4579 12.2015   2
   2 -11   3 5.68769 11.4284   2
  -2  11  -4-20.0239 12.4072   2
   2 -11   4-21.6241 13.2284   2
   2 -11   4 2.13941 10.0050   1
  -2  11  -4-21.2045 10.4852   1
  -2  11  -5 33.1905 10.6156   1
   2 -11   5 26.9774 9.36854   1
  -2  11  -5 43.3442 12.5647   2
   2 -11   5 9.40911 12.0628   2
  -2  11  -6 14.8573 8.27763   1
   2 -11   6 17.3107 8.76537   1
   2 -11   6-12.8746 12.1784   2
  -2  11  -6 22.0194 12.9503   2
  -2  11  -7-0.25503 12.9622   2
   2 -11   7 1.30913 12.9075   2
   2 -11   7-1.76508 7.95407   1
  -2  11  -7 3.52064 7.89752   1
   2 -11   8 72.1276 16.3397   2
  -2  11  -8 71.0721 15.7084   2
   2 -11   8 51.9400 8.95975   1
  -2  11  -9 28.3502 4.85370   1
   2 -11   9 27.4542 4.82609   1
   2 -10  -3 173.452 17.9382   2
  -2  10   3 149.616 18.2627   1
  -2  10   3 136.579 16.4338   2
   2 -10  -2 82.9205 14.3650   1
  -2  10   2 79.4847 13.9924   1
  -2  10   2 72.6702 12.8628   2
   2 -10  -2 72.5506 13.0415   2
   2 -10  -1 4.21474 10.9863   2
   2 -10  -1 13.1521 10.3263   1
  -2  10   1-11.5306 9.80618   1
  -2  10   1 15.7486 10.4776   2
  -2  10   0-16.9314 9.44861   1
  -2  10   0-4.51616 9.21099   2
   2 -10   0-7.82915 9.38330   2
   2 -10   0-1.22603 9.23684   1
  -2  10  -1 1.39285 8.71904   1
   2 -10   1-7.01526 9.09670   1
  -2  10  -1-4.82754 9.22650   2
   2 -10   1 12.5065 10.3248   2
   2 -10   2 29.6362 10.2484   2
   2 -10   2 34.0548 9.63392   1
  -2  10  -2 50.0214 10.1507   1
  -2  10  -2 60.1076 11.0996   2
   2 -10   3 6.19390 9.29849   2
   2 -10   3-7.72050 8.63042   1
  -2  10  -3 10.3514 9.00935   2
  -2  10  -3-0.28492 7.73260   1
   2 -10   4 0.86312 7.86496   1
  -2  10  -4-1.20141 9.59229   2
   2 -10   4 5.90720 9.99539   2
  -2  10  -4 15.5467 7.62885   1
   2 -10   5 15.8006 7.89993   1
  -2  10  -5 30.6701 9.91479   2
   2 -10   5 18.0559 9.81064   2
  -2  10  -5 17.7348 7.33488   1
   2 -10   6 57.3309 11.5894   2
  -2  10  -6 59.4215 11.6274   2
   2 -10   6 58.4244 8.57630   1
  -2  10  -6 51.4804 8.07975   1
  -2  10  -7-0.98886 10.5023   2
  -2  10  -7-6.66843 5.78251   1
   2 -10   7 7.12566 6.52773   1
   2 -10   7-7.70474 10.0496   2
   2 -10   8 9.81569 6.02733   1
  -2  10  -8 16.8925 11.8378   2
   2 -10   8 16.7159 11.4094   2
  -2  10  -8-6.79448 5.23019   1
  -2  10  -9 12.8257 4.14831   1
   2 -10   9 17.1879 4.72715   1
  -2  10 -10 23.1057 12.5227   2
   2 -10  10-2.43716 13.2029   2
  -2  10 -11-1.59200 13.0784   2
   2 -10  11 35.5312 15.1374   2
   2  -9  -6 51.5242 9.89469   2
  -2   9   5 36.1828 13.4617   1
   2  -9  -5 6.46980 13.0722   1
   2  -9  -5 18.6739 10.9763   2
  -2   9   4 33.5479 12.1035   1
   2  -9  -4-9.15965 11.4576   1
  -2   9   4 25.9474 10.3271   2
   2  -9  -4 22.1952 10.4992   2
   2  -9  -3 100.150 12.4749   2
  -2   9   3 83.6899 13.4284   1
  -2   9   3 110.714 13.0282   2
   2  -9  -3 96.6864 13.8175   1
  -2   9   2-9.25702 9.35145   1
   2  -9  -2 1.08135 9.15428   2
   2  -9  -2 21.9447 10.3721   1
  -2   9   2 6.70570 8.71672   2
   2  -9  -1-0.20110 8.43642   1
  -2   9   1-10.9195 8.12046   2
   2  -9  -1 2.88029 7.40498   2
  -2   9   1 5.29912 8.18656   1
  -2   9   0 61.4839 9.82422   2
   2  -9   0 78.5841 10.6232   2
  -2   9   0 63.9482 10.4586   1
   2  -9   0 54.8340 10.1195   1
  -2   9  -1 105.080 11.6408   2
   2  -9   1 110.627 11.9804   2
  -2   9  -1 98.5719 11.0709   1
   2  -9   1 91.1718 10.9999   1
  -2   9  -2 9.98401 7.47455   2
   2  -9   2 7.68092 6.80912   1
  -2   9  -2-4.09767 6.67534   1
   2  -9   2-6.54852 8.17375   2
   2  -9   3 26.5885 7.30114   1
  -2   9  -3 29.3250 8.86889   2
  -2   9  -3 22.4299 6.79746   1
   2  -9   3 35.8495 9.00567   2
   2  -9   4 32.0298 8.67444   2
   2  -9   4 20.0798 6.76391   1
  -2   9  -4 29.9896 8.76493   2
  -2   9  -4 33.4173 6.85867   1
  -2   9  -5 77.5459 10.7391   2
   2  -9   5 73.4681 10.7139   2
  -2   9  -5 44.0420 6.68741   1
   2  -9   5 67.5117 7.94266   1
  -2   9  -6 4.41127 4.86760   1
  -2   9  -6 7.16424 8.25265   2
   2  -9   6 8.35248 5.16135   1
   2  -9   6 3.00627 8.16783   2
   2  -9   7 5.96743 8.35916   2
   2  -9   7-2.03688 4.72028   1
  -2   9  -7 1.28215 8.13772   2
  -2   9  -7-3.32382 4.36440   1
   2  -9   8 57.3312 11.7181   2
  -2   9  -8 44.7092 5.32818   1
   2  -9   8 52.6993 5.58694   1
   2  -9   9 2.80346 1.96573   1
  -2   9  -9 13.9262 9.56843   2
   2  -9   9 8.51963 9.59429   2
  -2   9  -9 2.05045 1.83109   1
   2  -9  10 10.3877 10.4766   2
  -2   9 -10 15.1731 11.0044   2
  -2   9 -11 32.2523 12.0713   2
   2  -9  11 18.8594 13.0707   2
  -2   9 -12 90.1436 16.4630   2
   2  -8  -7 16.0882 10.1002   2
  -2   8   7-5.80463 14.1871   1
   2  -8  -7-9.06399 14.5320   1
  -2   8   6 2.91098 10.5999   1
   2  -8  -6 30.6380 13.0713   1
   2  -8  -6 12.6623 8.96638   2
   2  -8  -5 110.675 12.0159   2
   2  -8  -5 91.7266 13.2900   1
  -2   8   5 93.4794 13.2976   1
  -2   8   4 15.5390 7.51612   2
   2  -8  -4 4.77296 8.46901   1
   2  -8  -4 6.27787 7.29490   2
  -2   8   4 7.04923 8.32982   1
   2  -8  -3 0.73649 7.95758   1
  -2   8   3-1.60309 7.84063   1
  -2   8   3 0.49133 6.97075   2
   2  -8  -3 8.98248 7.18038   2
   2  -8  -2 71.1221 9.28085   2
  -2   8   2 58.0666 9.45643   1
  -2   8   2 69.9323 9.21435   2
   2  -8  -2 73.0759 10.4680   1
  -2   8   1 133.820 11.2177   2
   2  -8  -1 133.487 11.3683   2
  -2   8   1 144.101 12.0421   1
   2  -8  -1 112.797 11.2594   1
  -2   8   0 6.83629 6.67336   2
   2  -8   0 10.1253 6.19881   2
  -2   8   0-0.74008 5.78517   1
   2  -8   0 3.55320 6.23603   1
  -2   8  -1 65.0772 8.60448   2
   2  -8   1 61.1659 8.83253   2
  -2   8  -1 39.9301 7.12922   1
   2  -8   1 43.8870 7.74178   1
   2  -8   2-0.22862 5.45953   1
  -2   8  -2-1.77445 5.35411   1
   2  -8   2-3.76720 6.33746   2
  -2   8  -2 1.49925 5.57169   2
   2  -8   3 15.9119 6.59010   2
  -2   8  -3 10.8589 4.99303   1
  -2   8  -3 25.4145 6.72803   2
   2  -8   3 16.2965 5.56823   1
  -2   8  -4 5.17882 4.69991   1
   2  -8   4 2.67592 4.39267   1
  -2   8  -4 12.3753 6.20748   2
   2  -8   4 15.8589 6.64042   2
   2  -8   5 35.3276 8.11836   2
  -2   8  -5 27.9913 7.10836   2
  -2   8  -5 29.0354 5.39147   1
   2  -8   5 26.3886 5.34314   1
  -2   8  -6 2.35093 3.73136   1
   2  -8   6-1.21558 3.69670   1
  -2   8  -6 1.03857 6.77946   2
   2  -8   6-1.83518 6.57653   2
  -2   8  -7 57.8795 5.16761   1
  -2   8  -7 62.6004 9.63726   2
   2  -8   7 71.1165 10.3067   2
   2  -8   7 57.1047 5.18197   1
   2  -8   8 0.13678 2.27842   1
  -2   8  -8-1.39268 2.14339   1
  -2   8  -8-6.16028 7.23304   2
   2  -8   8-4.15362 7.92474   2
   2  -8   9-5.20736 8.96184   2
  -2   8  -9 2.84290 7.78179   2
   2  -8  10-7.55416 9.00513   2
  -2   8 -10-6.79154 9.07042   2
  -2   8 -11 13.5304 10.1230   2
  -2   8 -12 28.8562 11.4748   2
  -2   8 -13 80.7843 15.4787   2
  -2   7   9 32.4081 15.6968   1
   2  -7  -9 8.81689 13.7896   1
   2  -7  -9 15.9336 10.4508   2
  -2   7   8 66.2899 14.6767   1
   2  -7  -8 76.5552 11.1827   2
   2  -7  -8 68.7866 14.3512   1
   2  -7  -7-6.25246 10.6563   1
   2  -7  -7 1.67979 7.53016   2
  -2   7   7-4.85800 10.6445   1
   2  -7  -6 11.7080 8.94702   1
   2  -7  -6-1.70574 7.22424   2
  -2   7   6 3.02585 8.24110   1
   2  -7  -5 7.51726 7.58572   1
   2  -7  -5 11.9080 6.40057   2
  -2   7   5 6.96312 8.82166   1
  -2   7   4 102.532 9.66401   2
  -2   7   4 87.6736 11.0294   1
   2  -7  -4 91.6881 9.33068   2
   2  -7  -4 80.7316 10.8917   1
   2  -7  -3 9.07014 6.65532   1
  -2   7   3 6.21093 5.43857   2
   2  -7  -3 4.80071 5.75518   2
  -2   7   3 3.32467 6.70338   1
   2  -7  -2 8.57892 5.99725   1
   2  -7  -2 3.30174 5.30885   2
  -2   7   2 0.39959 4.98094   2
  -2   7   2 6.39569 5.86724   1
  -2   7   1 380.115 15.5561   2
   2  -7  -1 390.282 15.9585   2
  -2   7   1 321.341 15.3357   1
   2  -7  -1 333.508 15.6334   1
   2  -7   0 183.294 11.3719   2
  -2   7   0 178.587 11.3821   1
  -2   7   0 174.254 10.8937   2
   2  -7   0 153.730 10.7690   1
  -2   7  -1 36.5290 6.37521   2
   2  -7   1 35.6330 6.72506   2
  -2   7  -1 25.7169 5.66449   1
   2  -7   1 30.1987 5.86485   1
  -2   7  -2 0.85026 3.96944   1
   2  -7   2 1.38907 4.05025   1
  -2   7  -2-2.22370 4.75249   2
   2  -7   2 5.47837 4.89742   2
   2  -7   3 208.405 12.2246   2
  -2   7  -3 208.252 10.1746   1
  -2   7  -3 237.063 12.8827   2
   2  -7   3 204.548 10.2687   1
   2  -7   4 11.2171 5.61894   2
   2  -7   4 13.7815 4.10338   1
  -2   7  -4 15.9040 3.99022   1
  -2   7  -4 7.81147 5.30807   2
  -2   7  -5 30.8225 6.69617   2
   2  -7   5 27.4173 4.31925   1
  -2   7  -5 23.1532 4.00325   1
   2  -7   5 32.4511 7.05104   2
   2  -7   6 140.710 6.71377   1
   2  -7   6 171.968 12.2723   2
  -2   7  -6 167.526 11.8205   2
  -2   7  -6 139.526 6.55549   1
  -2   7  -7 16.4895 6.37231   2
  -2   7  -7 9.14671 2.20453   1
   2  -7   7 15.4949 2.58899   1
   2  -7   8 179.097 13.2291   2
  -2   7  -8 178.436 13.1114   2
  -2   7  -9-3.93646 6.94403   2
   2  -7   9 1.38014 7.31397   2
  -2   7 -10 27.2416 8.93283   2
  -2   7 -11 66.9319 11.2361   2
  -2   7 -12-0.51771 9.88057   2
  -2   7 -13 132.340 15.6398   2
  -2   7 -14 24.9896 13.1499   2
   2  -6 -10-6.09633 9.43653   2
   2  -6 -10 8.09950 13.5484   1
  -2   6  10-6.30461 11.3964   1
   2  -6  -9-10.7886 11.3085   1
   2  -6  -9-3.63442 7.59687   2
  -2   6   9-5.75988 11.0522   1
   2  -6  -8 3.60834 10.0111   1
   2  -6  -8 15.0451 6.97403   2
  -2   6   8 1.14266 9.85267   1
   2  -6  -7 13.6529 9.50138   1
   2  -6  -7 24.8262 7.22714   2
  -2   6   7 20.9968 9.49996   1
   2  -6  -6 19.3117 8.36942   1
   2  -6  -6 19.8833 6.20562   2
  -2   6   6 13.7940 8.10803   1
   2  -6  -5 9.93563 5.21821   2
   2  -6  -5 11.1544 6.57770   1
  -2   6   5 2.99485 6.22228   1
  -2   6   5 8.96082 5.56173   2
   2  -6  -4 40.5882 6.38256   2
   2  -6  -4 30.2023 7.56779   1
  -2   6   4 30.1974 5.65010   2
  -2   6   4 26.4148 7.46113   1
  -2   6   3 93.9513 7.96747   2
  -2   6   3 67.4334 8.53696   1
   2  -6  -3 84.0531 7.50512   2
   2  -6  -3 72.4007 8.40240   1
   2  -6  -2 1.97157 4.75571   1
  -2   6   2 0.98623 4.18040   2
   2  -6  -2 5.54321 4.30940   2
  -2   6   2 8.16029 4.95260   1
   2  -6  -1 3.25498 4.46037   1
   2  -6  -1 1.69694 4.10013   2
  -2   6   1 4.21138 3.79996   2
  -2   6   1-2.89247 4.51803   1
  -2   6   0 34.2565 5.53921   2
   2  -6   0 29.8592 5.38639   2
  -2   6   0 27.1362 5.30268   1
   2  -6   0 34.2038 5.49258   1
  -2   6  -1 169.952 9.40695   1
  -2   6  -1 187.337 10.3102   2
   2  -6   1 175.205 9.94426   2
   2  -6   1 199.267 10.1148   1
  -2   6  -2 11.7882 3.67727   1
   2  -6   2 18.0630 4.88822   2
  -2   6  -2 12.8734 4.65544   2
   2  -6   2 18.9183 4.15773   1
  -2   6  -3 299.244 12.9868   2
  -2   6  -3 298.186 10.5684   1
   2  -6   3 291.744 10.5132   1
   2  -6   3 297.923 13.1141   2
  -2   6  -4 4.63980 2.74089   1
   2  -6   4-2.57872 4.24431   2
   2  -6   4-0.18063 2.68471   1
  -2   6  -4-3.49791 4.36991   2
   2  -6   5 90.3497 8.39946   2
   2  -6   5 85.6130 5.07363   1
  -2   6  -5 86.5901 8.12484   2
  -2   6  -5 88.3509 5.06182   1
  -2   6  -6 11.4996 2.10041   1
  -2   6  -6 7.12227 5.00193   2
   2  -6   6 11.3299 2.20841   1
   2  -6   7 43.7856 7.33196   2
  -2   6  -7 51.6140 7.63376   2
   2  -6   8 47.4272 8.07537   2
  -2   6  -8 51.2197 8.11033   2
  -2   6  -9 15.7127 6.85758   2
  -2   6 -10 11.5784 7.06072   2
  -2   6 -11 2.91153 7.63142   2
  -2   6 -12-6.07427 8.84728   2
  -2   6 -13 3.39317 9.81551   2
  -2   6 -14 14.3240 11.7371   2
   2  -5 -11 5.09549 8.37729   2
   2  -5 -11-1.14917 13.0576   1
  -2   5  11 17.5538 12.5123   1
   2  -5 -10 73.3625 13.3674   1
  -2   5  10 39.0155 11.4160   1
   2  -5 -10 64.7498 9.42135   2
   2  -5  -9 5.06736 8.88130   1
   2  -5  -9 3.17891 5.98649   2
  -2   5   9 27.0126 9.95087   1
   2  -5  -8 12.1785 5.74091   2
   2  -5  -8 17.7423 7.75412   1
  -2   5   8 1.89385 7.77146   1
   2  -5  -7 8.84033 5.01231   2
   2  -5  -7 16.8504 7.41892   1
  -2   5   7 1.72941 7.42416   1
  -2   5   6 145.062 12.0391   1
   2  -5  -6 194.451 10.4200   2
   2  -5  -6 174.098 12.8015   1
  -2   5   5 154.720 9.10268   2
   2  -5  -5 144.813 8.82342   2
  -2   5   5 145.245 11.2468   1
   2  -5  -5 148.822 11.3562   1
  -2   5   4 0.65871 3.33251   2
   2  -5  -4 11.1143 5.59569   1
   2  -5  -4 9.82751 3.93008   2
  -2   5   4 8.26739 4.99201   1
  -2   5   3 299.548 11.3151   2
  -2   5   3 286.957 13.4559   1
   2  -5  -3 303.995 11.5748   2
   2  -5  -3 302.516 13.7147   1
   2  -5  -2 17.0604 4.70563   1
  -2   5   2 13.9561 3.78811   2
   2  -5  -2 14.4949 4.01610   2
  -2   5   2 19.4053 4.77306   1
   2  -5  -1 17.2822 4.60059   1
  -2   5   1 22.5894 4.68454   1
   2  -5  -1 22.6051 4.13987   2
  -2   5   1 19.7091 4.03881   2
  -2   5   0 830.182 18.2459   2
   2  -5   0 844.341 18.5319   2
  -2   5   0 832.907 18.7862   1
   2  -5   0 816.663 18.6467   1
  -2   5  -1 156.217 8.45005   2
   2  -5   1 164.819 8.82145   2
  -2   5  -1 153.669 8.06552   1
   2  -5   1 154.120 8.02930   1
   2  -5   2 270.535 11.2002   2
  -2   5  -2 249.204 10.6990   2
  -2   5  -2 259.994 9.46381   1
   2  -5   2 256.779 9.46309   1
  -2   5  -3 33.6504 5.20556   2
   2  -5   3 31.6756 5.04533   2
  -2   5  -3 32.1776 3.78463   1
   2  -5   3 35.0702 3.85191   1
  -2   5  -4 48.7590 5.81538   2
   2  -5   4 53.4819 6.26445   2
  -2   5  -4 56.5507 3.94557   1
   2  -5   4 54.4150 3.98825   1
  -2   5  -5 132.468 8.93324   2
   2  -5   5 145.606 9.37663   2
  -2   5  -5 131.536 4.51760   1
   2  -5   5 115.630 4.40134   1
  -2   5  -6 32.5063 5.81688   2
   2  -5   6 25.3276 5.64870   2
   2  -5   7 32.9051 6.35654   2
  -2   5  -7 34.6723 6.31482   2
  -2   5  -8 27.0688 6.36422   2
  -2   5  -9 64.9886 8.54453   2
  -2   5 -10 162.141 12.5128   2
  -2   5 -11 214.704 14.7332   2
  -2   5 -12 58.2947 10.7632   2
  -2   5 -13 8.01697 9.53131   2
  -2   5 -14 39.1120 11.9727   2
  -2   5 -15-21.5803 12.8520   2
   2  -4 -12 86.1175 10.0013   2
   2  -4 -12 95.0506 15.5140   1
   2  -4 -11-8.71440 10.9535   1
   2  -4 -11-13.2988 6.21340   2
  -2   4  11-16.0610 11.9769   1
   2  -4 -10 41.3837 7.11091   2
  -2   4  10 57.6234 11.4408   1
   2  -4 -10 42.7640 10.4999   1
   2  -4  -9 11.5550 7.57707   1
   2  -4  -9 6.97952 5.10638   2
  -2   4   9 10.1370 7.85915   1
   2  -4  -8 13.3005 7.07564   1
   2  -4  -8 16.0711 4.96303   2
  -2   4   8 13.3700 7.23269   1
   2  -4  -7 7.90251 6.64735   1
   2  -4  -7 7.93345 3.87342   2
  -2   4   7 13.4332 6.06424   1
   2  -4  -6 2.01338 4.62668   1
   2  -4  -6-1.65074 3.47287   2
  -2   4   6-3.44955 5.16013   1
  -2   4   5 42.6867 6.71625   1
   2  -4  -5 43.5174 4.87908   2
   2  -4  -5 36.0506 6.49249   1
   2  -4  -4 1.23979 4.48420   1
  -2   4   4-2.64483 2.80298   2
   2  -4  -4-1.54061 2.73272   2
  -2   4   4-6.06114 4.58934   1
  -2   4   3 150.912 7.24934   2
   2  -4  -3 150.981 7.24923   2
  -2   4   3 146.427 9.08453   1
   2  -4  -3 161.493 9.64074   1
  -2   4   2 48.8422 4.57538   2
   2  -4  -2 51.7071 4.76473   2
  -2   4   2 50.8366 5.89133   1
   2  -4  -2 49.5661 5.67110   1
   2  -4  -1 334.126 10.4081   2
  -2   4   1 322.093 10.1916   2
  -2   4   1 336.584 11.7070   1
   2  -4  -1 329.712 11.7307   1
  -2   4   0 95.3937 6.21331   1
  -2   4   0 89.3250 5.78608   2
   2  -4   0 96.0145 6.10309   2
   2  -4   0 97.9325 6.43761   1
  -2   4  -1 769.785 15.0784   1
  -2   4  -1 776.130 16.1726   2
   2  -4   1 773.079 16.2832   2
   2  -4   1 759.149 15.2250   1
  -2   4  -2 10.7352 3.32302   2
   2  -4   2 10.4506 3.38289   2
   2  -4   2 15.2329 2.91897   1
  -2   4  -2 13.0356 2.67197   1
  -2   4  -3 356.160 12.0081   2
   2  -4   3 347.485 12.0054   2
  -2   4  -3 355.740 8.51046   1
   2  -4   3 349.123 8.58598   1
   2  -4   4 223.311 10.2266   2
  -2   4  -4 219.573 10.0223   2
  -2   4  -4 227.177 5.70142   1
   2  -4   4 194.905 5.43176   1
  -2   4  -5 75.7539 6.77761   2
   2  -4   5 82.6939 7.10614   2
  -2   4  -6 52.7826 6.21918   2
  -2   4  -7 663.242 19.4411   2
  -2   4  -8 2.45183 4.50461   2
  -2   4  -9 3.52331 5.34899   2
  -2   4 -10 76.1870 9.36220   2
  -2   4 -11-11.8253 7.14641   2
  -2   4 -12 11.9606 8.50730   2
  -2   4 -13-5.18367 9.43339   2
  -2   4 -14 1.62829 10.7564   2
  -2   4 -15 16.3192 13.0753   2
   2  -3 -13 26.4827 8.03644   2
   2  -3 -13 48.7085 12.8048   1
   2  -3 -12 33.2252 7.62072   2
   2  -3 -12 12.3335 10.8514   1
   2  -3 -11 8.26199 5.34260   2
  -2   3  11-8.22161 8.11273   1
   2  -3 -11 8.41301 8.66508   1
   2  -3 -10 0.52219 7.47346   1
   2  -3 -10-0.03284 4.80127   2
  -2   3  10 0.12636 7.65747   1
  -2   3   9 28.7177 7.93208   1
   2  -3  -9 10.5819 6.68950   1
   2  -3  -9 15.2888 4.61960   2
  -2   3   8 49.7834 7.88081   1
   2  -3  -8 59.6186 5.53890   2
   2  -3  -8 56.4222 8.61689   1
  -2   3   7 129.292 10.2170   1
   2  -3  -7 132.524 7.00053   2
   2  -3  -7 144.481 10.7864   1
  -2   3   6 192.790 11.3734   1
   2  -3  -6 185.981 7.58814   2
   2  -3  -6 190.759 11.4560   1
   2  -3  -5 2.66421 3.86592   1
   2  -3  -5 5.35097 2.44240   2
  -2   3   5-4.97702 4.26863   1
  -2   3   4 27.9107 5.07300   1
  -2   3   4 28.4807 3.29832   2
   2  -3  -4 25.1324 3.17010   2
   2  -3  -4 25.5067 5.12268   1
  -2   3   3 9.30110 2.38742   2
   2  -3  -3 7.51501 3.54876   1
  -2   3   3 10.2651 3.80898   1
   2  -3  -3 7.09968 2.34439   2
  -2   3   2 61.5514 4.11778   2
   2  -3  -2 58.1167 4.04293   2
   2  -3  -2 55.0005 5.52101   1
  -2   3   2 54.5006 5.20842   1
  -2   3   1 50.3806 3.88037   2
  -2   3   1 55.4715 4.94742   1
   2  -3  -1 56.0489 4.09106   2
   2  -3  -1 52.7618 5.01437   1
   2  -3   0 27.9112 3.35547   2
  -2   3   0 34.1750 3.45046   2
   2  -3   0 24.1520 3.56989   1
  -2   3   0 27.8641 3.58694   1
   2  -3   1 48.7051 4.26236   2
  -2   3  -1 47.9414 4.25367   2
   2  -3   1 50.9313 4.08350   1
  -2   3  -1 47.3638 3.83548   1
   2  -3   2 45.7629 4.49072   2
  -2   3  -2 43.4285 4.27464   2
   2  -3   2 41.5039 3.37397   1
  -2   3  -2 40.2819 3.20006   1
  -2   3  -3 233.639 5.80601   1
   2  -3   3 240.713 9.43849   2
  -2   3  -3 239.209 9.33192   2
  -2   3  -4 791.450 7.80307   1
  -2   3  -4 736.683 7.37460   1
  -2   3  -4 816.517 17.7284   2
  -2   3  -5 13.4353 4.00862   2
  -2   3  -6 4.00545 3.87740   2
  -2   3  -7 242.074 11.8547   2
  -2   3  -8 4.28313 4.68581   2
  -2   3  -9 30.3788 6.45339   2
  -2   3 -10 97.2860 9.85740   2
  -2   3 -11 26.6924 7.87770   2
  -2   3 -12-1.48212 7.55749   2
  -2   3 -13-1.62303 9.04022   2
  -2   3 -14 87.3424 14.0791   2
  -2   3 -15 14.8917 13.9596   2
   2  -2 -14 29.1270 8.68500   2
   2  -2 -14 31.5251 8.77654   2
  -2   2  14 26.9931 13.4254   1
   2  -2 -14 38.3827 13.7851   1
  -2   2  13 47.1292 12.1432   1
   2  -2 -13 82.0855 9.40683   2
   2  -2 -13 83.1625 9.05996   2
   2  -2 -13 67.4964 13.1148   1
   2  -2 -12-6.90406 9.45409   1
   2  -2 -12 12.6627 5.54424   2
  -2   2  12 4.27481 8.43247   1
   2  -2 -11 13.5440 4.88573   2
  -2   2  11 3.41186 7.34296   1
   2  -2 -11 7.72609 7.99223   1
  -2   2  10 116.921 11.1603   1
   2  -2 -10 117.876 7.53726   2
   2  -2 -10 112.865 11.4206   1
   2  -2  -9 171.461 8.00742   2
   2  -2  -9 157.588 12.0337   1
  -2   2   9 154.240 11.6676   1
   2  -2  -8 18.0169 5.81156   1
  -2   2   8 16.4088 5.63490   1
   2  -2  -8 14.4082 3.15808   2
   2  -2  -7 21.2096 3.10608   2
  -2   2   7 19.4908 5.63846   1
   2  -2  -7 21.7995 5.44874   1
   2  -2  -6 4.51405 4.38086   1
   2  -2  -6 7.67961 2.22229   2
  -2   2   6 6.87937 3.97166   1
   2  -2  -5 201.437 6.00499   2
   2  -2  -5 230.529 10.8932   1
  -2   2   5 208.236 10.3056   1
  -2   2   4 13.3699 4.08184   1
   2  -2  -4 14.5848 2.07301   2
   2  -2  -4 16.1380 4.07035   1
  -2   2   3 8.31196 1.71504   2
  -2   2   3 7.52210 3.03215   1
   2  -2  -3 8.78944 3.16951   1
   2  -2  -3 8.35110 1.74123   2
  -2   2   2 34.1939 2.63693   2
   2  -2  -2 36.1723 4.32686   1
  -2   2   2 44.3657 4.59352   1
   2  -2  -2 41.8801 2.84906   2
  -2   2   1 796.345 11.4532   2
   2  -2  -1 796.942 11.5173   2
   2  -2  -1 829.503 15.5703   1
  -2   2   1 794.563 14.9670   1
   2  -2   0 82.3431 4.31833   2
  -2   2   0 84.9823 4.35727   2
   2  -2   0 81.0874 4.91627   1
  -2   2   0 87.8658 4.93987   1
  -2   2  -1 385.107 9.51031   2
   2  -2   1 373.154 9.44517   2
   2  -2   1 373.761 8.96564   1
  -2   2  -1 371.449 8.71139   1
  -2   2  -2 5.41384 1.70673   1
  -2   2  -2 5.38761 1.68222   1
  -2   2  -2 5.92673 2.62429   2
  -2   2  -3 60.7081 4.90372   2
  -2   2  -3 58.7862 2.86366   1
  -2   2  -3 61.1875 3.00238   1
  -2   2  -4 363.251 11.6773   2
  -2   2  -4 358.293 5.31347   1
  -2   2  -4 329.395 5.31230   1
  -2   2  -5 6.02650 3.35499   2
  -2   2  -6 4.35288 3.63375   2
  -2   2  -7 4.53607 4.13300   2
  -2   2  -8 361.051 14.9626   2
  -2   2  -9 11.1652 5.36799   2
   2  -2  10 0.13028 0.88562   1
  -2   2 -10-1.81239 5.81028   2
  -2   2 -11 230.764 14.8866   2
   2  -2  11 68.5316 2.67356   1
  -2   2 -12 98.6057 12.0406   2
  -2   2 -13 18.7769 9.73131   2
  -2   2 -14 68.8749 13.2001   2
   2  -1 -15 0.12701 6.90464   2
   2  -1 -15-0.55709 7.00432   2
  -2   1  15 2.07094 11.4077   1
   2  -1 -15 6.93886 11.6790   1
   2  -1 -14 5.88631 6.86419   2
  -2   1  14 12.5388 11.0294   1
   2  -1 -14-3.03172 6.78493   2
   2  -1 -14 3.78140 11.1358   1
   2  -1 -13 17.7358 5.91999   2
  -2   1  13-5.24612 9.33360   1
   2  -1 -13 1.81261 5.63628   2
   2  -1 -13 7.21188 9.41635   1
   2  -1 -12 260.974 11.2519   2
   2  -1 -12 271.460 11.5814   2
  -2   1  12 242.023 15.6701   1
   2  -1 -12 281.910 17.4332   1
  -2   1  11 10.2239 6.79437   1
   2  -1 -11 10.1306 4.14377   2
   2  -1 -11 11.3792 4.23031   2
   2  -1 -11 3.89721 6.52624   1
  -2   1  10 29.1605 7.00554   1
   2  -1 -10 25.6801 6.71857   1
   2  -1 -10 26.9236 4.19396   2
   2  -1 -10 33.7151 4.60171   2
   2  -1  -9 234.094 8.20569   2
   2  -1  -9 250.753 13.5300   1
  -2   1   9 227.001 12.8027   1
   2  -1  -8 142.094 5.88342   2
   2  -1  -8 153.787 10.2345   1
  -2   1   8 139.757 9.82595   1
   2  -1  -7 169.494 10.2044   1
   2  -1  -7 159.394 5.39245   2
  -2   1   7 158.153 9.71360   1
   2  -1  -6 316.367 6.28782   2
   2  -1  -6 336.017 13.1900   1
  -2   1   6 330.165 12.7783   1
   2  -1  -5 211.031 4.18593   2
   2  -1  -5 223.237 10.2412   1
  -2   1   5 213.118 9.89997   1
   2  -1  -4 84.1203 2.10153   2
   2  -1  -4 78.0041 6.25374   1
  -2   1   4 85.4817 6.32593   1
  -2   1   3 90.0020 2.17730   2
   2  -1  -3 92.1828 2.20581   2
   2  -1  -3 95.7496 6.31355   1
  -2   1   3 91.1960 6.15165   1
  -2   1   2 227.410 8.47526   1
  -2   1   2 221.686 4.32310   2
   2  -1  -2 228.165 8.64450   1
  -2   1   1 2.18371 2.20019   1
  -2   1   1 4.81591 1.42549   2
  -2   1   0 225.863 6.23860   2
  -2   1   0 231.304 7.44647   1
  -2   1   0 224.604 7.06429   1
  -2   1  -1 17.4590 2.62944   2
  -2   1  -1 18.5771 2.40659   1
  -2   1  -1 16.0471 2.46430   1
  -2   1  -2 2.93934 2.31533   2
  -2   1  -2-0.58994 1.50423   1
   2  -1   3 155.595 4.88717   1
  -2   1  -3 161.177 4.97369   1
  -2   1  -4 944.495 11.4369   1
   2  -1   4 951.469 11.4467   1
  -2   1  -5 112.951 4.27410   1
   2  -1   5 115.960 4.30228   1
  -2   1  -6 87.5452 3.96449   1
   2  -1   6 83.3045 3.87380   1
   2  -1   7 31.1212 2.88831   1
  -2   1  -7 28.1387 2.83873   1
   2  -1   8 121.580 5.30833   1
  -2   1  -8 142.469 10.0982   2
  -2   1  -8 129.426 5.41684   1
  -2   1  -9 30.8729 6.54765   2
  -2   1  -9 24.2207 3.30058   1
   2  -1   9 23.5086 3.27199   1
  -2   1 -10 146.409 11.7211   2
  -2   1 -10 141.804 6.66462   1
   2  -1  10 130.104 6.27068   1
   2  -1  11 4.15857 3.16407   1
  -2   1 -11-0.72608 6.90747   2
  -2   1 -11 2.21286 3.37814   1
  -2   1 -12 3.76541 4.02041   1
   2  -1  12 3.64257 3.71601   1
  -2   1 -12-6.67110 8.30058   2
   2  -1  13 9.09715 4.69091   1
  -2   1 -13 9.59012 10.2818   2
  -2   1 -13 4.96950 4.45258   1
   2  -1  14-3.39919 4.55559   1
  -2   1 -14 22.4759 11.4910   2
  -2   0  15 11.0953 11.6016   1
   2   0 -15-2.16366 7.27994   2
   2   0 -15-4.56078 7.21934   2
  -2   0  15-8.37936 11.7058   1
   2   0 -14-2.80208 5.92295   2
  -2   0  14-4.45509 9.53717   1
   2   0 -14 3.97538 6.08456   2
   2   0 -13 12.5674 5.21852   2
  -2   0  13-4.36123 7.95077   1
   2   0 -13 7.30313 5.08392   2
   2   0 -13 3.40349 8.64431   1
   2   0 -12 3.96546 4.21167   2
  -2   0  12 6.12532 6.58170   1
   2   0 -12 3.23968 4.10141   2
   2   0 -12 3.06331 7.11709   1
   2   0 -11 43.6899 4.96931   2
   2   0 -11 56.5470 8.46982   1
   2   0 -11 50.8679 5.35920   2
  -2   0  11 48.8032 8.18889   1
   2   0 -10 35.7561 4.24964   2
  -2   0  10 28.0253 6.55657   1
   2   0 -10 35.7374 7.04497   1
   2   0 -10 30.6628 4.09008   2
   2   0  -9-0.47075 2.28047   2
  -2   0   9 6.53056 4.79608   1
   2   0  -9 0.34071 2.33919   2
   2   0  -9 3.09759 4.92281   1
   2   0  -8 105.315 4.62251   2
   2   0  -8 102.867 4.58035   2
   2   0  -8 102.046 8.56649   1
  -2   0   8 97.0026 8.16778   1
   2   0  -7 696.512 9.34538   2
   2   0  -7 693.379 18.8390   1
  -2   0   7 711.150 18.7208   1
   2   0  -7 674.605 9.12403   2
  -2   0   6 3.30300 3.58026   1
   2   0  -6 3.21434 0.85029   2
   2   0  -6 3.97021 0.88671   2
   2   0  -6 3.14643 3.56142   1
   2   0  -5 786.830 18.0598   1
  -2   0   5 777.433 17.7031   1
  -2   0   4 2.41358 3.07228   1
  -2   0   4 0.50481 2.37679   1
  -2   0   3 3.64287 2.34048   1
  -2   0   3 8.33527 3.06076   1
  -2   0   2 198.952 3.74274   2
  -2   0   2 206.597 7.73933   1
  -2   0   2 203.009 8.00996   1
  -2   0   1 61.0277 4.48099   1
  -2   0   1 65.3048 4.45355   1
   2   0   0 1535.52 18.4085   1
  -2   0   0 1585.52 18.8239   1
  -2   0  -1 1364.42 16.8266   1
   2   0   1 1368.44 16.8034   1
   2   0   2 88.7054 4.54327   1
  -2   0  -2 93.0671 4.63884   1
   2   0   3 256.586 7.40280   1
  -2   0  -3 251.958 7.32299   1
   2   0   4 387.721 9.19858   1
  -2   0  -4 367.965 8.99342   1
   2   0   5 4.52175 2.27245   1
  -2   0  -5-1.08244 2.02984   1
  -2   0  -6 60.4777 4.51870   1
   2   0   6 59.5822 4.48416   1
   2   0   7 27.3876 3.64450   1
  -2   0  -7 26.3690 3.69617   1
  -2   0  -8 0.81466 2.89525   1
   2   0   8 1.76357 2.82622   1
   2   0   9 25.7036 4.23421   1
  -2   0  -9 21.6114 4.22313   1
   2   0  10 258.896 10.4674   1
  -2   0 -10 266.657 10.6058   1
  -2   0 -11 22.1159 5.18305   1
   2   0  11 14.5452 4.98446   1
  -2   0 -12 7.90527 5.49253   1
  -2   0 -12 10.7708 8.88005   2
   2   0  12 4.47110 5.33161   1
  -2   0 -13-6.25319 6.12514   1
  -2   0 -13-13.2956 10.1124   2
   2   0  13-0.77455 6.04436   1
   2   0  14-2.04924 7.12698   1
  -2   0 -14 7.27734 7.78502   1
  -2   0 -14 3.09343 12.2230   2
  -2  -1  15 101.294 13.4822   1
   2   1 -15 77.1441 8.93361   2
  -2  -1  15 65.2448 11.9417   1
   2   1 -15 83.1353 9.25185   2
   2   1 -14 98.6983 8.82259   2
  -2  -1  14 85.8037 11.6671   1
  -2  -1  14 83.5023 11.1429   1
   2   1 -14 88.6743 8.38695   2
  -2  -1  13 34.2892 8.82534   1
   2   1 -13 49.3951 6.46892   2
  -2  -1  13 37.6054 8.95949   1
   2   1 -12 47.6393 5.55662   2
  -2  -1  12 41.5076 8.03484   1
  -2  -1  12 39.2822 8.06366   1
  -2  -1  11-2.94312 5.48099   1
   2   1 -11 4.68580 3.30522   2
   2   1 -10 38.2724 4.09391   2
  -2  -1  10 39.0995 6.52573   1
  -2  -1  10 36.3579 6.52401   1
   2   1  -9 124.459 5.59644   2
  -2  -1   9 121.065 8.93350   1
  -2  -1   9 120.821 9.10273   1
  -2  -1   8 6.82007 4.01797   1
  -2  -1   8 3.83054 4.21758   1
   2   1  -8 5.09685 1.97972   2
  -2  -1   7 412.624 13.7365   1
  -2  -1   7 420.689 14.3202   1
   2   1  -7 430.629 7.45366   2
   2   1  -6 249.681 4.69659   2
  -2  -1   6 235.275 10.0908   1
  -2  -1   6 238.647 10.5392   1
  -2  -1   5 236.029 9.62372   1
   2   1  -5 232.551 3.60949   2
  -2  -1   5 219.344 9.68536   1
  -2  -1   4 3.01417 2.87970   1
  -2  -1   4 12.8971 1.03098   2
  -2  -1   4 6.91685 2.87091   1
  -2  -1   3 318.962 5.23768   2
  -2  -1   3 317.068 10.0170   1
  -2  -1   2 313.705 6.30733   2
   2   1  -2 320.606 9.76489   1
  -2  -1   2 319.271 9.75087   1
  -2  -1   1 1392.07 19.2180   1
   2   1  -1 1316.67 18.7758   1
  -2  -1   1 1320.46 14.8236   2
  -2  -1   0 128.619 6.06890   1
   2   1   0 124.474 6.03735   1
   2   1   1 1173.26 17.3948   1
  -2  -1  -1 1182.40 17.3548   1
   2   1   2 30.4576 3.52962   1
  -2  -1  -2 31.4699 3.55965   1
   2   1   3 68.3767 4.81625   1
  -2  -1  -3 69.5444 4.82067   1
   2   1   4 205.960 8.10205   1
  -2  -1  -4 194.671 7.86975   1
   2   1   5 5.05485 3.00168   1
  -2  -1  -5 7.38541 2.99723   1
  -2  -1  -6 131.728 7.25595   1
   2   1   6 144.493 7.58272   1
  -2  -1  -7 275.917 10.5520   1
   2   1   7 261.938 10.3451   1
  -2  -1  -8 744.022 17.7915   1
   2   1   8 760.979 18.0006   1
   2   1   9 25.2425 5.08341   1
  -2  -1  -9 30.0043 5.38464   1
  -2  -1 -10 3.80980 4.98921   1
   2   1  10-5.44884 4.98758   1
  -2  -1 -11 34.4347 6.84191   1
   2   1  11 25.5811 6.62164   1
  -2  -1 -12 13.2501 6.98643   1
   2   1  12 20.5238 7.48866   1
  -2  -1 -13-0.04680 8.10632   1
   2   1  13-0.68586 7.50228   1
  -2  -2  16 54.0503 12.9207   1
   2   2 -16 83.3838 10.4077   2
  -2  -2  16 63.9493 13.2791   1
   2   2 -15 42.9522 8.33308   2
  -2  -2  15 39.5769 10.8588   1
  -2  -2  15 28.7060 9.88593   1
  -2  -2  14 2.12374 7.47735   1
  -2  -2  14 4.57227 7.70592   1
   2   2 -14 11.0730 5.83929   2
  -2  -2  13 20.4622 7.73833   1
  -2  -2  13 0.31822 6.49656   1
   2   2 -13 10.0365 5.11520   2
  -2  -2  12-0.04888 5.53719   1
   2   2 -12 1.01133 3.78066   2
  -2  -2  12-1.36705 5.86114   1
  -2  -2  11 95.8339 8.82004   1
   2   2 -11 90.9997 6.27292   2
  -2  -2  11 96.9963 9.32311   1
  -2  -2  10 233.103 12.0018   1
   2   2 -10 233.905 8.52095   2
  -2  -2  10 230.747 12.4231   1
  -2  -2   9 306.803 12.9178   1
   2   2  -9 271.935 8.35419   2
  -2  -2   9 288.090 13.1332   1
   2   2  -8 294.522 7.91804   2
  -2  -2   8 303.750 12.7458   1
  -2  -2   8 300.993 12.3260   1
   2   2  -7 257.344 6.87537   2
  -2  -2   7 257.997 11.3289   1
  -2  -2   7 245.601 10.7134   1
  -2  -2   6 454.811 8.37785   2
   2   2  -6 458.582 8.42857   2
  -2  -2   6 467.131 14.4859   1
  -2  -2   6 435.429 13.4491   1
   2   2  -5 122.119 4.37970   2
  -2  -2   5 120.304 7.24032   1
  -2  -2   5 113.590 4.23638   2
  -2  -2   5 121.344 7.62276   1
   2   2  -4 121.556 4.47732   2
   2   2  -4 115.798 6.86553   1
  -2  -2   4 122.096 4.45768   2
  -2  -2   4 127.026 7.13935   1
   2   2  -3 5.19939 2.70341   1
   2   2  -3 7.31348 1.92835   2
  -2  -2   3 3.42821 1.69078   2
  -2  -2   3 8.69588 3.05966   1
  -2  -2   2 174.677 6.06001   2
  -2  -2   2 175.089 7.80227   1
   2   2  -2 169.468 7.76726   1
  -2  -2   1 43.3277 3.63180   2
  -2  -2   1 44.2491 4.40420   1
   2   2  -1 43.4066 4.30449   1
  -2  -2   0 119.731 6.04565   2
   2   2   0 120.350 6.49316   1
  -2  -2   0 117.482 6.47030   1
   2   2   1 364.061 11.0767   1
  -2  -2  -1 365.558 10.9762   1
  -2  -2  -1 378.177 11.1218   2
   2   2   2 23.4601 3.76109   1
  -2  -2  -2 19.4094 3.82409   2
  -2  -2  -2 18.8141 3.60095   1
  -2  -2  -3 7.33199 3.10077   1
   2   2   3 7.04746 3.13556   1
  -2  -2  -4 37.3638 4.75597   1
   2   2   4 39.2045 4.86641   1
  -2  -2  -5 231.815 10.2015   1
   2   2   5 218.052 9.90765   1
  -2  -2  -6 247.399 10.9356   1
   2   2   6 247.042 10.9749   1
  -2  -2  -7 72.3008 6.90308   1
   2   2   7 66.7557 6.77168   1
  -2  -2  -8-2.76659 4.50593   1
   2   2   8-1.18139 4.47411   1
  -2  -2  -9 11.8596 5.82189   1
   2   2   9 13.3105 5.61905   1
  -2  -2 -10-7.40063 8.26467   2
  -2  -2 -10 5.75068 5.64104   1
   2   2  10 3.15015 5.83663   1
  -2  -2 -11 17.4923 9.13505   2
  -2  -2 -11-5.65157 7.58973   1
   2   2  11 1.94096 7.09412   1
  -2  -2 -12 8.81826 8.23886   1
  -2  -2 -12 1.33118 10.4202   2
   2   2  12 10.6247 7.77293   1
  -2  -2 -13 2.44408 9.24682   1
   2   2  13 4.55280 9.89112   1
  -2  -3  16-0.19452 10.2546   1
   2   3 -16-4.31263 8.16891   2
  -2  -3  16-6.13654 11.8054   1
  -2  -3  15 5.05000 8.33898   1
  -2  -3  15 20.2267 9.54603   1
   2   3 -15 1.17685 6.68682   2
  -2  -3  14-3.18572 7.52495   1
   2   3 -14 2.03808 5.50144   2
   2   3 -13 47.8612 6.72092   2
  -2  -3  13 47.5543 8.52441   1
  -2  -3  13 41.1087 8.52629   1
   2   3 -12 22.5928 4.80699   2
  -2  -3  12 26.0954 6.88157   1
  -2  -3  12 21.9559 7.06506   1
   2   3 -11 122.529 7.38836   2
  -2  -3  11 122.161 9.71803   1
  -2  -3  11 128.608 10.3502   1
  -2  -3  10 14.6924 5.23309   1
   2   3 -10 9.57734 3.55733   2
  -2  -3  10 10.8032 4.81496   1
   2   3  -9 119.530 6.37604   2
  -2  -3   9 110.923 8.37438   1
  -2  -3   9 114.695 8.79748   1
   2   3  -8 207.541 7.71610   2
  -2  -3   8 205.514 7.69130   2
  -2  -3   8 213.418 10.6453   1
  -2  -3   8 209.511 10.9725   1
  -2  -3   7-5.08442 3.45567   1
   2   3  -7 3.92753 2.41216   2
  -2  -3   7 3.79001 2.40799   2
  -2  -3   7-2.27095 3.55963   1
   2   3  -6 1.07657 2.09061   2
  -2  -3   6 3.70503 3.28472   1
  -2  -3   6 0.80704 2.08792   2
   2   3  -6 6.64995 3.62306   1
   2   3  -5 668.629 12.3617   2
  -2  -3   5 662.466 12.3394   2
  -2  -3   5 684.223 16.5565   1
   2   3  -5 665.929 16.4530   1
  -2  -3   4 38.1885 3.61478   2
  -2  -3   4 39.3295 4.69199   1
   2   3  -4 45.0071 3.79464   2
   2   3  -4 46.0413 5.03319   1
  -2  -3   3 1606.55 24.4154   1
  -2  -3   3 1474.92 19.2729   2
   2   3  -3 1600.68 24.4228   1
   2   3  -3 1549.29 19.7127   2
   2   3  -2 128.706 6.34948   2
  -2  -3   2 125.233 6.18715   2
   2   3  -2 127.566 7.42006   1
  -2  -3   2 119.102 7.17203   1
  -2  -3   1 92.0184 5.75657   2
   2   3  -1 104.709 6.81846   1
  -2  -3   1 102.060 6.72986   1
  -2  -3   0 251.591 9.57387   2
   2   3   0 249.884 10.1698   1
  -2  -3   0 246.764 10.0183   1
  -2  -3  -1 0.91588 2.95781   2
   2   3   1 1.67242 3.21160   1
  -2  -3  -1-0.23547 2.94453   1
  -2  -3  -2 3.13982 3.38306   2
  -2  -3  -2 5.62969 3.34308   1
   2   3   2 4.12798 3.30437   1
  -2  -3  -3 50.0831 5.94658   2
  -2  -3  -3 47.8861 5.55508   1
   2   3   3 43.3232 5.58140   1
  -2  -3  -4 82.6365 7.60169   2
  -2  -3  -4 94.8591 7.54889   1
   2   3   4 93.4929 7.48107   1
  -2  -3  -5 51.0819 6.88329   2
  -2  -3  -5 39.6270 5.96031   1
   2   3   5 39.6284 5.96539   1
  -2  -3  -6 154.355 10.9865   2
  -2  -3  -6 151.567 9.90818   1
   2   3   6 157.092 10.1831   1
  -2  -3  -7-7.76931 6.20047   2
  -2  -3  -7 2.22450 4.81904   1
   2   3   7 0.40017 4.96701   1
  -2  -3  -8 5.42119 6.95551   2
  -2  -3  -8-6.59218 5.55620   1
   2   3   8-2.83720 5.50945   1
  -2  -3  -9 58.0370 8.48368   1
   2   3   9 52.9158 8.74698   1
  -2  -3 -10-5.24201 8.85687   2
  -2  -3 -10 1.31307 7.56190   1
   2   3  10-1.71728 7.62269   1
  -2  -3 -11-9.90861 10.1740   2
  -2  -3 -11 6.16810 9.08656   1
   2   3  11 9.22282 8.51506   1
  -2  -3 -12 4.44437 11.1866   1
  -2  -3 -12 35.9760 14.3129   2
   2   3  12 16.6888 10.9866   1
   2   4 -16 48.3943 10.0139   2
  -2  -4  16 71.4378 12.4309   1
  -2  -4  16 41.2490 11.9397   1
  -2  -4  15 26.1902 9.64511   1
   2   4 -15 40.6152 8.22385   2
  -2  -4  14 14.4553 7.72624   1
   2   4 -14 24.5310 6.43798   2
  -2  -4  14 28.4738 8.44079   1
   2   4 -13 41.5297 6.79689   2
  -2  -4  13 52.2145 8.64555   1
  -2  -4  13 38.5403 8.30824   1
   2   4 -12 48.7206 6.30722   2
  -2  -4  12 61.8654 8.04851   1
  -2  -4  12 57.5649 8.59447   1
  -2  -4  11 17.2195 6.04966   1
   2   4 -11 16.4847 4.47870   2
  -2  -4  11 12.1390 6.01694   1
  -2  -4  10 17.7979 5.36423   1
  -2  -4  10 20.2055 5.72339   1
   2   4 -10 14.5370 4.08421   2
  -2  -4   9 25.1016 4.32671   2
  -2  -4   9 29.8695 5.57786   1
   2   4  -9 21.0797 4.05286   2
  -2  -4   9 30.8401 6.08854   1
   2   4  -8 18.3576 3.75450   2
  -2  -4   8 21.9748 3.83728   2
  -2  -4   8 21.7015 5.05869   1
  -2  -4   8 20.8018 5.10773   1
  -2  -4   7 54.1607 4.87126   2
  -2  -4   7 49.2268 6.03981   1
   2   4  -7 55.4389 4.90183   2
   2   4  -7 57.0505 6.29584   1
   2   4  -6 590.486 16.6339   1
  -2  -4   6 573.739 13.5328   2
  -2  -4   6 561.658 16.2103   1
   2   4  -6 578.059 13.5193   2
   2   4  -5 32.1606 4.00349   2
  -2  -4   5 32.5150 5.14071   1
  -2  -4   5 34.3382 4.12227   2
   2   4  -5 47.7524 5.57697   1
  -2  -4   4 113.205 7.71140   1
   2   4  -4 123.712 6.79565   2
  -2  -4   4 121.537 6.74719   2
   2   4  -4 132.544 8.17545   1
   2   4  -3 84.8124 5.97044   2
   2   4  -3 84.8968 6.84432   1
  -2  -4   3 86.7125 6.03539   2
  -2  -4   3 81.9699 6.73037   1
  -2  -4   2 73.1742 5.78293   2
   2   4  -2 79.5859 6.65214   1
   2   4  -2 79.1800 6.01474   2
  -2  -4   2 73.2120 6.40859   1
   2   4  -1 1.11044 2.90651   2
  -2  -4   1 8.63558 3.46767   2
  -2  -4   1-0.52687 3.32263   1
   2   4  -1 5.65650 3.79247   1
   2   4   0 144.088 8.85719   1
  -2  -4   0 160.011 8.73439   2
  -2  -4   0 149.544 8.84111   1
   2   4   1 86.5366 7.38249   1
  -2  -4  -1 90.9093 7.16447   2
  -2  -4  -1 85.0658 7.24378   1
  -2  -4  -2 242.816 11.5550   2
  -2  -4  -2 241.144 11.5549   1
   2   4   2 236.214 11.4535   1
  -2  -4  -3 32.8001 5.81414   2
  -2  -4  -3 32.6822 5.69529   1
   2   4   3 36.4863 5.91613   1
  -2  -4  -4 589.550 19.3584   2
  -2  -4  -4 596.029 18.8212   1
   2   4   4 543.719 18.0227   1
  -2  -4  -5 13.9392 5.77579   2
  -2  -4  -5 10.2126 5.64726   1
   2   4   5 8.96827 5.20546   1
  -2  -4  -6 11.0223 6.20374   2
  -2  -4  -6 17.5611 6.02905   1
   2   4   6 16.0612 5.98198   1
  -2  -4  -7 9.12283 6.86131   2
  -2  -4  -7 13.3773 6.38172   1
   2   4   7 6.88042 6.50085   1
  -2  -4  -8-6.18410 7.55687   2
  -2  -4  -8-11.3294 7.23017   1
   2   4   8 5.32908 6.96567   1
  -2  -4  -9 45.6630 9.62279   1
   2   4   9 49.1335 9.52419   1
  -2  -4 -10 16.8530 9.56564   1
   2   4  10 30.3795 10.5315   1
  -2  -4 -11 0.89477 11.0929   1
  -2  -4 -11 26.9998 13.6469   2
   2   4  11 23.9322 11.2299   1
   2   5 -16 68.6633 11.2639   2
  -2  -5  16 71.8199 12.2162   1
  -2  -5  15 37.6099 9.64363   1
  -2  -5  15 39.5027 9.62688   1
   2   5 -15 47.9919 9.28082   2
  -2  -5  14 0.05558 7.71024   1
   2   5 -14 7.13214 6.60665   2
  -2  -5  14 8.18499 7.88989   1
  -2  -5  13 6.83235 7.21739   1
   2   5 -13 0.32874 5.83637   2
  -2  -5  13 6.14038 6.34890   1
  -2  -5  12 1.27682 6.02894   1
   2   5 -12 8.37790 5.11398   2
  -2  -5  12-4.86648 6.34419   1
   2   5 -11-0.03588 4.66599   2
  -2  -5  11 0.13594 5.07510   1
  -2  -5  11 2.27912 5.61219   1
   2   5 -10 6.93957 4.58889   2
  -2  -5  10 13.3315 5.31124   1
  -2  -5  10 7.74532 4.62465   2
  -2  -5  10 6.66291 5.51039   1
   2   5  -9 2.35270 3.77007   2
  -2  -5   9 3.69241 4.56374   1
  -2  -5   9 1.09718 3.80129   2
  -2  -5   9 3.69236 4.85137   1
   2   5  -8-2.68161 3.56876   2
  -2  -5   8 3.14683 4.33029   1
  -2  -5   8-0.68382 3.54783   2
   2   5  -8-1.56362 3.96640   1
  -2  -5   7 330.644 13.5288   1
   2   5  -7 312.003 13.1966   1
   2   5  -7 307.438 11.5428   2
  -2  -5   7 307.682 11.6104   2
  -2  -5   6 41.9480 5.33962   2
   2   5  -6 35.1620 4.98248   2
   2   5  -6 46.7496 6.15146   1
  -2  -5   6 44.6284 6.05876   1
   2   5  -5 65.2651 5.90691   2
  -2  -5   5 69.2473 6.26983   2
   2   5  -5 69.9468 6.99371   1
  -2  -5   5 54.6231 6.44653   1
   2   5  -4 1.70794 4.13223   1
   2   5  -4 1.14436 3.46788   2
  -2  -5   4 6.93411 3.34917   2
  -2  -5   4 5.52822 3.81256   1
  -2  -5   3 30.9001 4.91919   2
   2   5  -3 30.3550 4.87725   2
   2   5  -3 30.3067 5.21498   1
  -2  -5   3 24.2882 5.24395   1
  -2  -5   2 357.362 13.0468   2
   2   5  -2 364.914 14.1726   1
  -2  -5   2 351.860 13.9061   1
   2   5  -2 347.707 12.9669   2
  -2  -5   1 43.4716 5.72566   2
   2   5  -1 40.9140 5.91575   1
   2   5  -1 44.5676 5.84313   2
  -2  -5   1 48.3525 6.34940   1
  -2  -5   0 8.75272 4.66780   1
   2   5   0 6.89756 4.39695   1
  -2  -5   0 14.8233 4.76982   2
  -2  -5  -1 147.450 9.69754   2
  -2  -5  -1 147.666 9.97318   1
   2   5   1 142.742 9.95852   1
  -2  -5  -2 0.45236 4.34482   1
   2   5   2 0.09099 4.35734   1
  -2  -5  -2-1.81848 4.57924   2
  -2  -5  -3 7.53710 5.20714   2
  -2  -5  -3 8.54045 5.27420   1
   2   5   3 11.9981 5.54863   1
  -2  -5  -4 14.8371 6.26328   2
  -2  -5  -4 16.7163 6.04064   1
   2   5   4 9.99031 5.68061   1
  -2  -5  -5 1.46861 6.24923   2
  -2  -5  -5 1.02527 5.84854   1
   2   5   5-4.08405 6.08076   1
  -2  -5  -6 5.81739 6.72981   2
  -2  -5  -6 7.84692 6.62170   1
   2   5   6 7.37258 6.91530   1
  -2  -5  -7 14.4850 8.54785   2
  -2  -5  -7 21.0500 8.00167   1
   2   5   7 15.5294 8.09487   1
  -2  -5  -8 91.9618 12.0807   1
  -2  -5  -8 85.5069 12.2527   2
   2   5   8 100.699 12.1318   1
  -2  -5  -9 88.2942 13.2778   1
  -2  -5  -9 97.7934 14.4204   2
   2   5   9 134.656 14.8296   1
  -2  -5 -10 12.3145 11.6088   1
   2   5  10 37.9700 12.8868   1
  -2  -6  15 2.92165 9.98661   1
  -2  -6  15 10.4857 8.90046   1
   2   6 -15 10.1641 8.73433   2
  -2  -6  14 4.32291 8.32503   1
  -2  -6  14 8.33447 8.21763   1
   2   6 -14-5.72918 8.12276   2
  -2  -6  13 8.50683 7.51288   1
  -2  -6  13 11.3137 7.34705   1
   2   6 -13 10.2274 6.99159   2
  -2  -6  12 9.91241 6.37480   1
   2   6 -12 1.14188 5.93092   2
  -2  -6  12 7.67007 6.01809   2
  -2  -6  12 4.82730 6.78168   1
  -2  -6  11 13.3567 6.10339   1
  -2  -6  11 8.40478 5.82898   2
   2   6 -11-0.71286 5.20967   2
  -2  -6  11 0.20603 6.17169   1
  -2  -6  10 48.9022 7.26859   1
   2   6 -10 48.6123 6.80033   2
  -2  -6  10 51.6693 6.99549   2
  -2  -6  10 53.9752 8.16594   1
  -2  -6   9 10.7224 5.16094   1
   2   6  -9 4.80293 4.55697   2
  -2  -6   9 19.3328 5.57087   2
   2   6  -9 18.2440 5.68563   1
   2   6  -8 36.7745 6.51652   1
   2   6  -8 28.3199 5.50120   2
  -2  -6   8 19.9903 5.46400   2
  -2  -6   8 31.1127 5.85593   1
   2   6  -7 93.7432 7.90180   2
  -2  -6   7 101.348 8.13438   2
  -2  -6   7 99.3583 8.60182   1
   2   6  -7 106.494 9.02313   1
   2   6  -6 4.39485 4.80347   1
  -2  -6   6 13.0833 4.60173   2
  -2  -6   6 6.37721 4.88497   1
   2   6  -6 1.62241 4.12472   2
   2   6  -5 77.7078 7.30523   2
  -2  -6   5 83.0350 7.53050   2
   2   6  -5 76.2759 7.81821   1
  -2  -6   5 89.4899 8.04079   1
  -2  -6   4 74.7403 7.22226   2
   2   6  -4 72.6428 7.83116   1
   2   6  -4 73.2395 7.15642   2
  -2  -6   4 79.2177 7.81657   1
   2   6  -3 198.695 10.8933   2
  -2  -6   3 201.144 10.9757   2
   2   6  -3 200.836 11.7363   1
  -2  -6   3 206.812 11.5717   1
   2   6  -2 276.819 12.9922   2
  -2  -6   2 258.076 12.5664   2
   2   6  -2 259.381 13.3426   1
  -2  -6   2 258.513 13.1201   1
   2   6  -1 229.621 12.2564   2
   2   6  -1 231.806 13.0527   1
  -2  -6   1 221.441 12.0405   2
  -2  -6   1 237.383 12.8581   1
   2   6   0 393.382 16.5595   1
   2   6   0 429.478 16.7123   2
  -2  -6   0 418.609 16.5483   2
  -2  -6   0 401.626 16.6362   1
  -2  -6  -1 16.1198 6.11311   1
   2   6   1 20.0891 6.16962   1
  -2  -6  -1 19.3605 5.98226   2
  -2  -6  -2 44.5898 7.55469   2
  -2  -6  -2 51.4081 8.17941   1
   2   6   2 46.0110 7.85144   1
  -2  -6  -3-0.77699 6.11697   2
  -2  -6  -3-4.91844 6.81924   1
   2   6   3 6.30380 5.76695   1
  -2  -6  -4 8.34373 6.87214   2
  -2  -6  -4 8.91865 6.57629   1
   2   6   4 8.28786 7.23005   1
  -2  -6  -5 67.2970 10.1679   2
  -2  -6  -5 56.1817 9.91507   1
   2   6   5 54.5269 9.94553   1
  -2  -6  -6 134.484 13.7095   2
  -2  -6  -6 115.363 12.4467   1
   2   6   6 120.149 13.0235   1
  -2  -6  -7-3.27575 9.84052   2
  -2  -6  -7-16.5009 9.88963   1
   2   6   7-7.30762 10.3489   1
  -2  -6  -8 188.685 17.8245   1
  -2  -6  -8 183.063 17.8120   2
  -2  -6  -9-21.8481 12.1012   1
  -2  -6  -9-11.5684 12.4359   2
   2   6   9-9.29718 12.0055   1
   2   7 -15 101.597 12.5146   2
  -2  -7  15 114.867 14.1086   1
  -2  -7  15 102.330 12.9267   1
  -2  -7  14 2.31959 8.45405   1
   2   7 -14-4.13502 8.66425   2
  -2  -7  14-4.94380 8.49943   1
  -2  -7  13 21.4352 9.08731   1
  -2  -7  13 10.7235 8.50053   1
   2   7 -13 38.2576 8.68779   2
  -2  -7  12 0.52331 7.29399   1
   2   7 -12-1.00586 6.57641   2
  -2  -7  12 9.80485 7.54781   2
  -2  -7  12 12.1227 7.81216   1
   2   7 -11 89.1641 9.70926   2
  -2  -7  11 76.1555 9.48100   2
  -2  -7  11 83.0727 10.3411   1
  -2  -7  11 64.3116 8.99240   1
  -2  -7  10 5.65467 5.78790   2
   2   7 -10 3.14655 6.05955   1
   2   7 -10 8.11519 5.54005   2
  -2  -7  10 22.3945 6.87824   1
   2   7  -9 135.777 10.4288   2
   2   7  -9 129.189 10.9347   1
  -2  -7   9 128.480 10.1859   2
  -2  -7   9 135.473 10.8299   1
   2   7  -8-3.49479 5.77528   1
   2   7  -8-5.99010 5.55069   2
  -2  -7   8 1.58281 5.07393   2
  -2  -7   8 1.05960 5.48685   1
   2   7  -7 53.0248 7.28179   2
  -2  -7   7 39.1701 6.89958   2
   2   7  -7 31.8732 6.71166   1
  -2  -7   7 32.8105 6.87263   1
   2   7  -6 7.97045 5.62437   1
   2   7  -6 2.62744 4.82973   2
  -2  -7   6 9.33088 5.38730   2
  -2  -7   6 11.7230 5.97639   1
   2   7  -5 15.9340 6.06047   1
   2   7  -5 9.97216 5.27337   2
  -2  -7   5 13.1873 6.05570   1
  -2  -7   5 3.99573 5.10456   2
   2   7  -4 52.1153 7.25643   2
  -2  -7   4 39.3716 6.98462   2
   2   7  -4 38.5017 7.05164   1
  -2  -7   4 48.3508 7.45647   1
  -2  -7   3 10.0281 6.05332   1
   2   7  -3 1.24013 4.98337   2
  -2  -7   3 3.39686 5.10428   2
   2   7  -3-2.32696 5.57430   1
  -2  -7   2 9.66563 6.22657   1
   2   7  -2-6.78425 5.51305   2
  -2  -7   2-2.62539 5.37565   2
   2   7  -2 8.23326 5.56645   1
   2   7  -1 217.552 13.2335   2
   2   7  -1 213.455 13.6710   1
  -2  -7   1 197.867 12.8571   2
  -2  -7   1 188.425 12.9563   1
   2   7   0 37.6706 7.56999   1
   2   7   0 49.2397 8.26119   2
  -2  -7   0 43.5545 8.00956   1
  -2  -7   0 36.6390 7.49886   2
   2   7   1 43.6421 8.64173   1
  -2  -7  -1 33.6859 7.78326   2
  -2  -7  -1 43.0105 8.04101   1
  -2  -7  -2 2.83074 6.78891   2
   2   7   2 6.09250 7.92754   1
  -2  -7  -2 9.68361 6.85328   1
   2   7   3 25.1751 8.23255   1
  -2  -7  -3 33.6728 8.86498   2
  -2  -7  -3 29.7124 8.32614   1
  -2  -7  -4 5.80098 8.28470   2
  -2  -7  -4-2.62950 7.65537   1
   2   7   4 9.61971 8.82203   1
  -2  -7  -5 135.678 13.9226   1
  -2  -7  -5 160.532 15.0470   2
   2   7   5 133.626 13.9387   1
  -2  -7  -6 134.041 15.5482   2
  -2  -7  -6 139.154 15.2772   1
  -2  -7  -7 88.2719 14.5669   1
  -2  -7  -7 97.1548 14.8705   2
  -2  -8  14 46.9591 11.1076   1
   2   8 -14 65.5613 12.5385   2
  -2  -8  14 43.6336 10.2142   1
  -2  -8  13 7.11107 9.67527   1
   2   8 -13 9.25914 8.55343   2
  -2  -8  13 5.02451 8.26252   1
  -2  -8  13 10.1275 9.34828   2
   2   8 -12 11.8091 8.73790   2
  -2  -8  12-10.2711 8.04257   1
  -2  -8  12-10.5585 7.64958   2
  -2  -8  12 2.34009 9.25707   1
   2   8 -11 84.3940 10.4925   2
  -2  -8  11 88.1793 10.8068   2
   2   8 -11 95.6530 11.0250   1
  -2  -8  11 98.3951 10.8615   1
   2   8 -10 8.93031 7.47584   1
  -2  -8  10 3.49749 7.23972   1
   2   8 -10 9.43713 7.08356   2
  -2  -8  10 16.5360 8.22118   2
   2   8  -9 28.6348 7.81098   1
   2   8  -9 26.6329 7.20697   2
  -2  -8   9 34.1489 8.49952   2
  -2  -8   9 44.9982 8.49679   1
   2   8  -8 64.1744 8.98667   2
  -2  -8   8 69.5149 9.27410   2
  -2  -8   8 49.7187 8.67665   1
   2   8  -8 51.2301 8.74217   1
   2   8  -7 7.99637 6.25766   2
   2   8  -7 12.6545 6.80838   1
  -2  -8   7 9.14902 6.51919   1
  -2  -8   7 9.80551 6.44947   2
   2   8  -6 4.88597 6.61658   1
   2   8  -6 4.01976 6.10570   2
  -2  -8   6 18.1344 6.90182   1
  -2  -8   6 19.1867 7.01754   2
  -2  -8   5 122.063 11.0505   2
   2   8  -5 107.378 10.9395   1
  -2  -8   5 118.767 11.2238   1
   2   8  -5 120.229 11.0746   2
   2   8  -4 36.6945 7.92595   2
  -2  -8   4 34.1648 7.91670   2
  -2  -8   4 28.6607 8.00615   1
   2   8  -4 35.9337 8.22677   1
  -2  -8   3 134.477 11.7391   2
   2   8  -3 132.310 11.7520   1
   2   8  -3 125.357 11.5546   2
  -2  -8   3 113.529 11.6388   1
   2   8  -2 356.120 17.6473   2
   2   8  -2 307.143 17.3592   1
  -2  -8   2 363.674 17.8557   2
  -2  -8   2 323.738 17.3536   1
   2   8  -1 12.2624 6.91664   2
   2   8  -1 16.3349 7.52221   1
  -2  -8   1 9.29360 7.17711   2
  -2  -8   1 7.54797 7.35450   1
  -2  -8   0 11.2398 7.36388   2
   2   8   0 1.60523 8.31290   1
  -2  -8   0 19.0923 8.26810   1
   2   8   1 4.24836 8.27295   1
  -2  -8  -1 4.44508 8.07369   2
  -2  -8  -1 1.38154 8.50361   1
  -2  -8  -2 59.5157 11.2182   1
  -2  -8  -2 74.0920 11.5510   2
   2   8   2 61.9462 11.9013   1
   2   8   3 45.4856 11.6796   1
  -2  -8  -3 42.2565 10.8118   2
  -2  -8  -3 36.5255 10.9206   1
  -2  -8  -4 119.753 15.2003   2
  -2  -8  -4 107.273 14.7854   1
   2   8   4 101.773 14.8018   1
   2   8   5 4.06090 12.3744   1
  -2  -8  -5 20.3407 11.5553   2
  -2  -8  -5-2.17045 11.6671   1
  -2  -8  -6 19.7723 13.6695   2
  -2  -8  -6-10.6786 13.7740   1
   2   8   6 3.92706 13.5879   1
   2   9 -13 3.82576 11.4377   2
  -2  -9  13 50.9729 11.4551   1
  -2  -9  13 33.9071 11.8384   2
  -2  -9  13 13.7882 11.1702   1
   2   9 -12 8.88626 9.39672   2
  -2  -9  12-8.14845 9.63023   1
  -2  -9  12 14.1060 10.5174   2
   2   9 -11 58.3231 10.9708   2
  -2  -9  11 63.2020 11.4349   2
   2   9 -11 80.7170 11.7528   1
  -2  -9  11 87.0392 12.3483   1
  -2  -9  10 19.2628 8.50259   1
   2   9 -10 38.7303 9.49325   1
  -2  -9  10 38.6627 10.5125   2
   2   9  -9 86.4152 11.6979   2
  -2  -9   9 103.834 11.7846   2
  -2  -9   9 104.312 11.7159   1
   2   9  -9 87.1047 11.4162   1
  -2  -9   8 11.4464 7.85295   1
   2   9  -8 21.5753 8.67440   2
   2   9  -8 4.63347 7.66805   1
  -2  -9   8 10.4214 8.33082   2
   2   9  -7-10.1813 8.53978   1
  -2  -9   7-3.92193 7.67199   1
   2   9  -7 9.37803 8.09326   2
  -2  -9   7-1.24811 7.72159   2
   2   9  -6 10.8067 7.85344   1
  -2  -9   6-0.31641 7.62699   1
   2   9  -6 3.72931 7.68382   2
  -2  -9   6 11.3780 8.14907   2
   2   9  -5 82.1112 11.3192   2
  -2  -9   5 97.3143 11.8168   2
   2   9  -5 77.2454 11.1320   1
  -2  -9   5 79.6056 11.4544   1
  -2  -9   4 4.88354 7.67156   1
   2   9  -4 22.9676 9.06228   2
  -2  -9   4 5.29517 7.94483   2
   2   9  -4 9.10435 8.09700   1
  -2  -9   3 1.57209 8.13538   1
   2   9  -3-1.91989 7.79974   2
  -2  -9   3 4.58558 7.82170   2
   2   9  -3-0.89951 8.05063   1
   2   9  -2 25.4114 9.40474   2
  -2  -9   2 22.4529 8.71747   2
   2   9  -2 23.0687 9.44778   1
  -2  -9   2 24.1056 9.84606   1
   2   9  -1 6.57174 8.53251   2
   2   9  -1 21.8797 10.0201   1
  -2  -9   1 8.75749 8.63465   2
  -2  -9   1 17.8146 9.39411   1
   2   9   0 1.31085 10.2514   1
  -2  -9   0 17.0591 9.50221   2
  -2  -9   0 19.9642 9.22710   1
   2   9   1 16.4542 10.9950   1
  -2  -9  -1-1.23163 10.1297   2
  -2  -9  -1-4.95605 10.1656   1
   2   9   2 8.63439 11.2580   1
  -2  -9  -2-11.7683 10.6261   2
  -2  -9  -2 1.82602 11.5003   1
   2   9   3-8.51114 11.3249   1
  -2  -9  -3 9.45353 12.1130   2
  -2  -9  -3 23.8705 11.6260   1
   2   9   4 6.98922 13.6141   1
  -2  -9  -4 15.9962 13.9969   2
  -2  -9  -4-2.18006 13.2012   1
  -2 -10  12 12.4311 7.62233   1
   2  10 -12 12.5596 7.49303   2
  -2 -10  12 9.88272 7.92167   2
   2  10 -12 13.1986 7.75704   1
   2  10 -11 8.36318 10.7818   1
  -2 -10  11 2.03820 10.8000   1
   2  10 -11 36.8871 11.7240   2
  -2 -10  11 18.1770 11.3754   2
  -2 -10  10 43.2850 11.3831   1
   2  10 -10 54.3668 11.5628   1
   2  10 -10 48.8086 11.5806   2
  -2 -10  10 57.8792 12.1445   2
  -2 -10   9 9.46784 9.82332   1
   2  10  -9 11.1783 10.3905   2
  -2 -10   9 22.9251 11.0905   2
   2  10  -9 28.6174 10.7419   1
   2  10  -8 101.672 13.6153   2
  -2 -10   8 82.3220 13.7999   2
  -2 -10   8 107.336 14.0745   1
  -2 -10   7 65.0666 12.2451   2
   2  10  -7 66.1313 11.9832   1
  -2 -10   7 64.1415 12.6084   1
   2  10  -7 55.2074 12.1508   2
  -2 -10   6 13.7881 10.7083   1
   2  10  -6 1.95315 10.2798   2
  -2 -10   6 4.82212 9.69026   2
   2  10  -6 11.8384 9.90224   1
   2  10  -5 26.4704 10.2683   2
  -2 -10   5-2.80513 10.2673   2
   2  10  -5 14.9875 11.0609   1
  -2 -10   5 5.57335 9.81349   1
  -2 -10   4 12.5521 10.2703   1
   2  10  -4-1.35103 9.93686   2
  -2 -10   4 17.4689 10.3177   2
   2  10  -4 3.14286 9.88915   1
   2  10  -3 7.85299 10.2053   2
  -2 -10   3 7.45884 10.6672   2
   2  10  -3-13.0086 12.0914   1
  -2 -10   3-7.39961 10.1779   1
   2  10  -2 13.3722 10.6962   2
  -2 -10   2 19.1420 11.0608   2
   2  10  -2 12.3191 12.2253   1
  -2 -10   2 24.1493 12.4790   1
  -2 -10   1 43.6954 12.2579   2
   2  10  -1 14.3504 12.9432   1
   2  10  -1 56.1924 12.9334   2
  -2 -10   1 35.9530 12.4338   1
   2  10   0 20.2257 13.4074   1
  -2 -10   0-8.46355 13.3722   2
  -2 -10   0 15.7162 12.8619   1
   2  10   1 26.1211 14.0628   1
  -2 -10  -1 51.9679 15.2626   2
  -2 -10  -1 28.3741 13.8796   1
  -2 -11   9 11.6698 7.37625   1
   2  11  -9 8.71018 6.65545   2
  -2 -11   9 6.39690 6.82307   2
   2  11  -9 12.4763 7.88053   1
   2  11  -8 76.1573 15.3532   2
  -2 -11   8 41.9077 13.2539   1
  -2 -11   8 81.8689 15.5139   2
   2  11  -8 55.6534 14.6934   1
  -2 -11   7-1.78376 11.8488   1
   2  11  -7 14.5013 12.4063   1
   2  11  -7-15.2058 11.7539   2
  -2 -11   7-1.58085 12.4569   2
   2  11  -6 14.7230 12.9957   2
  -2 -11   6 2.18702 12.8006   2
   2  11  -6-6.17438 13.5745   1
  -2 -11   6 5.47855 12.7749   1
   2  11  -5 16.0616 12.7761   2
  -2 -11   5 26.8120 13.4367   2
   2  11  -5 6.36393 12.8187   1
  -2 -11   5 2.20704 12.2925   1
   2  11  -4-6.15628 12.4725   2
  -2 -11   4-11.1535 12.9902   2
   2  11  -4-3.57442 12.9902   1
  -2 -11   4-9.67968 12.5290   1
   2  11  -3 6.82636 13.2102   2
  -2 -11   3 7.66929 13.3887   2
   2  11  -3 33.7248 14.8000   1
  -2 -11   3 12.6982 13.7271   1
  -3  10   2 18.3427 12.9622   1
   3 -10  -2 20.6844 12.9294   1
  -3  10   2 11.0699 10.3935   2
   3 -10  -2 3.32507 10.3435   2
  -3  10   1-16.5421 11.1897   1
   3 -10  -1-3.01930 11.9933   1
  -3  10   1-1.62706 10.6969   2
   3 -10  -1 18.7901 11.2762   2
   3 -10   0-11.2246 12.3083   1
  -3  10   0 18.3990 10.6332   1
  -3  10   0 1.34253 10.0738   2
   3 -10   0-19.3794 12.0297   2
  -3  10  -1 9.45568 9.81149   1
  -3  10  -1 4.60316 10.0251   2
   3 -10   1 4.15536 11.4251   2
   3 -10   1-11.5431 10.9798   1
   3 -10   2 47.1928 11.1283   1
  -3  10  -2 40.0149 10.8555   1
  -3  10  -2 34.7391 11.8299   2
   3 -10   2 55.9010 12.1706   2
   3 -10   3 16.8202 9.18104   1
  -3  10  -3-0.29004 10.1737   2
  -3  10  -3 10.0917 8.44277   1
   3 -10   3-11.4767 10.9409   2
   3 -10   4-3.40532 8.53124   1
  -3  10  -4 15.4876 10.6083   2
  -3  10  -4-2.84722 8.09998   1
   3 -10   4 8.68269 10.5913   2
   3 -10   5-0.47034 7.46038   1
  -3  10  -5-7.32040 10.7558   2
   3 -10   5 8.22642 10.6966   2
  -3  10  -5 20.1634 7.72368   1
   3 -10   6 8.17791 6.80195   1
  -3  10  -6-9.68621 11.1273   2
   3 -10   6-8.90567 12.4826   2
  -3  10  -6 4.81523 6.86104   1
   3 -10   7 5.59442 6.12188   1
  -3  10  -7 0.25708 5.85284   1
   3 -10   7-5.76161 12.6882   2
  -3  10  -8 40.9001 13.8485   2
   3 -10   8-9.80855 12.4751   2
  -3  10  -9 56.7983 14.8684   2
   3 -10   9 65.5051 14.8291   2
  -3   9   5 24.0332 10.1948   1
   3  -9  -5 20.3096 9.34492   1
   3  -9  -5 19.1491 6.67644   2
  -3   9   4 5.05304 12.8461   1
   3  -9  -4 9.39391 12.8897   1
  -3   9   4 12.1661 10.7608   2
   3  -9  -4 14.8396 10.7089   2
   3  -9  -3 34.5101 12.0915   1
  -3   9   3 22.9374 11.5581   1
  -3   9   3 28.8201 10.4816   2
   3  -9  -3 40.9527 10.1895   2
   3  -9  -2 3.00727 10.6211   1
  -3   9   2 3.18346 9.54883   2
   3  -9  -2-10.0487 8.45182   2
  -3   9   2-10.8966 9.80261   1
  -3   9   1 8.65768 9.66699   1
   3  -9  -1 8.81704 10.1712   1
  -3   9   1 3.84046 8.66512   2
   3  -9  -1 16.9800 9.13607   2
   3  -9   0 3.71483 8.94349   1
  -3   9   0-3.04865 8.49807   2
   3  -9   0-1.75686 8.56558   2
  -3   9   0 2.15994 8.58878   1
  -3   9  -1 11.4184 7.77032   1
   3  -9   1 23.1448 8.68818   1
  -3   9  -1 25.0065 8.53459   2
   3  -9   1 30.8528 9.28975   2
   3  -9   2 14.7991 8.03762   1
  -3   9  -2 5.23448 7.08750   1
  -3   9  -2-4.86402 8.21848   2
   3  -9   2 8.20983 8.08466   2
   3  -9   3 37.7654 8.10720   1
  -3   9  -3 43.4108 7.71354   1
  -3   9  -3 30.5211 9.07778   2
   3  -9   3 38.0363 9.53386   2
   3  -9   4 5.53027 6.22209   1
  -3   9  -4-1.15830 6.06625   1
  -3   9  -4 5.01562 8.57159   2
   3  -9   4-5.12194 8.18712   2
   3  -9   5 7.78328 5.87256   1
  -3   9  -5 26.0010 9.35990   2
  -3   9  -5 9.67593 5.51630   1
   3  -9   5 19.3624 9.29632   2
   3  -9   6 4.04872 5.25257   1
  -3   9  -6-0.84373 9.62504   2
   3  -9   6-1.80998 10.1941   2
  -3   9  -6-3.31155 5.18115   1
  -3   9  -7 0.69466 3.73079   1
  -3   9  -7 8.86398 10.0176   2
   3  -9   7 10.9939 10.4452   2
   3  -9   7 2.90602 4.07086   1
  -3   9  -8 42.6264 12.3701   2
   3  -9   8 35.6909 12.4522   2
  -3   9  -9 5.85586 11.1013   2
   3  -9   9-13.0140 11.2029   2
  -3   9 -10 47.4080 13.3349   2
   3  -8  -7 29.1201 7.62915   2
   3  -8  -6 36.2990 13.6848   1
   3  -8  -6 33.6472 9.97666   2
  -3   8   6 9.23762 13.2110   1
  -3   8   5 17.7969 8.64396   2
   3  -8  -5 3.28905 11.9823   1
   3  -8  -5 17.5371 8.40112   2
  -3   8   5 2.04738 10.4455   1
  -3   8   4 84.1321 10.8858   2
   3  -8  -4 72.8681 10.3971   2
  -3   8   4 68.1460 12.8402   1
   3  -8  -4 87.6284 14.1854   1
   3  -8  -3 22.5622 9.82440   1
  -3   8   3 8.92858 7.63175   2
   3  -8  -3 10.4765 7.09644   2
  -3   8   3 9.61346 8.77168   1
   3  -8  -2 2.55669 8.07821   1
  -3   8   2-5.98372 7.18694   2
   3  -8  -2-9.24564 7.11063   2
  -3   8   2-3.34059 8.23896   1
  -3   8   1 68.0856 9.60215   2
   3  -8  -1 75.5553 9.99257   2
  -3   8   1 79.5386 10.7985   1
   3  -8  -1 68.9823 10.6754   1
  -3   8   0-1.39452 6.83536   1
   3  -8   0 10.1734 7.36308   1
  -3   8   0-1.30695 6.84585   2
   3  -8   0-6.95495 6.63350   2
  -3   8  -1 79.8600 9.62823   2
  -3   8  -1 74.8701 9.23901   1
   3  -8   1 77.7617 9.58942   2
   3  -8   1 64.6342 8.79773   1
   3  -8   2 0.76154 5.99284   1
  -3   8  -2 8.74046 6.05953   1
  -3   8  -2-0.32660 7.11484   2
   3  -8   2 5.90729 6.41231   2
   3  -8   3 26.6259 6.21466   1
  -3   8  -3 28.4613 6.38394   1
  -3   8  -3 36.0739 8.24672   2
   3  -8   3 26.2954 8.02721   2
   3  -8   4 7.44467 5.15768   1
  -3   8  -4 12.7930 4.95079   1
  -3   8  -4 11.9450 6.91422   2
   3  -8   4 15.1999 7.72443   2
  -3   8  -5 67.0625 9.90361   2
   3  -8   5 53.7922 9.65962   2
  -3   8  -5 54.3869 6.06528   1
   3  -8   5 33.3498 5.73969   1
  -3   8  -6 8.85568 8.01669   2
   3  -8   6 4.15259 7.61625   2
  -3   8  -6 3.49397 3.63539   1
   3  -8   6 4.02077 4.00829   1
  -3   8  -7 8.70836 2.23364   1
  -3   8  -7 4.10696 1.89312   1
  -3   8  -7 11.8689 8.11970   2
   3  -8   7-0.75192 8.22426   2
  -3   8  -8-2.22519 8.49741   2
   3  -8   8-3.53796 9.11076   2
  -3   8  -9 19.2058 10.5248   2
  -3   8 -10-0.23418 9.96730   2
  -3   8 -11-2.98571 11.8524   2
  -3   8 -12 36.7781 14.3286   2
   3  -7  -8 45.9158 14.4906   1
  -3   7   8 68.9779 16.1540   1
   3  -7  -8 50.9712 9.66906   2
   3  -7  -7 21.1916 8.46006   2
   3  -7  -7 13.4030 12.8807   1
  -3   7   7 18.9759 12.6720   1
   3  -7  -6 47.1205 8.80302   2
  -3   7   6 28.9038 10.7818   1
  -3   7   5 68.9119 8.64440   2
   3  -7  -5 88.3976 9.45921   2
   3  -7  -5 60.4244 12.2592   1
  -3   7   5 46.3836 11.2053   1
   3  -7  -4-11.4664 8.25604   1
  -3   7   4 0.66647 5.97461   2
   3  -7  -4-1.35175 6.21556   2
  -3   7   4 3.71881 8.01249   1
  -3   7   3 65.7463 7.90800   2
   3  -7  -3 61.3653 8.26650   2
  -3   7   3 61.6022 9.64986   1
   3  -7  -3 53.6994 9.47339   1
  -3   7   2 89.3516 8.75548   2
   3  -7  -2 84.8930 8.81814   2
  -3   7   2 72.2778 9.78169   1
   3  -7  -2 94.4600 10.8045   1
  -3   7   1 90.3367 9.11783   2
  -3   7   1 73.4769 9.29295   1
   3  -7  -1 80.7706 8.79006   2
   3  -7  -1 82.1196 9.95126   1
   3  -7   0-0.44529 5.75439   1
  -3   7   0-4.67844 4.82587   2
   3  -7   0-0.50393 5.39110   2
  -3   7   0 9.69351 6.15377   1
   3  -7   1 0.36016 5.45483   1
  -3   7  -1 4.12982 5.35640   2
   3  -7   1 7.06589 5.33618   2
  -3   7  -1-2.18349 5.06736   1
  -3   7  -2 361.021 15.7192   2
   3  -7   2 350.099 15.9674   2
  -3   7  -2 294.057 13.0159   1
   3  -7   2 322.960 13.8747   1
   3  -7   3 268.562 14.4301   2
  -3   7  -3 248.942 11.3680   1
  -3   7  -3 255.795 13.8416   2
   3  -7   3 227.090 11.1176   1
   3  -7   4 18.1623 4.77932   1
  -3   7  -4 33.6546 5.23195   1
  -3   7  -4 31.3952 7.08463   2
   3  -7   4 18.8813 6.61692   2
  -3   7  -5 95.0123 10.2597   2
   3  -7   5 91.9990 10.2296   2
  -3   7  -5 88.6441 6.11536   1
   3  -7   5 76.3041 6.17343   1
  -3   7  -6-10.0023 6.56648   2
   3  -7   6-10.7507 6.51649   2
  -3   7  -6 0.37558 2.39637   1
  -3   7  -7 1.68746 6.83212   2
   3  -7   7-10.6084 7.30699   2
  -3   7  -8-0.25667 7.17143   2
  -3   7  -9 35.6759 9.63543   2
  -3   7 -10 37.8825 10.4729   2
  -3   7 -11 45.3721 12.6223   2
  -3   7 -12 23.8174 11.9804   2
   3  -6 -10-13.6609 7.29979   2
   3  -6  -9-8.27445 13.5944   1
   3  -6  -9 3.45248 7.46979   2
  -3   6   9 13.1627 12.8614   1
   3  -6  -8 6.84107 11.8659   1
   3  -6  -8 14.6412 7.30361   2
  -3   6   8-17.3075 11.5004   1
   3  -6  -7 37.3976 10.8311   1
   3  -6  -7 45.9953 7.46987   2
  -3   6   7 46.2675 10.9562   1
   3  -6  -6-5.78480 8.33282   1
   3  -6  -6 0.22940 5.62315   2
  -3   6   6 14.5668 8.59466   1
  -3   6   5 75.2622 7.48708   2
  -3   6   5 72.2379 10.1370   1
   3  -6  -5 83.4479 8.10900   2
   3  -6  -5 67.1264 10.3238   1
  -3   6   4 72.8643 7.46530   2
  -3   6   4 50.1455 9.28586   1
   3  -6  -4 60.5646 6.93376   2
   3  -6  -4 64.5708 10.0680   1
  -3   6   3 101.826 10.1573   1
   3  -6  -3 102.985 8.39156   2
  -3   6   3 92.4199 7.89966   2
   3  -6  -3 97.0058 10.2298   1
   3  -6  -2 11.3941 5.93634   1
  -3   6   2 2.98973 4.45022   2
   3  -6  -2 13.5907 4.88287   2
  -3   6   2 14.8079 6.11174   1
   3  -6  -1 21.0526 6.05582   1
  -3   6   1 12.4118 4.90123   2
   3  -6  -1 13.9016 4.74977   2
  -3   6   1 18.4888 5.84609   1
   3  -6   0 278.977 12.5852   2
  -3   6   0 279.845 12.5209   2
  -3   6   0 271.116 13.0110   1
   3  -6   0 243.803 12.6167   1
  -3   6  -1 270.823 12.5164   2
  -3   6  -1 265.448 12.1029   1
   3  -6   1 258.928 12.4421   2
   3  -6   1 244.266 11.9201   1
  -3   6  -2 126.053 9.46288   2
  -3   6  -2 124.593 8.28129   1
   3  -6   2 128.769 9.50291   2
   3  -6   2 115.408 8.02409   1
  -3   6  -3 26.1320 4.47344   1
  -3   6  -3 22.5030 5.79152   2
   3  -6   3 12.7211 5.18145   2
   3  -6   3 27.2241 4.71894   1
  -3   6  -4 83.2030 8.63067   2
   3  -6   4 70.0071 8.10974   2
  -3   6  -4 74.0485 5.64036   1
   3  -6   4 68.0701 5.70675   1
  -3   6  -5 180.852 11.9720   2
   3  -6   5 191.955 12.3922   2
  -3   6  -5 165.546 6.58940   1
  -3   6  -6 44.6834 7.75510   2
   3  -6   6 49.9010 8.48831   2
  -3   6  -7 12.9032 6.83933   2
  -3   6  -8 9.97304 6.99721   2
  -3   6  -9 156.073 13.4425   2
  -3   6 -10 20.1051 9.28682   2
  -3   6 -11 47.6408 11.0140   2
  -3   6 -12 13.0418 11.1064   2
  -3   6 -13 14.4822 13.1288   2
   3  -5 -11-11.8594 14.4949   1
   3  -5 -11 1.58278 6.94922   2
  -3   5  11-19.3568 14.0015   1
   3  -5 -10 11.3468 11.7675   1
   3  -5 -10-1.59813 6.63500   2
   3  -5  -9 7.87082 11.6491   1
   3  -5  -9 4.88011 5.69694   2
  -3   5   9-13.6902 10.8045   1
   3  -5  -8 6.43173 8.98900   1
   3  -5  -8 1.70116 4.81717   2
  -3   5   8-4.00958 8.79752   1
   3  -5  -7 5.59068 7.42333   1
   3  -5  -7 11.4739 4.85125   2
  -3   5   7 4.02977 7.87253   1
   3  -5  -6 3.05788 4.04585   2
   3  -5  -6 16.7047 7.81036   1
  -3   5   6 12.6435 7.80007   1
   3  -5  -5 20.2951 7.40548   1
  -3   5   5 7.85307 4.18825   2
   3  -5  -5 7.80398 4.23642   2
  -3   5   5 17.7343 6.94226   1
  -3   5   4 19.4044 4.55067   2
   3  -5  -4 25.9593 6.89869   1
   3  -5  -4 22.8628 4.44948   2
  -3   5   4 18.0279 6.75512   1
   3  -5  -3 2.89857 5.02580   1
  -3   5   3 0.68673 3.54349   2
   3  -5  -3 1.33654 3.59381   2
  -3   5   3-9.59534 5.42588   1
   3  -5  -2 16.8727 5.80631   1
  -3   5   2 8.23774 3.85951   2
  -3   5   2 4.50926 5.02206   1
   3  -5  -2 7.26617 3.60787   2
  -3   5   1 110.611 8.62589   1
  -3   5   1 107.733 7.30342   2
   3  -5  -1 117.666 7.73366   2
   3  -5  -1 121.032 9.14998   1
  -3   5   0 289.981 12.0890   1
  -3   5   0 291.364 11.5319   2
   3  -5   0 266.495 11.1290   2
   3  -5   0 291.246 12.5678   1
  -3   5  -1 180.142 9.65052   2
   3  -5   1 179.451 9.69380   2
  -3   5  -1 161.440 8.79704   1
   3  -5   1 172.748 9.29068   1
   3  -5   2 6.07920 3.42637   1
  -3   5  -2-1.24919 3.79628   2
  -3   5  -2 0.35627 3.05007   1
   3  -5   2 0.80310 4.02173   2
  -3   5  -3 5.13311 4.49065   2
   3  -5   3 9.27338 4.71992   2
  -3   5  -3 14.4637 3.43964   1
   3  -5   3 8.39167 3.33599   1
  -3   5  -4 9.51920 2.77283   1
  -3   5  -4 7.15350 4.75178   2
   3  -5   4 7.60332 4.90587   2
  -3   5  -4 6.06151 2.68482   1
  -3   5  -5 25.0089 2.50153   1
  -3   5  -5 27.8293 5.96248   2
  -3   5  -5 24.2148 2.47613   1
  -3   5  -6 42.1240 7.20644   2
  -3   5  -7 77.1754 8.84254   2
  -3   5  -8-8.27529 5.96403   2
  -3   5  -9 90.9884 10.7627   2
  -3   5 -10 39.5799 9.65485   2
  -3   5 -11 38.5097 9.82228   2
  -3   5 -12 34.3880 11.6636   2
  -3   5 -13 58.2548 13.5534   2
   3  -4 -12 68.5561 16.9234   1
   3  -4 -12 73.8347 8.26815   2
   3  -4 -11 30.7068 13.2138   1
   3  -4 -11 32.5927 6.21937   2
  -3   4  10 190.675 16.3195   1
   3  -4 -10 200.775 9.80157   2
   3  -4 -10 220.165 17.9370   1
   3  -4  -9 5.48732 8.54522   1
   3  -4  -9 4.64105 4.12826   2
  -3   4   9 15.7740 8.72304   1
   3  -4  -8 13.5915 8.10846   1
   3  -4  -8 11.4012 3.97611   2
  -3   4   8 2.82034 7.22402   1
  -3   4   7 79.3261 10.2785   1
   3  -4  -7 74.8032 5.76022   2
   3  -4  -7 66.1163 9.75658   1
  -3   4   6 66.5855 9.42902   1
   3  -4  -6 79.1428 5.61524   2
   3  -4  -6 75.2394 9.68654   1
   3  -4  -5 27.0391 6.44775   1
   3  -4  -5 25.1334 3.88408   2
  -3   4   5 19.7294 3.67426   2
  -3   4   5 16.1427 5.71553   1
  -3   4   4 120.696 9.88440   1
  -3   4   4 129.801 6.66415   2
   3  -4  -4 112.552 6.23532   2
   3  -4  -4 120.378 9.98749   1
  -3   4   3 227.299 12.0825   1
   3  -4  -3 201.589 8.18041   2
  -3   4   3 210.802 8.22619   2
   3  -4  -3 210.227 11.9506   1
   3  -4  -2 5.26729 4.50683   1
   3  -4  -2 5.23065 3.03865   2
  -3   4   2 7.10522 3.03419   2
  -3   4   2-0.49993 4.07623   1
  -3   4   1 171.723 7.93090   2
   3  -4  -1 159.404 7.73013   2
   3  -4  -1 172.017 9.78883   1
  -3   4   1 161.128 9.29066   1
   3  -4   0 6.17782 3.67889   1
  -3   4   0-2.19519 3.46266   1
  -3   4   0-3.40660 3.09904   2
   3  -4   0-2.42787 3.12152   2
  -3   4  -1 23.2505 4.29583   2
   3  -4   1 24.3424 4.56829   2
   3  -4   1 21.2655 4.15708   1
  -3   4  -1 21.4983 3.97422   1
  -3   4  -2 3.58575 2.91825   1
  -3   4  -2 2.39182 3.22342   2
   3  -4   2 7.03255 3.80380   2
   3  -4   2 2.26359 2.95261   1
  -3   4  -3 22.7528 3.33501   1
  -3   4  -3 23.3784 4.81001   2
  -3   4  -3 20.3391 3.22320   1
  -3   4  -4 4.12999 4.04707   2
  -3   4  -4 1.45381 2.02284   1
  -3   4  -4 4.35103 2.13188   1
  -3   4  -5 22.5874 1.96305   1
  -3   4  -5 22.8874 5.37176   2
  -3   4  -5 24.3717 1.95059   1
  -3   4  -6 285.139 13.7948   2
  -3   4  -7 297.037 14.7897   2
  -3   4  -8 61.0161 8.42492   2
  -3   4  -9 8.15841 6.95656   2
  -3   4 -10 1.14383 7.25954   2
  -3   4 -11-0.48468 8.33823   2
  -3   4 -12-5.20338 9.75493   2
  -3   4 -13 5.90905 11.3377   2
   3  -3 -13 3.42772 5.14957   2
   3  -3 -13 5.54835 5.30024   2
  -3   3  13 13.8735 13.3095   1
   3  -3 -13 29.2141 16.2117   1
   3  -3 -12-2.53929 4.73324   2
  -3   3  12-1.98063 11.0120   1
   3  -3 -12 0.67115 4.69376   2
   3  -3 -12 7.03435 11.1826   1
   3  -3 -11 7.92271 11.0946   1
   3  -3 -11 1.61027 3.99648   2
   3  -3 -11 1.57400 4.02394   2
   3  -3 -10 2.28337 8.66429   1
   3  -3 -10 0.01944 3.22391   2
  -3   3  10 15.9593 8.88779   1
   3  -3  -9 3.04384 7.52287   1
   3  -3  -9-0.54056 2.75800   2
  -3   3   9-3.71099 7.72461   1
   3  -3  -8 12.6659 7.87409   1
  -3   3   8 8.03718 7.15227   1
   3  -3  -8 1.79628 2.55680   2
  -3   3   7-1.76152 5.40475   1
   3  -3  -7 2.58635 2.21195   2
   3  -3  -7 9.86179 6.36527   1
   3  -3  -6 14.5753 6.23422   1
  -3   3   6 4.94465 4.77091   1
   3  -3  -6 8.53431 2.36091   2
   3  -3  -5 23.5270 6.41204   1
   3  -3  -5 20.6106 2.71586   2
  -3   3   5 19.7919 5.57517   1
  -3   3   4 134.101 5.41930   2
   3  -3  -4 129.882 5.36333   2
   3  -3  -4 125.950 9.49654   1
  -3   3   4 129.399 9.41082   1
   3  -3  -3 42.7604 3.59388   2
  -3   3   3 43.7193 3.60045   2
   3  -3  -3 44.0360 6.22359   1
  -3   3   3 41.9340 5.91214   1
   3  -3  -2 4.09535 3.85593   1
  -3   3   2 12.8641 4.28372   1
  -3   3   2 10.0362 2.70863   2
   3  -3  -2 7.87341 2.60228   2
  -3   3   1 269.735 8.67504   2
   3  -3  -1 263.884 8.69368   2
   3  -3  -1 292.374 11.7238   1
  -3   3   1 253.460 10.6423   1
  -3   3   0 5.38304 3.18740   1
  -3   3   0 4.17327 2.70846   2
   3  -3   0 5.39255 2.89931   2
   3  -3   0 9.20167 3.80730   1
  -3   3  -1 387.304 11.6305   2
  -3   3  -1 390.075 11.2983   1
  -3   3  -1 401.216 11.6463   1
  -3   3  -2 159.383 8.29013   2
  -3   3  -2 155.109 6.84228   1
  -3   3  -2 163.562 7.10658   1
  -3   3  -3 222.971 10.2462   2
  -3   3  -3 213.827 7.24839   1
  -3   3  -3 212.986 7.33850   1
  -3   3  -4 51.0150 3.49724   1
  -3   3  -4 57.5257 6.28944   2
  -3   3  -4 52.2094 3.55832   1
  -3   3  -5 9.55359 4.65880   2
  -3   3  -5 9.89837 1.53642   1
  -3   3  -5 10.2462 1.61976   1
  -3   3  -6-0.99329 4.42446   2
  -3   3  -7 56.2280 7.60717   2
  -3   3  -8 10.6723 5.87505   2
  -3   3  -9 12.0182 7.16575   2
  -3   3 -10 0.50367 7.07857   2
  -3   3 -11 5.92703 8.55238   2
  -3   3 -12 7.37725 9.91326   2
  -3   3 -13-5.98581 11.6434   2
   3  -2 -13 5.57519 3.58515   2
   3  -2 -13-1.37606 3.67856   2
   3  -2 -13 10.3308 12.5803   1
   3  -2 -12 21.1896 3.63946   2
   3  -2 -12 17.4759 3.61325   2
  -3   2  12 35.3636 11.3663   1
   3  -2 -12 16.1002 10.8044   1
   3  -2 -11 0.57658 2.42552   2
  -3   2  11-8.04533 8.68949   1
   3  -2 -11 2.42204 2.48541   2
   3  -2 -11-4.22219 8.49715   1
  -3   2  10 178.103 14.0764   1
   3  -2 -10 162.423 5.20939   2
   3  -2 -10 176.585 5.51889   2
   3  -2 -10 199.991 15.1076   1
   3  -2  -9 30.2253 2.27849   2
   3  -2  -9 30.9352 2.41259   2
  -3   2   9 28.1438 7.75194   1
   3  -2  -9 37.6759 8.95764   1
  -3   2   8-3.36503 6.00577   1
   3  -2  -8 3.51703 1.03080   2
   3  -2  -8 4.86264 1.17774   2
   3  -2  -8-3.38586 5.93313   1
  -3   2   7 16.2656 6.30078   1
   3  -2  -7 10.9045 5.92789   1
   3  -2  -6 30.9066 6.22211   1
  -3   2   6 41.8046 6.83742   1
  -3   2   5 10.8464 4.46097   1
   3  -2  -5 13.7234 5.29976   1
  -3   2   4 1.03282 0.99820   2
   3  -2  -4-1.86287 3.68876   1
  -3   2   3 131.306 4.34170   2
   3  -2  -3 132.008 8.71395   1
  -3   2   3 138.306 8.80139   1
  -3   2   2 18.5056 2.48979   2
  -3   2   2 16.1485 4.10531   1
   3  -2  -2 26.5147 4.81670   1
  -3   2   1 142.470 5.84822   2
  -3   2   1 152.969 8.01240   1
  -3   2   1 149.000 8.05225   1
  -3   2   0 318.371 9.32517   2
  -3   2   0 324.795 10.6600   1
  -3   2   0 324.824 10.9754   1
  -3   2  -1 136.225 6.90981   2
  -3   2  -1 146.020 7.24005   1
  -3   2  -1 146.819 6.93695   1
  -3   2  -2 313.127 10.8143   2
  -3   2  -2 311.820 9.25246   1
  -3   2  -2 293.744 9.31438   1
  -3   2  -3 736.377 17.4447   2
  -3   2  -3 757.916 13.7132   1
  -3   2  -3 761.482 13.3105   1
  -3   2  -4 39.5866 5.44633   2
  -3   2  -4 36.8664 3.40331   1
  -3   2  -4 38.0310 3.31294   1
  -3   2  -5 201.414 10.7895   2
  -3   2  -5 206.954 6.04256   1
  -3   2  -5 198.771 6.14497   1
  -3   2  -6 49.8754 2.88126   1
  -3   2  -6 48.6741 6.70731   2
  -3   2  -6 45.8834 2.88047   1
  -3   2  -7 30.9885 1.83707   1
  -3   2  -7 34.8375 6.54620   2
  -3   2  -8 460.031 18.6042   2
  -3   2  -9 16.3055 7.23834   2
  -3   2 -10 115.849 11.8732   2
  -3   2 -11 1.60247 8.51998   2
  -3   2 -12 7.94258 10.2633   2
  -3   2 -13-22.7215 13.4438   2
   3  -1 -14 21.9321 3.26643   2
  -3   1  14 21.3255 12.6204   1
   3  -1 -14 35.7454 3.64219   2
  -3   1  14 42.3911 13.9526   1
   3  -1 -13 21.7813 2.95479   2
   3  -1 -13 24.8127 3.07285   2
  -3   1  12 6.76806 8.85813   1
   3  -1 -12 3.18010 1.77453   2
   3  -1 -12 0.60019 9.58142   1
  -3   1  11-1.11943 8.15623   1
   3  -1 -11-1.04913 1.01067   2
   3  -1 -11 1.73094 8.93270   1
  -3   1  10-3.34030 6.58780   1
   3  -1 -10 3.31563 6.91923   1
   3  -1  -9 71.2564 9.95278   1
  -3   1   9 52.2242 8.38795   1
   3  -1  -8 60.9479 8.81059   1
  -3   1   8 58.9796 8.36908   1
  -3   1   7 10.1316 5.65709   1
   3  -1  -7 10.3068 5.39126   1
  -3   1   6 1.04795 3.93124   1
   3  -1  -6-0.54534 5.04131   1
  -3   1   5 18.0047 5.22400   1
  -3   1   4 159.905 9.18839   1
  -3   1   4 168.750 9.62509   1
  -3   1   3 3.43181 3.64450   1
  -3   1   3 0.35898 0.78590   2
  -3   1   2 429.661 7.88982   2
  -3   1   2 461.044 13.6429   1
  -3   1   2 446.990 13.9592   1
  -3   1   1 17.8916 3.68895   1
  -3   1   1 16.2813 2.50630   2
  -3   1   1 21.8709 4.13005   1
  -3   1   0-4.16976 2.96383   1
  -3   1   0 2.48172 2.14525   2
  -3   1   0 2.69523 2.71118   1
  -3   1  -1 36.7189 4.07482   2
  -3   1  -1 40.2093 4.21487   1
  -3   1  -1 30.9163 3.99097   1
  -3   1  -2 7.42095 2.64225   1
  -3   1  -2 3.90877 3.14584   2
  -3   1  -2 5.52613 2.82028   1
  -3   1  -3 101.787 7.15914   2
  -3   1  -3 93.4485 5.40353   1
   3  -1   4 16.0357 2.85452   1
  -3   1  -4 13.2125 2.76404   1
  -3   1  -4 13.6551 4.29070   2
   3  -1   5 524.509 11.1503   1
  -3   1  -5 546.238 17.1536   2
  -3   1  -5 528.555 11.2930   1
  -3   1  -6 401.985 15.7881   2
  -3   1  -6 393.471 9.78041   1
   3  -1   6 398.856 9.64621   1
  -3   1  -7 177.983 6.73412   1
  -3   1  -7 175.780 11.6656   2
   3  -1   7 179.021 6.66938   1
  -3   1  -8 49.5879 4.10016   1
  -3   1  -8 62.9961 8.62201   2
   3  -1   8 51.9395 4.09124   1
   3  -1   9 280.160 8.20632   1
  -3   1  -9 265.844 8.02487   1
   3  -1  10 19.6187 3.35521   1
  -3   1 -10 19.9906 3.26388   1
  -3   1 -11 2.29794 2.78182   1
  -3   1 -11 2.21407 9.04207   2
  -3   1 -12 2.02328 2.59147   1
  -3   1 -12 0.62549 10.3762   2
  -3   1 -13 2.56147 12.8829   2
  -3   0  15 16.7094 8.22839   1
  -3   0  15 11.1547 8.29182   1
  -3   0  14-3.56456 11.6348   1
  -3   0  14 12.1822 10.8041   1
   3   0 -14-2.64346 2.05481   2
  -3   0  13 32.7552 10.8310   1
  -3   0  13 27.3913 9.83209   1
   3   0 -13 30.4020 2.24070   2
  -3   0  12 188.500 14.9297   1
  -3   0  12 178.669 15.1607   1
  -3   0  11 116.537 11.4694   1
  -3   0  11 89.6529 11.0334   1
  -3   0  10 12.8026 6.83371   1
  -3   0  10 28.6627 7.93986   1
  -3   0   9 5.93830 6.09995   1
  -3   0   9 12.5457 6.31925   1
  -3   0   8 641.008 20.4459   1
  -3   0   8 630.759 20.8154   1
  -3   0   7 166.906 10.5520   1
  -3   0   7 166.762 10.8549   1
  -3   0   6 49.4853 6.49029   1
  -3   0   6 54.9673 6.74137   1
  -3   0   5 11.7979 4.55435   1
  -3   0   5-2.68450 4.20958   1
  -3   0   4 2.65870 4.01777   1
  -3   0   4 5.70585 3.91156   1
  -3   0   3 53.6012 2.26259   2
  -3   0   3 47.9774 2.12369   2
  -3   0   3 56.7709 5.94720   1
  -3   0   3 55.6639 5.67725   1
  -3   0   2 1.92524 1.62642   2
  -3   0   2 5.53543 3.15059   1
  -3   0   2 0.12661 3.13552   1
  -3   0   1 5.26450 3.05465   1
  -3   0   1 2.65540 3.09222   1
   3   0   0 1.36958 2.78839   1
  -3   0   0 5.74017 2.98710   1
  -3   0  -1 513.507 13.1842   1
   3   0   1 503.532 13.0085   1
  -3   0  -2 4.90099 2.88285   1
   3   0   2-3.36188 2.52992   1
  -3   0  -3 99.2223 5.98811   1
   3   0   3 101.522 6.06670   1
  -3   0  -4 55.9930 4.88951   1
   3   0   4 59.4377 5.00097   1
  -3   0  -5 157.086 7.47865   1
   3   0   5 164.180 7.64090   1
  -3   0  -6 128.802 7.03863   1
   3   0   6 125.566 6.97161   1
  -3   0  -7 86.3464 6.18577   1
   3   0   7 92.1709 6.35537   1
  -3   0  -8 4.68688 3.65172   1
   3   0   8 10.3156 3.81301   1
  -3   0  -9 1.59735 3.90627   1
   3   0   9 3.88463 3.79741   1
   3   0  10 38.9808 5.67915   1
  -3   0 -10 42.0365 5.84017   1
  -3   0 -11 17.5787 5.36184   1
  -3   0 -11 18.9561 10.1343   2
   3   0  11 21.0509 5.37067   1
   3   0  12 73.2051 7.61114   1
  -3   0 -12 62.2254 7.56060   1
   3   0  13 30.0091 6.24062   1
  -3   0 -13 41.2170 6.77729   1
   3   1 -15 14.6556 2.77918   2
  -3  -1  15 14.6631 12.4304   1
  -3  -1  15 33.7984 13.8052   1
  -3  -1  14 16.2436 10.3369   1
   3   1 -14 6.66609 2.28247   2
  -3  -1  14 3.95281 10.0952   1
  -3  -1  13 14.0174 9.16234   1
   3   1 -13 2.32417 1.53175   2
  -3  -1  12 21.7880 8.43483   1
  -3  -1  12 15.2768 7.91643   1
  -3  -1  11 31.6179 8.44397   1
  -3  -1  11 28.8457 7.41395   1
  -3  -1  10 503.618 19.4058   1
  -3  -1  10 546.382 20.7818   1
  -3  -1   9 80.4542 8.76668   1
  -3  -1   9 92.7216 9.36746   1
  -3  -1   8 0.19437 5.06536   1
  -3  -1   8 1.81248 4.92144   1
  -3  -1   7 13.8895 5.39889   1
  -3  -1   7 17.8917 4.94546   1
  -3  -1   6 4.77729 4.00532   1
  -3  -1   6 2.01851 4.35552   1
  -3  -1   5 620.844 18.2911   1
  -3  -1   5 632.328 17.7321   1
  -3  -1   4 373.397 5.35899   2
  -3  -1   4 373.991 13.4855   1
  -3  -1   4 376.550 13.9761   1
  -3  -1   3 20.7336 2.25792   2
  -3  -1   3 27.8690 4.56976   1
  -3  -1   3 18.3999 4.23772   1
  -3  -1   2 0.15469 3.16354   1
   3   1  -2 3.25874 2.99489   1
  -3  -1   2 2.02375 1.94748   2
  -3  -1   1 102.980 5.49191   2
   3   1  -1 110.766 7.19559   1
  -3  -1   1 105.136 7.01190   1
  -3  -1   0 73.9880 5.96561   1
   3   1   0 84.5197 6.33991   1
   3   1   1 207.521 9.22412   1
  -3  -1  -1 219.434 9.41461   1
   3   1   2 38.1991 4.67274   1
  -3  -1  -2 31.4580 4.41988   1
   3   1   3 5.95444 3.38937   1
  -3  -1  -3 3.56253 3.08644   1
   3   1   4 19.8185 4.15312   1
  -3  -1  -4 24.4216 4.24361   1
  -3  -1  -5-1.04324 3.36002   1
   3   1   5 9.47968 3.89659   1
   3   1   6 87.7768 7.00445   1
  -3  -1  -6 99.0752 7.43224   1
   3   1   7 21.9363 5.01099   1
  -3  -1  -7 21.0260 4.77208   1
   3   1   8 0.96780 4.44940   1
  -3  -1  -8 2.23416 4.19616   1
  -3  -1  -9 13.1557 5.42011   1
   3   1   9 4.84680 5.05236   1
  -3  -1 -10 7.46670 5.99708   1
   3   1  10 3.17883 5.56448   1
  -3  -1 -11 1.35285 6.46101   1
   3   1  11 3.67984 6.80154   1
   3   1  12 61.7295 9.06037   1
  -3  -1 -12 71.7055 9.35066   1
   3   2 -15 5.54680 3.14238   2
  -3  -2  15-3.27747 11.6607   1
   3   2 -15-3.24577 3.38643   2
   3   2 -14 0.96689 2.64005   2
  -3  -2  14 1.64106 10.4614   1
   3   2 -14 2.29885 2.90112   2
  -3  -2  14-8.45613 9.11992   1
  -3  -2  13 3.48444 8.28593   1
   3   2 -13 0.31479 2.12923   2
   3   2 -13 4.80914 2.34210   2
  -3  -2  12 11.4611 7.92035   1
   3   2 -12 9.10016 2.03845   2
  -3  -2  12 15.2783 8.21544   1
   3   2 -12 5.84561 2.00220   2
  -3  -2  11 26.7766 7.23800   1
   3   2 -11 27.6328 2.01848   2
   3   2 -11 27.1020 2.09785   2
  -3  -2  11 36.2225 8.62438   1
  -3  -2  10 169.178 12.4961   1
  -3  -2  10 147.579 11.3648   1
   3   2 -10 131.256 3.00173   2
  -3  -2   9 23.6557 6.93683   1
  -3  -2   9 15.7839 6.16305   1
  -3  -2   8 43.1196 6.65480   1
  -3  -2   8 41.4406 7.03491   1
  -3  -2   7 16.4066 5.23800   1
  -3  -2   7 20.6161 5.25363   1
  -3  -2   6 50.4302 2.33220   2
  -3  -2   6 41.9681 6.20087   1
  -3  -2   6 48.3281 6.47448   1
  -3  -2   5 562.499 8.74243   2
  -3  -2   5 567.952 17.2511   1
  -3  -2   5 566.137 17.8756   1
  -3  -2   4 335.327 7.83599   2
  -3  -2   4 324.642 12.8793   1
   3   2  -4 338.598 13.1288   1
  -3  -2   3 532.373 10.9092   2
   3   2  -3 498.630 15.4577   1
  -3  -2   3 530.548 15.8729   1
   3   2  -2 85.7693 6.97193   1
  -3  -2   2 90.1251 5.33010   2
  -3  -2   2 99.1863 7.17120   1
  -3  -2   1 54.3704 4.87191   2
  -3  -2   1 53.7136 5.67430   1
   3   2  -1 49.8189 5.60444   1
  -3  -2   0 2.15306 3.28184   1
  -3  -2   0-1.07687 2.69590   2
   3   2   0 5.08154 3.45153   1
   3   2   1 4.20253 3.66856   1
  -3  -2  -1-0.06124 3.22197   2
  -3  -2  -1 1.60388 3.30332   1
   3   2   2 365.928 13.0450   1
  -3  -2  -2 370.890 13.0740   1
  -3  -2  -2 382.769 13.6412   2
   3   2   3 42.0429 5.53848   1
  -3  -2  -3 29.3994 5.01983   1
   3   2   4 263.036 11.5478   1
  -3  -2  -4 264.530 11.6371   1
   3   2   5 28.2132 5.49186   1
  -3  -2  -5 33.5897 5.48813   1
   3   2   6 7.40136 4.85395   1
  -3  -2  -6 2.79957 4.61483   1
   3   2   7 1.22607 5.10332   1
  -3  -2  -7-1.79562 4.98213   1
   3   2   8 5.05177 5.60699   1
  -3  -2  -8 5.17289 5.63028   1
   3   2   9 12.5550 6.48997   1
  -3  -2  -9-2.94417 5.94591   1
  -3  -2 -10-1.91046 10.6714   2
   3   2  10-0.48153 7.05230   1
  -3  -2 -10 0.71575 7.76617   1
  -3  -2 -11-4.65859 8.33081   1
   3   2  11-6.82122 8.77232   1
  -3  -3  15 35.5166 11.9584   1
   3   3 -15 19.7843 4.75012   2
   3   3 -14 21.4714 4.51889   2
  -3  -3  14 26.0056 10.7609   1
  -3  -3  14 19.5977 10.1898   1
  -3  -3  13 2.23391 8.60515   1
   3   3 -13 0.29363 3.42249   2
  -3  -3  13 1.44933 8.05267   1
  -3  -3  12 5.90112 7.42591   1
   3   3 -12 11.0199 3.22888   2
  -3  -3  12 10.1375 7.11629   1
   3   3 -11 70.3513 4.45989   2
  -3  -3  11 74.7919 9.62779   1
  -3  -3  11 65.9734 9.86750   1
   3   3 -10 55.6421 3.84068   2
  -3  -3  10 55.7758 8.24852   1
  -3  -3  10 53.9294 8.57262   1
   3   3  -9 30.8453 3.16031   2
  -3  -3   9 34.4503 6.97953   1
  -3  -3   9 34.5666 7.56312   1
   3   3  -8 35.6235 3.21324   2
  -3  -3   8 34.6354 3.21069   2
  -3  -3   8 32.2865 6.40660   1
  -3  -3   8 39.0260 7.33153   1
  -3  -3   7 5.48615 4.44862   1
   3   3  -7 1.44306 2.07658   2
  -3  -3   7 0.36069 2.04889   2
  -3  -3   7-3.13526 4.68701   1
   3   3  -6 7.43933 2.36841   2
  -3  -3   6 8.31112 2.51495   2
  -3  -3   6 10.7852 4.42019   1
  -3  -3   5 4.09783 2.34534   2
   3   3  -5 2.75669 3.71749   1
  -3  -3   5 3.17160 4.23876   1
  -3  -3   4 25.1559 3.43857   2
   3   3  -4 27.3326 5.24939   1
  -3  -3   4 21.9977 5.10200   1
   3   3  -3 1.35934 4.00473   1
  -3  -3   3 3.78569 2.82015   2
  -3  -3   3 9.33218 4.39779   1
  -3  -3   2 114.751 8.41176   1
  -3  -3   2 112.770 6.76981   2
   3   3  -2 101.031 7.96055   1
  -3  -3   1 66.9427 5.89787   2
   3   3  -1 64.8121 6.64624   1
  -3  -3   1 64.9650 6.55026   1
   3   3   0-0.26376 4.03437   1
  -3  -3   0 4.17866 3.50241   2
  -3  -3   0-2.31310 3.80375   1
  -3  -3  -1 27.2210 5.11062   2
  -3  -3  -1 31.4726 5.51505   1
   3   3   1 21.6057 5.05373   1
  -3  -3  -2 106.984 8.32420   2
   3   3   2 97.8167 8.06910   1
  -3  -3  -2 103.088 8.14641   1
   3   3   3 272.243 12.6918   1
  -3  -3  -3 259.840 12.9612   2
  -3  -3  -3 268.757 12.6442   1
  -3  -3  -4 13.0813 5.24411   1
  -3  -3  -4 13.0636 5.67593   2
   3   3   4 16.9725 5.33901   1
  -3  -3  -5 17.8048 6.51482   2
   3   3   5 21.2555 5.98651   1
  -3  -3  -5 18.7623 6.00734   1
  -3  -3  -6-1.04615 6.20885   2
   3   3   6 8.98152 5.87038   1
  -3  -3  -6 0.74966 5.56403   1
  -3  -3  -7 4.45373 7.22720   2
   3   3   7 8.60944 6.01669   1
  -3  -3  -7 3.82709 5.89954   1
   3   3   8 82.8368 9.92252   1
  -3  -3  -8 95.5425 12.5233   2
  -3  -3  -8 91.6395 10.1781   1
  -3  -3  -9 146.516 15.2445   2
  -3  -3  -9 117.612 11.5589   1
   3   3   9 108.025 11.5277   1
  -3  -3 -10 184.701 15.0497   1
   3   3  10 166.662 14.0274   1
  -3  -3 -11 119.247 17.3628   2
   3   3  11 82.8306 12.2123   1
  -3  -3 -11 102.430 13.3696   1
  -3  -4  15 12.3264 10.7361   1
  -3  -4  15 4.80318 11.3936   1
   3   4 -15 11.7558 5.89605   2
  -3  -4  14 11.1533 9.53614   1
  -3  -4  14 0.69381 9.53856   1
   3   4 -14 10.1872 5.06258   2
  -3  -4  13 15.5050 7.97414   1
  -3  -4  13 22.8174 9.15992   1
   3   4 -13 3.35184 4.45939   2
  -3  -4  12 0.05963 7.10234   1
  -3  -4  12 5.50704 8.09640   1
   3   4 -12 3.03242 4.05865   2
  -3  -4  11-3.81697 6.55695   1
  -3  -4  11 3.23053 6.71040   1
   3   4 -11 8.99112 3.56835   2
  -3  -4  10 29.9490 7.54929   1
   3   4 -10 30.1864 4.36084   2
  -3  -4  10 30.9341 7.43651   1
   3   4  -9 263.995 9.17561   2
  -3  -4   9 267.809 9.19089   2
  -3  -4   9 274.541 14.4154   1
  -3  -4   9 269.628 15.0164   1
   3   4  -8 4.80908 3.01086   2
  -3  -4   8 3.17019 3.01931   2
  -3  -4   8 6.77107 5.35256   1
  -3  -4   8 4.45430 5.77471   1
   3   4  -7 317.466 10.0763   2
  -3  -4   7 380.452 10.9090   2
  -3  -4   7 383.859 15.7596   1
   3   4  -7 360.047 15.6212   1
   3   4  -6 11.0461 5.32703   1
   3   4  -6 12.0190 3.41737   2
  -3  -4   6 10.6506 3.35265   2
  -3  -4   6 11.6034 4.79234   1
   3   4  -5 5.41850 3.09386   2
   3   4  -5 1.60074 4.27964   1
  -3  -4   5 10.5705 4.87455   1
  -3  -4   5 3.46609 2.96349   2
   3   4  -4 4.03058 3.23627   2
  -3  -4   4 3.42440 4.59663   1
  -3  -4   4 6.12305 3.13591   2
   3   4  -4 9.78812 4.88451   1
  -3  -4   3 340.857 11.8044   2
   3   4  -3 332.389 14.2879   1
  -3  -4   3 366.422 14.6542   1
  -3  -4   2 65.8427 6.15150   2
   3   4  -2 70.0670 7.36919   1
  -3  -4   2 72.9456 7.41829   1
  -3  -4   1 79.3286 6.89282   2
   3   4  -1 83.8397 8.18200   1
  -3  -4   1 76.0737 7.41285   1
  -3  -4   0 3.81902 4.03172   2
  -3  -4   0 2.85796 4.72492   1
   3   4   0 0.81974 4.23530   1
  -3  -4  -1 159.473 10.2875   2
   3   4   1 149.970 10.3367   1
  -3  -4  -1 151.831 10.2477   1
  -3  -4  -2 142.947 10.2717   2
   3   4   2 132.360 10.2872   1
  -3  -4  -2 131.174 9.97203   1
  -3  -4  -3 89.6854 9.24440   2
   3   4   3 96.9592 9.26945   1
  -3  -4  -3 90.6245 9.12583   1
  -3  -4  -4 5.13478 6.14676   2
  -3  -4  -4-2.28691 5.52515   1
   3   4   4-11.8207 6.11847   1
   3   4   5 40.2911 7.77165   1
  -3  -4  -5 34.0901 8.30037   2
  -3  -4  -5 34.7102 7.43589   1
   3   4   6 156.292 12.4271   1
  -3  -4  -6 127.247 12.4316   2
  -3  -4  -6 154.764 12.5665   1
  -3  -4  -7-10.4920 8.39458   2
  -3  -4  -7 5.78084 7.41144   1
   3   4   7-2.94173 7.82120   1
   3   4   8-2.18457 8.19772   1
  -3  -4  -8-7.93324 8.01541   1
   3   4   9 9.42906 9.68802   1
  -3  -4  -9 5.27300 11.5480   2
  -3  -4  -9 9.89631 9.94273   1
   3   4  10 15.1306 11.0434   1
  -3  -4 -10 41.6981 14.7676   2
  -3  -5  15 6.44367 11.9421   1
   3   5 -15-3.68511 6.69950   2
  -3  -5  15 16.1363 11.5881   1
   3   5 -14-1.61772 5.90123   2
  -3  -5  14-8.46798 9.88892   1
  -3  -5  13 35.9488 10.2601   1
   3   5 -13 17.3714 5.70454   2
  -3  -5  13 12.0931 9.01220   1
  -3  -5  12-5.62422 8.25033   1
   3   5 -12-3.07306 4.77720   2
  -3  -5  12-2.53002 7.69634   1
  -3  -5  11 37.6971 8.92191   1
   3   5 -11 35.2153 5.72428   2
  -3  -5  11 38.3641 8.58263   1
   3   5 -10 43.3461 5.70485   2
  -3  -5  10 61.6082 8.80966   1
  -3  -5  10 57.0416 6.21194   2
  -3  -5  10 42.9670 8.93066   1
   3   5  -9 10.9680 4.13344   2
  -3  -5   9 11.4310 6.38523   1
  -3  -5   9 10.6807 4.18754   2
  -3  -5   9 27.7715 7.65910   1
   3   5  -8 54.3682 5.97568   2
  -3  -5   8 55.2508 7.87055   1
  -3  -5   8 53.5832 5.71081   2
   3   5  -8 57.6900 8.12826   1
   3   5  -7 8.53564 5.62835   1
  -3  -5   7 20.3640 4.60387   2
   3   5  -7 16.6770 4.44918   2
  -3  -5   7 13.9535 5.92818   1
  -3  -5   6 40.8207 7.09482   1
   3   5  -6 42.5913 5.45239   2
  -3  -5   6 33.8298 5.04237   2
   3   5  -6 45.7517 7.17062   1
  -3  -5   5 0.61394 4.32045   1
   3   5  -5 0.45582 3.69932   2
  -3  -5   5-4.87400 3.98772   2
   3   5  -5 6.39999 4.84127   1
   3   5  -4 16.8961 4.65938   2
  -3  -5   4 15.7061 4.41826   2
   3   5  -4 14.0511 5.46429   1
  -3  -5   4 17.4193 5.41942   1
  -3  -5   3 547.946 16.6649   2
   3   5  -3 557.552 19.3646   1
  -3  -5   3 564.140 19.0811   1
  -3  -5   2 329.222 13.5800   2
   3   5  -2 327.518 15.2840   1
  -3  -5   2 329.723 15.1029   1
  -3  -5   1 15.4188 5.10348   2
  -3  -5   1 6.91530 4.78977   1
  -3  -5   0 304.436 14.0672   2
   3   5   0 314.896 15.2419   1
  -3  -5   0 311.770 14.8787   1
  -3  -5  -1-0.75975 5.33321   1
  -3  -5  -1 1.68183 5.33440   2
   3   5   1 12.6493 6.05710   1
  -3  -5  -2-1.37157 5.86695   1
  -3  -5  -2-8.20525 5.88325   2
   3   5   2 5.91482 6.17315   1
  -3  -5  -3 19.2328 7.13148   1
  -3  -5  -3 27.6325 7.69551   2
   3   5   3 13.1711 6.40322   1
  -3  -5  -4 47.8233 8.77815   2
  -3  -5  -4 50.8133 9.07592   1
   3   5   4 38.7710 8.43262   1
   3   5   5 10.8286 7.80170   1
  -3  -5  -5 1.77496 7.54480   2
  -3  -5  -5 3.73674 7.23757   1
   3   5   6 66.7266 10.5133   1
  -3  -5  -6 85.8690 11.8914   2
  -3  -5  -6 85.2367 11.1227   1
   3   5   7-4.08651 9.13764   1
  -3  -5  -7-1.23056 9.92135   2
  -3  -5  -7 10.6071 9.76823   1
   3   5   8 5.20523 11.0507   1
  -3  -5  -8 37.5616 12.2803   2
  -3  -5  -8 21.8247 10.2261   1
  -3  -5  -9 59.8755 13.2282   1
   3   5   9 61.7945 13.2095   1
  -3  -6  15 32.3124 11.8127   1
   3   6 -15 17.3363 7.04110   2
  -3  -6  15 29.2119 10.4369   1
  -3  -6  14 44.7600 11.8868   1
   3   6 -14 35.3510 7.96134   2
  -3  -6  14 46.9694 11.3150   1
  -3  -6  13 14.8775 10.3589   1
  -3  -6  13 41.0439 11.0339   1
   3   6 -13 25.7888 7.42148   2
  -3  -6  12 52.8851 10.9146   1
   3   6 -12 75.7069 8.19501   2
  -3  -6  12 83.3061 11.1745   1
   3   6 -11 52.3358 7.43082   2
  -3  -6  11 56.2305 9.79431   1
  -3  -6  11 62.1667 7.77642   2
  -3  -6  11 60.6140 10.7290   1
  -3  -6  10 105.335 11.0482   1
   3   6 -10 93.6964 8.24081   2
  -3  -6  10 85.6336 7.98797   2
  -3  -6  10 100.423 11.4435   1
  -3  -6   9 11.5817 6.94061   1
   3   6  -9 8.78174 5.09234   2
  -3  -6   9 5.85373 4.91287   2
   3   6  -9 1.25999 6.17815   1
  -3  -6   8-0.49337 5.62120   1
   3   6  -8 0.55674 5.76358   1
   3   6  -8 5.89268 4.78346   2
  -3  -6   8-1.25868 4.57381   2
  -3  -6   7 16.9341 6.71178   1
   3   6  -7 6.30500 4.73749   2
   3   6  -7 4.83515 5.53687   1
  -3  -6   7 12.9243 4.86914   2
   3   6  -6 17.8273 5.21656   2
  -3  -6   6 16.8903 5.08029   2
   3   6  -6 19.2396 6.61470   1
  -3  -6   6 8.97550 6.19430   1
   3   6  -5 475.059 16.4182   2
  -3  -6   5 445.054 16.0898   2
   3   6  -5 470.272 19.0028   1
  -3  -6   5 448.490 18.4753   1
   3   6  -4 122.546 9.37858   2
  -3  -6   4 122.638 9.26929   2
   3   6  -4 131.729 11.4630   1
  -3  -6   4 154.949 11.6972   1
   3   6  -3 105.609 9.13610   2
  -3  -6   3 99.5365 8.87830   2
   3   6  -3 97.4949 10.4477   1
  -3  -6   3 102.905 9.96029   1
  -3  -6   2-2.12726 4.92939   2
  -3  -6   2-1.83127 5.12851   1
   3   6  -2-4.12652 5.47096   1
  -3  -6   1 25.9796 7.06170   1
  -3  -6   1 21.7737 6.17118   2
   3   6  -1 25.6085 7.32617   1
  -3  -6   0 20.7544 7.27130   1
  -3  -6   0 19.1076 6.93774   2
   3   6   0 19.3412 6.84073   1
  -3  -6  -1 3.75917 6.31160   1
  -3  -6  -1 5.61718 6.70060   2
   3   6   1 3.29977 6.87618   1
  -3  -6  -2 5.99723 6.97409   1
  -3  -6  -2 0.71420 6.64135   2
   3   6   2 19.0275 7.78112   1
  -3  -6  -3 50.8698 9.98194   2
   3   6   3 24.4602 8.75647   1
  -3  -6  -3 34.5975 8.72711   1
  -3  -6  -4 22.3426 9.18693   2
   3   6   4 40.1090 9.48022   1
  -3  -6  -4 34.2685 9.89339   1
   3   6   5 24.9191 9.35073   1
  -3  -6  -5 38.3064 10.4128   2
  -3  -6  -5 34.4679 10.5818   1
   3   6   6 18.7086 11.1064   1
  -3  -6  -6 29.3868 12.0970   2
  -3  -6  -6 24.1780 11.7510   1
   3   6   7 1.91066 11.7864   1
  -3  -6  -7 1.27689 12.8330   2
  -3  -6  -7-6.79485 11.0072   1
  -3  -7  14 0.82834 12.3079   1
  -3  -7  14 2.67660 11.1578   1
   3   7 -14 14.0656 8.58908   2
  -3  -7  13 6.54354 9.87687   1
   3   7 -13 30.5756 8.85514   2
  -3  -7  13 1.60632 10.7829   1
  -3  -7  12 17.6716 9.47933   1
   3   7 -12 7.49849 7.03652   2
  -3  -7  12 16.1219 7.53957   2
  -3  -7  12 13.9856 10.5384   1
  -3  -7  11-0.12768 8.77624   1
   3   7 -11 19.0694 7.03852   2
  -3  -7  11 15.8683 6.63907   2
  -3  -7  11 7.86101 8.81686   1
  -3  -7  10 8.26755 7.34748   1
   3   7 -10-1.38762 6.22342   2
   3   7 -10 7.68073 8.00535   1
  -3  -7  10 20.1362 7.23855   2
   3   7  -9 6.55579 7.65033   1
   3   7  -9 0.98637 6.11527   2
  -3  -7   9 7.28632 6.20461   2
  -3  -7   9-2.97835 6.84284   1
   3   7  -8 0.76884 6.19073   2
   3   7  -8-2.24552 7.13174   1
  -3  -7   8 2.71542 5.76606   2
  -3  -7   8 14.3081 7.17147   1
   3   7  -7-4.77535 7.05324   1
   3   7  -7-0.59818 5.85880   2
  -3  -7   7 2.26032 5.75235   2
  -3  -7   7-9.72379 7.17072   1
   3   7  -6 77.6462 8.80389   2
  -3  -7   6 93.5209 9.36331   2
   3   7  -6 71.1328 9.60973   1
  -3  -7   6 85.1026 10.3752   1
   3   7  -5 308.625 15.1292   2
  -3  -7   5 326.460 15.5965   2
   3   7  -5 312.144 17.0154   1
  -3  -7   5 291.914 16.4431   1
   3   7  -4 17.5960 7.27998   1
   3   7  -4 16.9702 6.61018   2
  -3  -7   4 8.36286 6.00368   2
  -3  -7   4 16.3177 7.11291   1
  -3  -7   3 128.848 10.9303   2
   3   7  -3 123.534 10.8157   2
   3   7  -3 143.631 12.9327   1
  -3  -7   3 137.907 12.4644   1
  -3  -7   2 21.1814 7.22900   1
  -3  -7   2 11.3624 6.49668   2
   3   7  -2 14.5352 7.42668   1
  -3  -7   1 10.6136 7.25477   1
  -3  -7   1 14.8788 7.23534   2
   3   7  -1 9.45625 7.86184   1
  -3  -7   0 53.2721 9.25082   2
  -3  -7   0 52.4243 9.79994   1
   3   7   0 59.7695 10.2760   1
  -3  -7  -1 13.1812 9.10777   1
  -3  -7  -1 9.09949 8.29091   2
   3   7   1 4.07821 8.53170   1
  -3  -7  -2 189.984 15.3208   2
   3   7   2 171.240 15.5001   1
  -3  -7  -2 181.377 15.7740   1
  -3  -7  -3 24.4302 10.4061   2
  -3  -7  -3 22.2859 9.84671   1
   3   7   4 11.8706 10.6167   1
  -3  -7  -4 21.3450 11.2207   2
  -3  -7  -4 2.87480 10.4389   1
   3   7   5 22.4057 12.3785   1
  -3  -7  -5 3.21909 11.8088   2
  -3  -7  -5 14.6256 10.7843   1
   3   7   6-6.90636 12.1936   1
  -3  -7  -6 23.7226 14.3292   2
  -3  -7  -6 17.3809 13.5119   1
   3   8 -13 22.6381 9.59609   2
  -3  -8  13 8.81441 9.43648   2
  -3  -8  13 25.8661 12.2316   1
  -3  -8  13 8.31114 12.2028   1
   3   8 -12 8.81095 8.58957   2
  -3  -8  12-2.22767 9.20955   2
  -3  -8  12 19.3698 10.3580   1
  -3  -8  12-5.91221 11.9330   1
   3   8 -11 8.06276 8.41863   2
  -3  -8  11 2.08967 8.31959   2
  -3  -8  11-8.70228 9.10520   1
   3   8 -10 15.1822 7.60175   2
   3   8 -10 25.8838 10.2847   1
  -3  -8  10 11.9574 7.84663   2
  -3  -8  10 10.7003 9.48502   1
   3   8  -9 18.1280 7.98064   2
  -3  -8   9 15.1909 7.66556   2
  -3  -8   9 14.3242 8.33980   1
   3   8  -9 28.6735 9.63233   1
   3   8  -8-1.67903 7.60477   1
   3   8  -8-1.02527 6.87808   2
  -3  -8   8 2.64920 6.69025   2
  -3  -8   8-5.05974 8.42490   1
   3   8  -7 19.6331 7.76290   2
  -3  -8   7 15.7865 7.43234   2
  -3  -8   7 30.9488 9.49051   1
   3   8  -7 23.3751 9.42562   1
  -3  -8   6 41.7941 9.09298   2
   3   8  -6 14.6288 7.67513   2
   3   8  -6 35.4450 10.1440   1
  -3  -8   6 37.2759 9.70374   1
   3   8  -5 19.1941 8.94775   1
   3   8  -5 26.6199 8.27090   2
  -3  -8   5 16.4974 8.31020   1
  -3  -8   5 27.2576 8.38311   2
   3   8  -4-13.5891 9.45420   1
   3   8  -4 7.12633 7.49421   2
  -3  -8   4-1.41188 7.52108   1
  -3  -8   4 10.6778 8.02900   2
   3   8  -3 23.3090 8.78656   2
  -3  -8   3 10.1480 8.65050   1
  -3  -8   3 16.9059 8.06826   2
   3   8  -3 23.3946 9.30028   1
  -3  -8   2 15.1319 9.87527   1
  -3  -8   2 9.53969 8.02057   2
   3   8  -2 20.2180 9.36202   1
  -3  -8   1 8.01605 8.61760   1
  -3  -8   1 2.62098 7.99652   2
   3   8  -1 11.8417 9.92413   1
  -3  -8   0 0.90154 10.0693   1
  -3  -8   0 23.4813 9.52351   2
   3   8   0 20.9752 11.0741   1
  -3  -8  -1 14.5909 9.87572   2
   3   8   1 25.6753 11.3656   1
  -3  -8  -1 23.8428 10.0980   1
  -3  -8  -2 151.827 16.4160   2
   3   8   2 158.027 16.8889   1
  -3  -8  -2 186.316 18.1641   1
  -3  -8  -3 17.5195 11.3384   2
   3   8   3-24.3608 12.8515   1
  -3  -8  -3-12.8381 13.1289   1
  -3  -8  -4 99.2330 16.4760   2
  -3  -8  -4 104.754 17.4281   1
   3   9 -12-0.56408 9.30194   2
  -3  -9  12 5.67513 9.58204   2
  -3  -9  12 17.3758 12.7391   1
   3   9 -11 6.24916 10.7899   2
   3   9 -11-0.68318 11.0726   1
  -3  -9  11-1.80011 11.9905   1
  -3  -9  11 12.3919 9.81739   2
   3   9 -10-2.47625 11.5904   1
   3   9 -10-0.62515 9.86101   2
  -3  -9  10 9.43772 10.3550   1
  -3  -9  10-0.37780 9.66394   2
   3   9  -9 20.0332 10.1554   2
   3   9  -9 13.6820 10.8547   1
  -3  -9   9 23.3373 11.2490   1
  -3  -9   9 49.0309 10.6372   2
   3   9  -8 1.84302 9.33584   2
  -3  -9   8 2.13617 10.0465   1
  -3  -9   8-8.19516 8.82034   2
   3   9  -8 15.4076 10.8411   1
   3   9  -7 4.84047 8.79768   2
  -3  -9   7 14.4325 10.2096   1
  -3  -9   7 4.78344 9.22401   2
   3   9  -7 5.33665 9.81468   1
   3   9  -6 36.0566 10.8330   2
  -3  -9   6 22.0134 10.8751   1
   3   9  -6 39.4224 11.3102   1
  -3  -9   6 21.9462 9.82890   2
   3   9  -5 30.6725 10.9405   1
  -3  -9   5 4.80825 9.48530   1
   3   9  -5 5.19001 9.79276   2
  -3  -9   5 3.14930 8.81537   2
   3   9  -4 37.3321 11.9094   1
  -3  -9   4 44.4346 11.6633   1
   3   9  -4 33.4498 11.0671   2
  -3  -9   4 29.8809 10.3343   2
  -3  -9   3 20.8711 11.6824   1
  -3  -9   3 2.28877 9.28507   2
   3   9  -3-8.08529 10.5219   1
  -3  -9   2 44.7710 13.2453   1
  -3  -9   2 26.5088 10.8635   2
   3   9  -2 21.5322 10.8297   1
  -3  -9   1 3.66358 11.5516   1
  -3  -9   1 3.47380 10.2806   2
   3   9  -1 6.45203 11.6250   1
  -3  -9   0 5.41749 12.0516   2
   3   9   0 10.6727 12.5240   1
  -3  -9   0 19.4237 12.0314   1
  -3  -9  -1 131.670 16.9084   2
   3   9   1 114.681 17.1717   1
  -3  -9  -1 113.396 16.7350   1
  -3  -9  -2 102.731 16.9281   2
   3   9   2 62.6500 15.9501   1
  -3  -9  -2 76.6721 16.4799   1
   3  10  -9 4.61856 13.0873   1
  -3 -10   9 13.1966 11.9254   1
   3  10  -9 3.94550 11.5114   2
  -3 -10   9 17.6007 12.1036   2
   3  10  -8 52.2551 13.9553   2
  -3 -10   8 44.7638 12.9152   2
  -3 -10   8 35.9706 13.2506   1
   3  10  -8 41.0894 13.7455   1
  -3 -10   7 1.32130 11.7646   1
   3  10  -7 2.09817 10.7049   2
   3  10  -7 3.60555 12.1351   1
  -3 -10   7 17.1688 11.6360   2
  -3 -10   6 9.21422 11.7044   1
   3  10  -6 9.70188 12.3768   2
   3  10  -6 4.51153 12.4486   1
  -3 -10   6 5.18033 10.9296   2
  -3 -10   5 14.0382 12.7380   1
   3  10  -5 32.1997 12.6840   1
   3  10  -5 18.1835 12.3845   2
  -3 -10   5 10.7163 11.2075   2
   3  10  -4 0.79917 11.3209   2
   3  10  -4 2.56272 13.5015   1
  -3 -10   4 35.0448 13.2659   1
  -3 -10   4 9.72598 12.6670   2
  -3 -10   3 24.0257 13.6581   1
  -3 -10   3 64.0472 14.7732   2
   3  10  -3 44.4358 15.5059   1
  -3 -10   2 35.5482 13.9799   2
   3  10  -2 13.1656 14.4815   1
  -3 -10   2 16.0828 15.2436   1
  -3 -10   1 79.0164 11.9843   2
   4 -10   3 6.43817 5.75928   1
  -4  10  -3 12.1674 6.00203   1
   4  -9  -2 13.6892 13.4691   1
  -4   9   2 8.06684 9.92516   2
   4  -9  -2 10.7623 10.7929   2
  -4   9   2 22.3373 12.7915   1
  -4   9   1 36.7685 12.8360   1
   4  -9  -1 19.6854 12.0144   1
  -4   9   1 43.9152 10.8418   2
   4  -9  -1 42.2381 11.1429   2
  -4   9   0 8.01019 10.1859   1
   4  -9   0 9.24217 10.4481   1
  -4   9   0 24.8582 9.86866   2
   4  -9   0 6.41720 10.1173   2
  -4   9  -1 145.304 14.0385   2
   4  -9   1 124.883 14.1909   2
  -4   9  -1 113.070 13.0981   1
   4  -9   1 120.615 13.2461   1
   4  -9   2 28.4364 9.35812   1
  -4   9  -2 40.5471 9.91704   1
   4  -9   2 44.0342 11.9377   2
   4  -9   3 19.8064 8.11512   1
  -4   9  -3 10.6543 7.66343   1
  -4   9  -3 21.9234 10.7746   2
   4  -9   3 0.14015 9.80332   2
  -4   9  -4 171.307 16.1043   2
   4  -9   4 195.028 17.2633   2
  -4   9  -4 144.810 11.3120   1
   4  -9   4 118.714 11.2221   1
  -4   9  -5-4.56400 10.8449   2
  -4   9  -5 5.94791 6.17837   1
   4  -9   5 2.73422 11.4090   2
  -4   9  -6 1.33879 4.60290   1
  -4   9  -6 5.64921 4.76591   1
  -4   9  -7 142.751 16.7702   2
  -4   9  -8 47.3313 13.8887   2
   4  -8  -5 16.9911 15.2681   1
   4  -8  -5 36.0760 9.48293   2
  -4   8   5 46.6964 14.8789   1
   4  -8  -4 9.37486 12.7835   1
  -4   8   4-1.84401 8.42756   2
   4  -8  -4-12.8440 8.84772   2
  -4   8   4 16.4205 12.9047   1
   4  -8  -3 7.83398 10.7763   1
  -4   8   3 9.29175 8.00191   2
   4  -8  -3 4.89017 8.21854   2
  -4   8   2 102.854 11.1087   2
   4  -8  -2 106.537 11.8317   2
  -4   8   2 109.223 13.9137   1
   4  -8  -2 107.289 14.5875   1
   4  -8  -1 28.6613 10.8482   1
  -4   8   1 25.7487 8.62221   2
   4  -8  -1 21.8416 8.14352   2
  -4   8   1 29.4171 10.1703   1
   4  -8   0 4.33475 8.89333   1
  -4   8   0 15.1012 7.53509   2
   4  -8   0 12.4579 8.07120   2
  -4   8   0 19.6235 9.54538   1
  -4   8  -1 53.2629 9.46816   2
   4  -8   1 31.2985 8.79033   1
   4  -8   1 51.4532 9.50028   2
  -4   8  -1 51.2700 9.23159   1
   4  -8   2 4.24803 7.09458   1
  -4   8  -2 18.4748 7.88053   2
   4  -8   2 2.93307 8.39474   2
  -4   8  -2 21.7422 7.42165   1
  -4   8  -3 2.82200 6.18124   1
  -4   8  -3 11.1760 7.99154   2
   4  -8   3 11.6834 8.45176   2
   4  -8   3 6.06910 6.96093   1
  -4   8  -4 5.89849 5.85143   1
  -4   8  -4 4.20748 8.36324   2
   4  -8   4 0.32726 8.84382   2
   4  -8   4 1.14488 6.54175   1
  -4   8  -5 47.0969 6.19355   1
  -4   8  -5 28.5912 5.72390   1
  -4   8  -5 45.5460 10.7550   2
   4  -8   5 56.3835 11.1648   2
  -4   8  -6-4.48419 9.22416   2
  -4   8  -6 2.74132 3.27514   1
  -4   8  -6 7.48596 3.34907   1
  -4   8  -7 29.0083 11.2571   2
  -4   8  -8 64.4541 12.8365   2
  -4   8  -9-7.18823 12.1778   2
  -4   8 -10 45.9871 10.2167   2
   4  -7  -7 7.46437 13.2621   1
   4  -7  -7 25.1068 7.94296   2
  -4   7   7-7.24958 14.0607   1
   4  -7  -6 14.7765 7.34618   2
  -4   7   6 4.17550 12.6857   1
  -4   7   5-9.00973 6.91132   2
   4  -7  -5 3.89755 11.3722   1
   4  -7  -5-7.12399 6.99468   2
  -4   7   5 8.71844 11.7919   1
  -4   7   4 76.0831 9.20156   2
   4  -7  -4 64.0860 12.5994   1
  -4   7   4 85.2760 12.7346   1
   4  -7  -4 73.6244 9.18205   2
   4  -7  -3 9.99523 9.03774   1
  -4   7   3 1.60725 6.26353   2
   4  -7  -3 5.76457 6.51568   2
  -4   7   3 20.8837 9.42519   1
  -4   7   2 71.9055 8.55684   2
  -4   7   2 91.1438 11.4262   1
   4  -7  -2 82.8198 9.34182   2
   4  -7  -2 67.9008 11.1148   1
  -4   7   1 67.1509 8.58130   2
  -4   7   1 78.6351 10.8188   1
   4  -7  -1 68.9595 9.12983   2
   4  -7  -1 52.3564 9.73430   1
   4  -7   0 7.69261 7.47668   1
  -4   7   0 1.97441 6.21022   2
   4  -7   0 0.09656 6.06301   2
  -4   7   0 1.06539 6.83970   1
   4  -7   1-0.05080 6.35399   1
  -4   7  -1 2.17336 6.16982   2
   4  -7   1-0.90670 6.10818   2
  -4   7  -1 0.67931 6.16211   1
  -4   7  -2 58.3018 9.24009   2
  -4   7  -2 57.1678 7.94809   1
   4  -7   2 57.8818 9.30896   2
   4  -7   2 59.5845 8.24433   1
  -4   7  -3 6.08365 7.14988   2
   4  -7   3 9.94855 7.84306   2
  -4   7  -3-4.11424 5.30624   1
   4  -7   3-1.08572 5.67070   1
  -4   7  -4 16.0421 5.25840   1
  -4   7  -4 12.6630 7.41667   2
   4  -7   4 4.90043 7.86743   2
  -4   7  -4 10.8970 5.09578   1
  -4   7  -5 5.35756 3.97955   1
  -4   7  -5 3.60147 3.80476   1
  -4   7  -5-1.02800 7.58674   2
  -4   7  -6 6.46011 2.18049   1
  -4   7  -6 6.48175 2.00765   1
  -4   7  -7-8.00519 8.85157   2
  -4   7  -8 108.919 14.0322   2
  -4   7  -9-6.91004 10.7641   2
  -4   7 -10-2.56678 12.0134   2
   4  -6  -8-2.70922 12.9638   1
   4  -6  -8 25.7653 6.62183   2
  -4   6   8-6.15617 13.6878   1
   4  -6  -7 4.81306 5.46026   2
  -4   6   7-14.2313 11.9896   1
  -4   6   6 86.5003 13.7655   1
   4  -6  -6 79.8566 7.81107   2
   4  -6  -6 99.4535 14.2008   1
   4  -6  -5 27.2501 9.93748   1
  -4   6   5 13.5572 5.34767   2
   4  -6  -5 9.56710 5.21276   2
  -4   6   5 18.4857 9.44873   1
  -4   6   4 41.2460 6.54988   2
   4  -6  -4 34.3595 6.24891   2
   4  -6  -4 40.5105 9.80607   1
  -4   6   4 28.7745 9.71026   1
   4  -6  -3 14.5583 8.62791   1
  -4   6   3 3.71632 5.11567   2
  -4   6   3-1.88336 7.47485   1
   4  -6  -3 5.51752 5.09676   2
  -4   6   2 180.263 10.3924   2
  -4   6   2 187.074 13.2836   1
   4  -6  -2 187.514 10.6611   2
   4  -6  -2 188.620 13.7298   1
   4  -6  -1 15.6136 6.73475   1
  -4   6   1 26.8180 6.03855   2
  -4   6   1 9.44598 6.00506   1
   4  -6  -1 15.4736 5.72553   2
  -4   6   0 149.206 10.2634   2
  -4   6   0 141.448 10.8671   1
   4  -6   0 146.671 10.3281   2
   4  -6   0 149.857 11.4919   1
  -4   6  -1 146.302 10.5619   2
  -4   6  -1 140.521 10.1163   1
   4  -6   1 125.775 10.2065   2
   4  -6   1 124.513 10.2585   1
  -4   6  -2 63.7165 8.29276   2
  -4   6  -2 50.9914 6.90110   1
   4  -6   2 54.9455 8.12140   2
   4  -6   2 58.3004 7.75358   1
  -4   6  -3 1.12030 5.58338   2
  -4   6  -3 6.38173 4.39498   1
  -4   6  -3-0.25558 4.11736   1
  -4   6  -4 5.75716 3.82736   1
  -4   6  -4 5.93993 6.22034   2
  -4   6  -4 2.89518 3.85447   1
  -4   6  -5 7.87388 3.22711   1
  -4   6  -5 12.3169 3.23148   1
  -4   6  -5 14.5720 7.26231   2
  -4   6  -6-7.27713 7.68496   2
  -4   6  -7 13.0837 8.31095   2
  -4   6  -8 1.50614 8.62995   2
  -4   6  -9 6.17457 10.1131   2
  -4   6 -10-6.87003 10.7908   2
  -4   6 -11 76.0560 14.9643   2
  -4   5   9 3.30908 12.7601   1
   4  -5  -9-6.08149 12.9835   1
   4  -5  -8 26.4291 12.8030   1
   4  -5  -8 38.6533 4.43900   2
  -4   5   8 27.4010 11.4637   1
   4  -5  -7-1.82674 10.2086   1
  -4   5   7-19.0154 9.98503   1
   4  -5  -7 2.14220 3.61244   2
   4  -5  -6 29.0407 10.3821   1
   4  -5  -6 22.0088 4.51446   2
  -4   5   6 12.6984 9.19912   1
  -4   5   5 55.4667 5.55275   2
  -4   5   5 51.0791 10.1962   1
   4  -5  -5 59.9907 5.80803   2
   4  -5  -5 51.1200 10.3903   1
  -4   5   4 62.0314 10.1103   1
  -4   5   4 59.2679 5.80259   2
   4  -5  -4 43.1439 5.28810   2
   4  -5  -4 46.6469 8.97093   1
  -4   5   3 10.0428 4.21772   2
  -4   5   3 7.95067 6.53850   1
   4  -5  -3 3.55232 3.91719   2
   4  -5  -3-4.19933 6.37786   1
  -4   5   2 2.36420 3.83516   2
  -4   5   2 2.18144 5.70585   1
   4  -5  -2 7.36453 4.34309   2
   4  -5  -2 1.23649 6.04330   1
  -4   5   1 35.0372 7.19260   1
  -4   5   1 37.9660 5.60530   2
   4  -5  -1 39.0528 5.76832   2
   4  -5  -1 38.4208 7.26741   1
  -4   5   0-1.30745 4.55860   2
  -4   5   0-4.00648 4.85938   1
   4  -5   0-1.54827 4.39028   2
   4  -5   0-0.22681 5.36694   1
  -4   5  -1 100.156 8.56870   1
  -4   5  -1 90.8526 8.10416   2
  -4   5  -2 3.48544 4.12959   1
  -4   5  -2 3.49435 5.10183   2
  -4   5  -2 7.74573 4.52907   1
  -4   5  -3 8.51024 3.74449   1
  -4   5  -3 1.96008 5.18400   2
  -4   5  -3 5.43734 3.81582   1
  -4   5  -4 51.6092 5.11235   1
  -4   5  -4 49.3971 7.65794   2
  -4   5  -4 56.0574 5.25539   1
  -4   5  -5 225.684 13.7848   2
  -4   5  -5 235.553 7.60908   1
  -4   5  -5 235.157 7.44793   1
  -4   5  -6 26.6680 7.57083   2
  -4   5  -7 21.5877 8.21978   2
  -4   5  -8 56.1204 10.0471   2
  -4   5  -9-6.43745 9.60361   2
  -4   5 -10 4.66613 10.8785   2
  -4   5 -11 58.9748 13.2403   2
  -4   4  11-2.59511 13.1271   1
   4  -4 -11 33.3848 16.7899   1
  -4   4  10 2.07253 12.7597   1
   4  -4 -10-1.28192 13.3786   1
  -4   4   9 50.3738 12.5914   1
   4  -4  -9 15.9887 11.6796   1
  -4   4   8 38.6271 11.5611   1
   4  -4  -8 53.7940 11.3833   1
  -4   4   7 3.80515 8.69678   1
   4  -4  -7 2.92169 8.36801   1
   4  -4  -6 22.6992 2.65837   2
  -4   4   6 24.2841 8.10340   1
   4  -4  -6 32.9571 8.61764   1
   4  -4  -5 42.2076 3.78492   2
   4  -4  -5 39.5173 8.90516   1
  -4   4   5 42.5290 8.97976   1
  -4   4   4 209.866 7.62094   2
   4  -4  -4 208.535 7.66133   2
   4  -4  -4 206.280 13.8105   1
  -4   4   4 220.292 13.6996   1
  -4   4   3 5.87321 3.22297   2
  -4   4   3 2.43023 5.62723   1
  -4   4   2 88.5521 6.22440   2
   4  -4  -2 80.1485 8.92846   1
  -4   4   2 85.3652 8.96250   1
  -4   4   1 10.0460 5.04122   1
  -4   4   1 7.86268 3.82718   2
  -4   4   0-2.20740 4.11786   1
  -4   4   0 2.45156 3.73660   2
  -4   4   0 1.21525 4.20638   1
  -4   4  -1 42.8691 5.87991   2
  -4   4  -1 49.9963 6.02386   1
  -4   4  -1 48.2355 6.07127   1
  -4   4  -2 214.589 10.9525   2
  -4   4  -2 229.769 10.3837   1
  -4   4  -2 217.224 9.98800   1
  -4   4  -3 208.705 11.6366   2
  -4   4  -3 213.328 9.15701   1
  -4   4  -3 205.439 9.16518   1
  -4   4  -4-0.89973 2.91725   1
  -4   4  -4-6.34406 5.25875   2
  -4   4  -4-0.06449 2.94974   1
  -4   4  -5 125.270 5.62011   1
  -4   4  -5 116.609 10.0338   2
  -4   4  -5 118.388 5.38009   1
  -4   4  -6 47.9245 8.39271   2
  -4   4  -6 35.1094 1.66599   1
  -4   4  -7 90.3695 10.4842   2
  -4   4  -8 127.414 12.7820   2
  -4   4  -9 30.5377 9.56005   2
  -4   4 -10 12.9160 10.2231   2
  -4   4 -11 16.2742 11.8516   2
  -4   4 -12 8.77164 13.3976   2
  -4   3  12 23.9492 13.0988   1
   4  -3 -12 13.0472 12.0425   1
  -4   3  11 14.2012 12.5264   1
   4  -3 -11 9.84035 12.7674   1
  -4   3  10 31.5828 12.3088   1
   4  -3 -10 4.35921 12.2587   1
  -4   3   9-8.00555 9.54757   1
   4  -3  -9-2.06172 9.22429   1
  -4   3   8 19.3798 8.87461   1
   4  -3  -8 19.2735 9.43965   1
   4  -3  -7 52.7178 10.3595   1
  -4   3   7 50.0516 9.12878   1
   4  -3  -6 89.2740 10.6477   1
  -4   3   6 97.1673 11.0104   1
  -4   3   5-6.69107 6.14732   1
   4  -3  -5 2.16246 5.85379   1
  -4   3   4 112.210 4.39814   2
   4  -3  -4 104.273 10.2281   1
  -4   3   4 129.403 10.8562   1
  -4   3   3 68.9896 4.39025   2
  -4   3   3 69.6593 8.15129   1
  -4   3   2 10.5276 5.15152   1
  -4   3   2 11.6691 3.18769   2
  -4   3   2 14.2278 5.25813   1
  -4   3   1 11.6746 4.82044   1
  -4   3   1 5.31023 4.40857   1
  -4   3   1 4.36672 2.96530   2
  -4   3   0 0.98660 3.86038   1
  -4   3   0-2.12188 3.85052   1
  -4   3   0-0.32994 3.29232   2
  -4   3  -1 12.9517 4.19672   1
  -4   3  -1 17.6048 4.17178   2
  -4   3  -1 12.5767 4.09778   1
  -4   3  -2 64.7181 6.72134   2
  -4   3  -2 64.0352 5.84617   1
  -4   3  -2 52.6519 5.67512   1
  -4   3  -3 562.015 17.5741   2
  -4   3  -3 572.794 14.2384   1
  -4   3  -3 571.945 14.4290   1
  -4   3  -4 7.24227 3.37739   1
  -4   3  -4 9.52276 3.21100   1
  -4   3  -4 4.60799 5.02241   2
  -4   3  -5 44.5459 7.63042   2
  -4   3  -5 44.9589 4.07178   1
  -4   3  -5 46.6290 4.19362   1
  -4   3  -6 1.52639 1.78986   1
  -4   3  -6 1.30614 1.79328   1
  -4   3  -6-4.53495 6.13812   2
  -4   3  -7 104.958 10.8777   2
  -4   3  -8 53.9021 10.0270   2
  -4   3  -9 46.6794 10.0688   2
  -4   3 -10 7.88271 10.1156   2
  -4   3 -11 1.61831 11.0163   2
  -4   3 -12 62.1322 15.3149   2
  -4   2  12 18.5094 12.3993   1
  -4   2  12-5.56284 12.3363   1
  -4   2  11 10.5060 11.6492   1
  -4   2  11 56.3910 13.9804   1
  -4   2  10 59.4499 11.6490   1
  -4   2   9 195.005 15.4582   1
  -4   2   8 243.622 16.3887   1
  -4   2   7 9.01426 6.91469   1
  -4   2   7-0.41255 6.68266   1
  -4   2   6 62.1888 8.49697   1
  -4   2   6 57.4401 8.64506   1
  -4   2   5 74.7381 9.02649   1
  -4   2   5 69.3290 8.94478   1
  -4   2   4 106.162 9.37474   1
  -4   2   4 109.555 9.50789   1
  -4   2   3 132.001 4.80202   2
  -4   2   3 131.731 9.85103   1
  -4   2   3 128.803 10.0805   1
  -4   2   2 33.7598 3.59218   2
  -4   2   2 24.7368 5.34683   1
  -4   2   2 35.0678 6.21968   1
  -4   2   1 0.25990 3.87287   1
  -4   2   1 2.18426 2.63891   2
  -4   2   1 0.03911 4.07959   1
  -4   2   0 86.0140 6.15660   2
  -4   2   0 87.0973 7.19253   1
  -4   2   0 83.3550 7.39008   1
  -4   2  -1 40.5798 5.15616   2
  -4   2  -1 52.1177 5.70879   1
  -4   2  -1 49.4899 6.05536   1
  -4   2  -2-5.59159 3.62216   1
  -4   2  -2 0.60958 3.74212   2
  -4   2  -2 4.45098 3.38292   1
  -4   2  -3 26.9589 4.34881   1
  -4   2  -3 23.1184 5.34616   2
  -4   2  -3 26.2416 4.53177   1
  -4   2  -4 7.00440 3.21068   1
  -4   2  -4 6.46921 3.43012   1
  -4   2  -4 6.11228 5.20537   2
  -4   2  -5 21.1964 3.68351   1
  -4   2  -5 27.2704 6.38390   2
  -4   2  -5 26.3545 4.15591   1
  -4   2  -6 11.9133 3.18456   1
  -4   2  -6 7.85486 2.98861   1
  -4   2  -6 5.69083 5.85111   2
  -4   2  -7 5.11916 2.56992   1
  -4   2  -7 10.3908 6.93843   2
  -4   2  -7 5.94926 2.26850   1
  -4   2  -8 1.90663 1.15590   1
  -4   2  -8 6.17209 7.96184   2
  -4   2  -9 9.03386 8.23613   2
  -4   2 -10 29.4544 11.2973   2
  -4   2 -11-5.01325 12.2315   2
  -4   1  13-8.11285 11.6916   1
  -4   1  13 4.51347 13.6009   1
  -4   1  12 79.1502 13.5082   1
  -4   1  12 81.6291 14.0912   1
  -4   1  11 13.2449 10.2015   1
  -4   1  11 7.23204 9.55698   1
  -4   1  10-5.80501 9.87760   1
  -4   1  10-0.27772 8.64825   1
  -4   1   9 46.8816 9.53390   1
  -4   1   9 57.4100 10.8290   1
  -4   1   8 26.0651 8.58527   1
  -4   1   8 17.8681 7.13426   1
  -4   1   7-4.54111 6.80776   1
  -4   1   7 0.77929 5.95507   1
  -4   1   6 134.942 10.8384   1
  -4   1   6 125.289 11.1719   1
  -4   1   5 10.2475 5.77546   1
  -4   1   5 21.8755 5.85643   1
  -4   1   4 81.9359 8.25077   1
  -4   1   4 69.5132 8.22123   1
  -4   1   3 17.6527 5.26459   1
  -4   1   3 21.6745 5.60231   1
  -4   1   3 12.7061 1.91638   2
  -4   1   2 461.113 10.0852   2
  -4   1   2 474.833 16.7033   1
  -4   1   2 480.973 16.2926   1
  -4   1   1 47.1504 4.49459   2
  -4   1   1 43.8780 5.81573   1
  -4   1   1 44.0120 6.33348   1
  -4   1   0 63.6961 5.50855   2
  -4   1   0 63.3868 6.49589   1
  -4   1   0 66.4513 6.74650   1
  -4   1  -1 198.338 9.43320   2
  -4   1  -1 191.823 9.66921   1
  -4   1  -1 194.463 10.0730   1
  -4   1  -2 8.98588 3.63181   1
  -4   1  -2 4.82165 3.88378   2
  -4   1  -2 5.30018 4.08349   1
  -4   1  -3 133.959 9.30046   2
  -4   1  -3 123.621 7.89348   1
  -4   1  -3 132.550 7.79527   1
  -4   1  -4 165.122 10.8171   2
  -4   1  -4 156.184 8.61182   1
  -4   1  -4 153.753 8.13924   1
  -4   1  -5 247.561 13.5777   2
  -4   1  -5 232.445 9.51679   1
  -4   1  -5 225.040 9.82973   1
  -4   1  -6 8.81917 3.90988   1
  -4   1  -6 19.8179 6.74398   2
  -4   1  -7 59.7654 5.42865   1
  -4   1  -7 54.5093 8.88890   2
  -4   1  -8-4.88704 3.24862   1
  -4   1  -8 9.92738 7.81950   2
  -4   1  -9 3.53306 3.34430   1
  -4   1  -9 5.15230 8.80731   2
  -4   1 -10 38.1352 12.0924   2
  -4   1 -10 29.9309 3.28576   1
  -4   1 -11-8.81508 13.0622   2
  -4   0  13-17.1660 13.4564   1
  -4   0  13-11.6474 12.4227   1
  -4   0  12 58.4851 12.7820   1
  -4   0  12 78.1605 13.1832   1
  -4   0  11 6.90603 10.0240   1
  -4   0  11-7.84207 9.01038   1
  -4   0  10 36.2687 9.48275   1
  -4   0  10 8.22234 8.14805   1
  -4   0   9 6.79431 7.33362   1
  -4   0   9-6.42359 6.32047   1
  -4   0   8 10.8298 6.97191   1
  -4   0   8 1.26517 5.91196   1
  -4   0   7 5.43551 5.72804   1
  -4   0   7 10.4104 5.93610   1
  -4   0   6 36.7614 7.60617   1
  -4   0   6 38.4611 7.18608   1
  -4   0   5 51.9117 7.40971   1
  -4   0   5 51.3131 7.09702   1
  -4   0   4 25.9671 6.29813   1
  -4   0   4 23.6205 5.62705   1
  -4   0   3-0.33382 1.69617   2
  -4   0   3-2.56346 4.71925   1
  -4   0   3-0.26617 1.65973   2
  -4   0   3-2.51738 4.65814   1
  -4   0   2 9.11640 4.93095   1
  -4   0   2 8.16208 2.67848   2
  -4   0   2 7.36407 4.34722   1
  -4   0   2 10.8269 2.71770   2
  -4   0   1 179.474 7.77240   2
  -4   0   1 179.241 10.1588   1
  -4   0   1 196.652 11.0337   1
  -4   0   0 54.2279 6.28261   1
  -4   0   0 47.2012 5.07962   2
  -4   0   0 50.4662 6.47482   1
  -4   0  -1 265.603 11.6131   1
  -4   0  -2 1.04119 3.59661   1
   4   0   2-0.16711 3.54948   1
   4   0   3 46.9224 5.60951   1
  -4   0  -3 45.8246 5.59894   1
  -4   0  -4 9.79175 4.35337   1
   4   0   4 3.77619 3.88478   1
   4   0   5 315.712 11.9312   1
  -4   0  -5 317.686 12.0748   1
  -4   0  -6 4.77293 4.36101   1
   4   0   6 1.20350 3.95297   1
   4   0   7 11.3836 4.79893   1
  -4   0  -7 14.4470 4.92576   1
  -4   0  -8 9.15731 4.90072   1
   4   0   8 13.1560 4.70797   1
  -4   0  -9 26.3731 5.81942   1
   4   0   9 35.8024 6.03092   1
  -4   0 -10 47.2409 12.8755   2
   4   0  10 28.9390 6.11687   1
  -4   0 -10 33.0912 6.39933   1
  -4   0 -11 49.4049 6.47504   1
   4   0  11 28.2636 6.32910   1
  -4  -1  14 15.2432 13.5603   1
  -4  -1  14 38.7074 14.6912   1
  -4  -1  13 16.9489 10.5972   1
  -4  -1  13 14.3545 11.8132   1
  -4  -1  12 128.458 14.6444   1
  -4  -1  12 125.221 14.3604   1
  -4  -1  11 12.4459 8.00810   1
  -4  -1  11 6.27671 9.23866   1
  -4  -1  10 23.9119 9.20365   1
  -4  -1  10 34.6733 9.47834   1
  -4  -1   9 12.1869 7.18937   1
  -4  -1   9 5.87782 6.62946   1
  -4  -1   8 11.1445 7.04942   1
  -4  -1   8 1.81837 6.26732   1
  -4  -1   7 21.4534 7.08094   1
  -4  -1   7 18.5561 6.16780   1
  -4  -1   6 125.046 10.2386   1
  -4  -1   6 129.740 10.7994   1
  -4  -1   5 2.81096 5.02056   1
  -4  -1   5-3.95732 5.10222   1
  -4  -1   4 47.8927 2.85456   2
  -4  -1   4 41.6438 2.61861   2
  -4  -1   4 45.3718 6.81179   1
  -4  -1   4 53.0707 7.57705   1
  -4  -1   3 1.21642 4.46489   1
  -4  -1   3 4.63375 2.47090   2
  -4  -1   3 2.53592 5.11872   1
  -4  -1   2 77.6185 5.33161   2
  -4  -1   2 75.2774 7.61175   1
  -4  -1   2 74.7712 8.16265   1
  -4  -1   1 101.508 6.59560   2
  -4  -1   1 90.0852 8.05779   1
   4   1  -1 89.8771 7.92067   1
  -4  -1   0 137.255 8.10260   2
  -4  -1   0 131.353 9.12418   1
   4   1   0 138.154 9.33698   1
   4   1   1 73.1722 7.23732   1
  -4  -1  -1 78.4013 7.34739   1
   4   1   2-3.09446 4.32563   1
  -4  -1  -2 7.86136 4.43367   1
  -4  -1  -3 160.186 9.61818   1
   4   1   3 158.285 9.74340   1
  -4  -1  -4 5.04239 4.50333   1
   4   1   4-1.87295 4.55574   1
  -4  -1  -5 34.9992 6.01706   1
   4   1   5 27.9634 6.01482   1
  -4  -1  -6-6.69940 5.28145   1
   4   1   6-7.01849 5.47069   1
  -4  -1  -7 61.5386 7.94554   1
   4   1   7 60.2318 7.72368   1
  -4  -1  -8 426.147 15.9540   1
   4   1   8 440.354 16.1328   1
   4   1   9 22.4012 7.35804   1
  -4  -1  -9 12.8850 6.79425   1
   4   1  10 15.9103 7.05883   1
  -4  -1 -10-11.7789 7.42804   1
  -4  -2  14-8.95731 12.5275   1
  -4  -2  14 69.7727 14.6811   1
  -4  -2  13-4.64256 11.7585   1
  -4  -2  13 67.1882 14.2276   1
  -4  -2  12 17.5051 11.0760   1
  -4  -2  12 4.57971 9.72830   1
  -4  -2  11 19.1034 10.0914   1
  -4  -2  11 33.9944 9.75270   1
  -4  -2  10 3.54720 8.31688   1
  -4  -2  10 24.2155 8.42488   1
  -4  -2   9 140.047 12.4929   1
  -4  -2   9 95.8944 11.8296   1
  -4  -2   8-0.42699 7.01684   1
  -4  -2   8-1.53594 5.92148   1
  -4  -2   7 28.2100 6.75383   1
  -4  -2   7 39.3485 8.42299   1
  -4  -2   6 43.0292 7.65284   1
  -4  -2   6 47.0101 8.01854   1
  -4  -2   5 204.291 5.73211   2
  -4  -2   5 183.296 12.0383   1
  -4  -2   5 201.965 12.9682   1
  -4  -2   4 46.2140 4.01223   2
  -4  -2   4 52.6605 7.15115   1
  -4  -2   4 49.8610 7.66410   1
  -4  -2   3-0.83826 2.70002   2
  -4  -2   3-0.31749 4.25238   1
   4   2  -3-0.54849 4.23612   1
  -4  -2   2 130.557 7.35097   2
  -4  -2   2 126.501 9.74005   1
   4   2  -2 139.903 9.96821   1
  -4  -2   1 38.4029 6.49550   1
  -4  -2   1 35.1693 5.04630   2
   4   2  -1 36.5945 6.24622   1
  -4  -2   0 15.9853 5.15784   1
   4   2   0 24.6282 5.59328   1
  -4  -2   0 18.2199 4.79189   2
  -4  -2  -1 33.4807 5.61442   2
  -4  -2  -1 32.1734 6.03615   1
   4   2   1 33.3112 6.19840   1
  -4  -2  -2 29.6260 6.14855   2
  -4  -2  -2 23.4131 5.70768   1
   4   2   2 21.4017 5.71829   1
  -4  -2  -3 4.37331 4.93135   1
   4   2   3 8.85760 5.08062   1
  -4  -2  -4-0.65377 4.86721   1
  -4  -2  -4 7.38797 5.73615   2
   4   2   4 9.48588 5.23058   1
  -4  -2  -5 33.2498 8.34257   2
  -4  -2  -5 20.8040 5.97573   1
   4   2   5 19.9283 6.23431   1
  -4  -2  -6 19.8675 8.10324   2
   4   2   6 18.1375 6.81667   1
  -4  -2  -6 29.0015 6.74355   1
  -4  -2  -7 27.1319 9.72219   2
   4   2   7 18.2365 6.96361   1
  -4  -2  -7 33.5469 7.57527   1
   4   2   8 14.6089 8.23054   1
  -4  -2  -8 20.0082 11.1561   2
  -4  -2  -8 20.5200 8.04215   1
   4   2   9 35.6970 9.03640   1
  -4  -2  -9 46.2204 9.23115   1
   4   2  10-0.10286 9.16382   1
  -4  -2 -10 20.0262 13.9152   2
  -4  -2 -10 10.3970 9.44481   1
  -4  -3  14-11.8455 12.2002   1
  -4  -3  14 6.61034 12.9196   1
  -4  -3  13-6.39427 11.0238   1
  -4  -3  13 21.6160 11.3087   1
  -4  -3  12 21.8486 10.2500   1
  -4  -3  12-3.27537 9.59300   1
  -4  -3  11 32.9039 9.39591   1
  -4  -3  11 59.3258 11.4007   1
  -4  -3  10 11.8422 7.92625   1
  -4  -3  10 17.9156 8.30592   1
  -4  -3   9 29.3015 9.02872   1
  -4  -3   9 21.0881 7.73059   1
  -4  -3   8 572.758 22.0430   1
  -4  -3   8 558.581 22.5719   1
  -4  -3   7 58.7927 3.16483   2
  -4  -3   7 60.0304 8.77541   1
  -4  -3   7 68.2597 9.63128   1
  -4  -3   6 95.3801 4.97398   2
  -4  -3   6 92.2100 9.69961   1
  -4  -3   6 101.170 10.4885   1
  -4  -3   5 3.88263 2.97695   2
   4   3  -5 0.57146 5.47811   1
  -4  -3   5-1.48615 5.30459   1
  -4  -3   4 71.1877 5.55062   2
  -4  -3   4 68.1018 8.17764   1
   4   3  -4 77.2060 8.86637   1
  -4  -3   3 202.096 12.2607   1
  -4  -3   3 208.049 9.27356   2
   4   3  -3 214.460 12.8023   1
  -4  -3   2 309.628 14.7820   1
   4   3  -2 317.976 15.0118   1
  -4  -3   2 305.632 11.7683   2
  -4  -3   1 18.9967 5.98103   1
  -4  -3   1 28.4026 5.10329   2
   4   3  -1 26.0036 6.08652   1
  -4  -3   0 203.228 11.2344   2
   4   3   0 193.868 12.1615   1
  -4  -3   0 193.580 12.0555   1
  -4  -3  -1 21.2703 6.09527   2
   4   3   1 13.5896 5.79514   1
  -4  -3  -1 16.4661 6.04737   1
  -4  -3  -2 7.44201 5.34685   2
   4   3   2 6.06207 5.63355   1
  -4  -3  -2 14.4360 5.73782   1
   4   3   3 7.24711 6.29870   1
  -4  -3  -3 12.9358 6.15180   1
  -4  -3  -3 14.1688 6.66367   2
  -4  -3  -4 42.1777 8.57586   2
   4   3   4 39.0919 7.66346   1
  -4  -3  -4 42.0647 7.70715   1
   4   3   5 9.87240 6.71729   1
  -4  -3  -5 0.20999 6.53353   1
  -4  -3  -5-8.06642 8.31372   2
  -4  -3  -6 11.0062 9.16150   2
  -4  -3  -6 23.5548 8.32768   1
   4   3   6 30.5152 8.04304   1
  -4  -3  -7 32.3561 9.18505   1
  -4  -3  -7 25.6840 10.8413   2
   4   3   7 19.3630 8.23055   1
  -4  -3  -8 38.8685 12.8253   2
  -4  -3  -8 57.8234 10.7508   1
   4   3   8 28.4951 9.64235   1
  -4  -3  -9 24.4064 14.4986   2
  -4  -3  -9 18.0439 10.7417   1
   4   3   9 16.9374 10.7426   1
  -4  -4  14-7.36196 12.7343   1
  -4  -4  14 123.474 16.9133   1
  -4  -4  13-11.5892 11.7567   1
  -4  -4  13 57.3290 12.8373   1
  -4  -4  12 16.5640 10.8819   1
  -4  -4  12 15.1180 10.1632   1
  -4  -4  11-1.03524 9.43496   1
  -4  -4  11 9.84684 7.97896   1
  -4  -4  10-0.28237 8.90813   1
  -4  -4  10 7.34162 7.74012   1
  -4  -4   9 22.5580 3.00443   2
  -4  -4   9 23.9855 7.98415   1
  -4  -4   9 24.9427 8.71474   1
  -4  -4   8 23.8801 3.55030   2
  -4  -4   8 24.3136 7.74731   1
  -4  -4   8 15.5798 7.64787   1
  -4  -4   7 54.3881 8.75002   1
  -4  -4   7 56.1152 4.95815   2
  -4  -4   7 61.5202 10.0778   1
  -4  -4   6-3.08290 3.58181   2
  -4  -4   6 1.97483 5.84373   1
   4   4  -6-9.01077 7.00766   1
   4   4  -5 16.0463 6.62543   1
  -4  -4   5 9.33325 5.74086   1
  -4  -4   5 16.7957 4.23676   2
  -4  -4   4 26.6865 4.78563   2
  -4  -4   4 28.9480 7.40400   1
   4   4  -4 32.8699 7.21764   1
  -4  -4   3 25.2031 6.63478   1
  -4  -4   3 31.7633 5.59307   2
   4   4  -3 30.8149 6.84584   1
  -4  -4   2 85.7981 7.63386   2
   4   4  -2 81.7697 9.39768   1
  -4  -4   2 84.1010 9.41053   1
  -4  -4   1 121.893 9.18985   2
   4   4  -1 112.919 10.3514   1
  -4  -4   1 120.265 10.3061   1
  -4  -4   0 1.72575 4.86492   2
   4   4   0 8.45803 5.84345   1
  -4  -4   0-2.64178 5.74091   1
   4   4   1 17.6968 7.23184   1
  -4  -4  -1 19.1093 6.50432   2
  -4  -4  -1 12.6565 6.12837   1
   4   4   2 7.43075 6.68143   1
  -4  -4  -2 8.98793 6.23533   1
  -4  -4  -2 2.92189 6.20556   2
  -4  -4  -3 53.8910 9.13759   2
   4   4   3 60.5462 9.13572   1
  -4  -4  -3 56.2229 9.05681   1
  -4  -4  -4 29.2797 8.36150   1
  -4  -4  -4 27.1645 9.00401   2
   4   4   4 43.3033 9.03825   1
  -4  -4  -5 47.9944 9.87569   1
  -4  -4  -5 46.1291 10.5293   2
   4   4   5 35.7905 9.09423   1
   4   4   6 48.9000 10.8071   1
  -4  -4  -6 33.5310 11.6163   2
  -4  -4  -7 28.6160 11.7244   2
  -4  -4  -7 1.43907 10.2606   1
   4   4   7 37.4343 10.5264   1
  -4  -4  -8 49.3345 15.3620   2
  -4  -4  -8 11.6809 11.1901   1
   4   4   8 39.2128 12.6910   1
  -4  -5  14 3.53510 11.8099   1
  -4  -5  14 34.3831 12.2903   1
  -4  -5  13-2.41389 13.2480   1
  -4  -5  13 32.4938 12.2708   1
  -4  -5  12 4.77228 10.6126   1
  -4  -5  12 38.9658 11.2146   1
  -4  -5  11 109.297 13.4404   1
  -4  -5  11 98.9610 13.6867   1
  -4  -5  10 61.5130 5.76947   2
  -4  -5  10 53.1837 10.0960   1
  -4  -5   9-2.83870 7.19368   1
  -4  -5   9 3.92223 4.03577   2
  -4  -5   9 6.32434 8.32315   1
  -4  -5   8 12.9998 7.16910   1
  -4  -5   8 3.84700 4.02083   2
  -4  -5   7 207.447 14.8134   1
  -4  -5   7 195.585 9.69872   2
   4   5  -7 183.456 13.8053   1
   4   5  -6 5.92962 6.67427   1
  -4  -5   6 14.5528 6.93287   1
  -4  -5   6 12.8601 4.80727   2
  -4  -5   5 0.11819 6.13099   1
  -4  -5   5 0.99997 4.48194   2
   4   5  -5-1.07743 5.93260   1
   4   5  -4 6.77862 7.14030   1
  -4  -5   4 9.57794 5.13688   2
  -4  -5   4 23.0494 7.83081   1
  -4  -5   3 11.0809 5.22589   2
   4   5  -3-0.65374 6.07406   1
  -4  -5   3 6.95260 6.63737   1
  -4  -5   2 72.1510 8.54579   2
   4   5  -2 63.8394 9.86669   1
  -4  -5   2 75.3367 9.90663   1
  -4  -5   1 102.644 9.63786   2
   4   5  -1 96.4873 11.1411   1
  -4  -5   1 96.3606 10.9466   1
   4   5   0 18.9016 7.37749   1
  -4  -5   0 12.3284 6.40275   2
  -4  -5   0 12.0173 6.98450   1
   4   5   1 29.8186 8.50294   1
  -4  -5  -1 31.2695 7.87673   2
  -4  -5  -1 43.2135 9.20607   1
  -4  -5  -2 90.7028 11.1435   2
   4   5   2 87.6374 11.6842   1
  -4  -5  -2 101.488 11.6463   1
  -4  -5  -3 106.486 12.7907   2
  -4  -5  -3 94.3880 11.5525   1
  -4  -5  -4 10.0093 8.72385   1
  -4  -5  -4 16.7586 9.08951   2
   4   5   4 22.3529 9.02145   1
   4   5   5 59.2035 12.3105   1
  -4  -5  -5 37.3750 12.0147   2
  -4  -5  -5 33.4985 11.1351   1
  -4  -5  -6-9.99281 12.5902   2
   4   5   6-2.69647 11.1981   1
  -4  -5  -6 15.7150 11.2189   1
   4   5   7 5.54058 11.3908   1
  -4  -5  -7-9.94627 11.2647   1
  -4  -6  13-2.65456 12.3908   1
   4   6 -13 10.9082 5.85000   2
  -4  -6  12-7.84474 11.9186   1
   4   6 -12 5.66254 5.65984   2
  -4  -6  12-18.2251 11.3906   1
   4   6 -11 5.64758 5.79498   2
  -4  -6  11-9.46430 11.7534   1
  -4  -6  11 2.54548 5.48475   2
  -4  -6  11 11.0880 11.7932   1
  -4  -6  10 13.2562 8.89095   1
   4   6 -10-7.11138 5.97417   2
  -4  -6  10-4.89878 5.89498   2
  -4  -6  10-6.04297 9.38024   1
   4   6  -9 0.69406 5.26334   2
  -4  -6   9 1.88404 8.33939   1
  -4  -6   9-3.11305 5.39286   2
  -4  -6   8 32.0316 9.06366   1
  -4  -6   8 29.3007 6.57948   2
   4   6  -8 33.4271 9.44823   1
  -4  -6   7 196.291 11.1968   2
   4   6  -7 202.624 15.3143   1
  -4  -6   7 216.535 15.7526   1
   4   6  -6 0.46335 7.19418   1
  -4  -6   6-0.41161 5.49764   2
  -4  -6   6-3.97748 6.96293   1
  -4  -6   5 81.9458 8.58025   2
  -4  -6   5 72.3487 10.1060   1
   4   6  -5 71.1457 10.5837   1
  -4  -6   4 51.3846 8.07982   2
  -4  -6   4 41.6824 8.68031   1
   4   6  -4 58.3440 9.60081   1
  -4  -6   3 6.65636 6.42971   2
   4   6  -3 0.92339 8.10903   1
  -4  -6   3 15.6061 8.26515   1
   4   6  -2-7.91981 8.65779   1
  -4  -6   2-9.84862 7.43008   2
  -4  -6   2-1.17588 7.81911   1
  -4  -6   1 37.0916 8.55542   2
   4   6  -1 32.2001 9.12465   1
  -4  -6   1 42.9275 9.71065   1
  -4  -6   0 192.061 14.5174   2
   4   6   0 171.085 15.2827   1
  -4  -6   0 170.835 14.3397   1
   4   6   1 5.93214 8.77931   1
  -4  -6  -1 12.9701 8.83777   1
  -4  -6  -1-9.43263 8.34763   2
  -4  -6  -2 6.13486 9.11534   1
  -4  -6  -2 2.40575 9.00107   2
   4   6   2-3.33275 9.68764   1
  -4  -6  -3 6.17276 9.94025   1
  -4  -6  -3 24.6957 10.9624   2
   4   6   3 19.1001 10.7924   1
   4   6   4 22.1244 10.8282   1
  -4  -6  -4-2.00379 11.0142   1
   4   6   5-9.49574 11.7102   1
  -4  -6  -5 14.5430 12.8554   1
  -4  -7  12-10.8073 10.9568   1
   4   7 -12 12.7901 7.70172   2
  -4  -7  12-1.77153 7.94339   2
  -4  -7  12 19.3610 12.4125   1
  -4  -7  11 19.8738 10.9202   1
   4   7 -11 32.7950 7.86857   2
  -4  -7  11 28.0994 7.59512   2
  -4  -7  10 7.99016 10.0240   1
   4   7 -10 10.5889 7.19024   2
  -4  -7  10 14.3515 7.79072   2
  -4  -7  10 14.8970 11.6138   1
   4   7  -9 108.935 10.2932   2
  -4  -7   9 115.546 10.5308   2
   4   7  -9 105.239 14.1675   1
  -4  -7   9 103.080 14.1209   1
   4   7  -8 57.5241 8.48874   2
  -4  -7   8 66.3114 8.96039   2
   4   7  -8 56.7623 12.0595   1
  -4  -7   8 86.4586 12.7580   1
  -4  -7   7 12.7927 7.07507   2
   4   7  -7 19.1133 9.81098   1
  -4  -7   7 3.95624 8.40472   1
   4   7  -6 0.07276 8.36196   1
  -4  -7   6 1.19997 7.33087   2
  -4  -7   6 5.19567 8.94050   1
  -4  -7   5 7.16223 7.05539   2
  -4  -7   5 2.19775 9.05194   1
   4   7  -5 11.4450 9.44868   1
  -4  -7   4 4.59045 7.26225   2
  -4  -7   4 2.00943 9.01512   1
   4   7  -4-11.0345 9.67178   1
   4   7  -3 31.6972 10.5745   1
  -4  -7   3 4.90160 8.10610   2
  -4  -7   3 16.7067 9.94782   1
   4   7  -2 9.30912 9.34140   1
  -4  -7   2-11.7493 8.75579   1
  -4  -7   2 5.59290 8.13674   2
  -4  -7   1 302.058 17.8587   2
   4   7  -1 274.095 19.2108   1
  -4  -7   1 274.416 18.6159   1
   4   7   0 33.9241 11.4660   1
  -4  -7   0 48.2064 11.0588   2
  -4  -7   0 33.9880 11.3658   1
  -4  -7  -1 54.7932 12.5856   1
  -4  -7  -1 39.6478 11.7674   2
   4   7   1 17.1680 11.3758   1
  -4  -7  -2 1.30681 11.2218   1
  -4  -7  -2 2.94676 10.7625   2
   4   7   2 0.32853 12.1241   1
  -4  -7  -3 145.854 17.2998   2
  -4  -7  -3 120.187 16.3323   1
   4   7   4 11.1306 8.55905   1
  -4  -7  -4 19.0477 8.85104   1
   4   8 -11 72.8340 11.5589   2
  -4  -8  11 57.4827 10.8939   2
  -4  -8  11 78.8583 15.3725   1
   4   8 -10 50.0293 10.2441   2
   4   8 -10 35.0943 13.4635   1
  -4  -8  10 38.3885 9.69900   2
  -4  -8  10 41.5986 13.3628   1
   4   8  -9 110.967 11.9248   2
  -4  -8   9 132.392 12.4974   2
  -4  -8   9 95.5507 14.2632   1
   4   8  -8 23.5683 9.41948   2
  -4  -8   8 14.1426 9.07799   2
  -4  -8   8 34.8684 11.6869   1
   4   8  -8 16.3411 11.1308   1
   4   8  -7 70.0798 13.4223   1
  -4  -8   7 91.7204 12.1254   2
  -4  -8   7 60.8098 13.3988   1
  -4  -8   6-0.95061 8.85806   2
  -4  -8   6 6.89612 11.5614   1
   4   8  -6 20.2137 11.5689   1
  -4  -8   5 8.10170 11.0802   1
  -4  -8   5-10.3221 8.84870   2
   4   8  -5-5.90967 10.8952   1
  -4  -8   4-1.11599 9.98538   1
   4   8  -4 22.8321 12.5104   1
  -4  -8   4 0.38907 8.53764   2
  -4  -8   3 122.858 13.8671   2
  -4  -8   3 134.901 15.4700   1
   4   8  -3 92.4305 14.1397   1
  -4  -8   2 185.839 16.1435   2
   4   8  -2 227.757 20.0107   1
  -4  -8   2 177.491 17.8193   1
   4   8  -1-6.98785 12.4202   1
  -4  -8   1-0.16858 12.2148   1
  -4  -8   1-5.01023 10.7367   2
   4   8   0 26.5834 12.9234   1
  -4  -8   0 56.7962 13.9039   1
  -4  -8   0 59.2175 13.2813   2
  -4  -8  -1 15.4262 14.3578   1
  -4  -8  -1-16.0553 13.3191   2
   4   8   1-12.1958 12.4793   1
   4   9  -9 33.3889 10.1361   1
   4   9  -9 1.59770 5.56205   2
  -4  -9   9 40.6343 9.68841   1
  -4  -9   9 6.53260 6.13336   2
   4   9  -8 33.9798 12.0053   2
   4   9  -8 3.44480 12.8248   1
  -4  -9   8 2.54198 12.6585   1
  -4  -9   8-10.5687 10.7444   2
   4   9  -7 7.00165 13.8157   1
  -4  -9   7 25.4519 13.0549   1
  -4  -9   7 37.8715 11.4452   2
  -4  -9   6 23.8755 14.7428   1
  -4  -9   6 15.5667 10.4137   2
   4   9  -6 3.66042 13.4727   1
  -4  -9   5 20.9828 13.3653   1
  -4  -9   5 10.9316 11.8310   2
   4   9  -5 9.69422 13.9300   1
  -4  -9   4-4.72689 13.4465   1
   4   9  -4 30.1660 15.3057   1
  -4  -9   4-5.09383 12.0578   2
  -4  -9   3 50.0613 16.1239   1
   4   9  -3 22.5420 13.2623   1
  -4  -9   2 18.2812 11.7732   2
  -5   8   1-4.35024 9.72687   2
   5  -8  -1 7.46417 9.32289   2
  -5   8   1-1.81311 11.2984   1
   5  -8  -1 15.7682 12.2411   1
  -5   8   0 12.0073 10.1596   2
   5  -8   0 46.2032 12.2681   1
  -5   8   0 36.0730 12.2220   1
  -5   8  -1 17.7140 10.0857   2
  -5   8  -1 38.4189 11.2302   1
  -5   8  -2 44.8854 10.4220   1
  -5   8  -2 35.6303 11.8419   2
  -5   8  -2 27.7719 9.74951   1
  -5   8  -3 0.06631 10.4699   2
  -5   8  -3-1.45188 7.90819   1
  -5   8  -3 13.5917 8.74732   1
  -5   8  -4 82.3850 13.9331   2
  -5   8  -4 75.3707 9.68290   1
  -5   8  -4 87.3440 9.42283   1
  -5   8  -5 5.06299 5.42941   1
  -5   8  -5 9.30945 5.85742   1
  -5   8  -5 1.03720 11.6526   2
  -5   7   4 12.5203 7.54102   2
  -5   7   4-16.9033 12.5166   1
   5  -7  -4 20.3873 14.8045   1
  -5   7   3 43.7346 8.52825   2
  -5   7   3 37.0235 12.1829   1
   5  -7  -3 67.7050 13.9978   1
  -5   7   2-2.83413 7.91254   2
  -5   7   2-15.5745 11.5517   1
   5  -7  -2 0.38119 11.0214   1
  -5   7   1 4.75564 7.29747   2
  -5   7   1-6.08785 9.37276   1
   5  -7  -1 20.3754 11.2449   1
  -5   7   0 27.0825 9.68438   1
  -5   7   0 19.2208 8.68025   2
  -5   7   0 15.0847 9.46439   1
  -5   7  -1-5.12478 7.88093   2
  -5   7  -1-4.90840 7.98504   1
  -5   7  -2-0.73857 8.11347   2
  -5   7  -2-8.98520 7.03787   1
  -5   7  -2 8.45493 7.61097   1
  -5   7  -3 48.1194 10.8380   2
  -5   7  -3 34.9308 8.38630   1
  -5   7  -3 33.7669 8.01137   1
  -5   7  -4 56.6589 11.0078   2
  -5   7  -4 53.4719 7.92912   1
  -5   7  -4 64.9034 7.87854   1
  -5   7  -5 29.6972 5.28989   1
  -5   7  -5 31.5966 10.8021   2
  -5   7  -5 14.1467 4.91867   1
  -5   7  -6 36.7201 12.2702   2
  -5   7  -7 54.1378 14.0844   2
  -5   6   6 57.5658 15.9853   1
   5  -6  -6 69.8925 16.0359   1
  -5   6   5-13.1831 12.7639   1
   5  -6  -5-2.60925 12.6480   1
  -5   6   4 18.6534 5.81564   2
  -5   6   4 16.8452 11.1072   1
   5  -6  -4 8.50328 11.7170   1
  -5   6   3 18.2975 6.22396   2
  -5   6   3 16.6659 10.1005   1
   5  -6  -3 11.8886 10.2886   1
  -5   6   2 10.2481 6.50686   2
  -5   6   2 1.03387 8.79461   1
  -5   6   1 11.6484 8.43315   1
  -5   6   1 0.60292 6.32656   2
  -5   6   1 6.67720 8.15278   1
  -5   6   0 0.79469 6.90487   2
  -5   6   0-4.68931 7.78850   1
  -5   6   0-14.8035 8.22270   1
  -5   6  -1 48.9044 8.35047   2
  -5   6  -1 52.8935 8.30495   1
  -5   6  -1 40.5171 8.42348   1
  -5   6  -2 19.4903 6.62354   1
  -5   6  -2 14.9007 7.78379   2
  -5   6  -2 18.2789 7.18740   1
  -5   6  -3 41.5509 7.39856   1
  -5   6  -3 41.9458 9.25105   2
  -5   6  -3 28.2727 6.66812   1
  -5   6  -4 35.1270 6.13310   1
  -5   6  -4 46.0639 10.2883   2
  -5   6  -4 46.8013 7.04146   1
  -5   6  -5 32.7637 5.06091   1
  -5   6  -5 27.6333 5.07701   1
  -5   6  -5 35.1595 10.7802   2
  -5   6  -6-2.61677 9.41179   2
  -5   6  -7 100.019 14.1197   2
  -5   6  -8-11.9381 12.8890   2
  -5   5   8-5.04980 10.8968   1
   5  -5  -8-27.1999 13.2155   1
  -5   5   7 93.2167 16.1014   1
   5  -5  -7 67.2328 15.7483   1
  -5   5   6 173.012 17.6031   1
   5  -5  -6 132.788 17.9340   1
  -5   5   5 12.5738 10.0596   1
  -5   5   4 0.83467 3.64496   2
  -5   5   4 0.76604 9.34584   1
  -5   5   3 134.573 13.4737   1
  -5   5   3 138.922 8.04961   2
  -5   5   3 152.443 13.9197   1
  -5   5   2 85.2302 11.0725   1
  -5   5   2 70.0822 7.14404   2
  -5   5   1 35.5134 8.67497   1
  -5   5   1 32.9344 6.58832   2
  -5   5   1 27.4717 7.94921   1
  -5   5   0 46.2573 8.44551   1
  -5   5   0 31.4042 6.87912   2
  -5   5   0 20.7807 7.44823   1
  -5   5  -1 57.5143 8.76328   1
  -5   5  -1 51.9290 7.93349   2
  -5   5  -1 39.3196 7.83778   1
  -5   5  -2-4.55239 6.01354   1
  -5   5  -2 1.04401 6.24711   2
  -5   5  -2-2.61896 5.40769   1
  -5   5  -3 62.3973 7.60959   1
  -5   5  -3 57.0565 8.76619   2
  -5   5  -3 55.4261 7.20939   1
  -5   5  -4 16.9374 7.70604   2
  -5   5  -4 6.67158 4.75431   1
  -5   5  -4 4.92336 4.73010   1
  -5   5  -5 5.43882 3.88006   1
  -5   5  -5 1.63788 8.29072   2
  -5   5  -5 3.06670 3.96904   1
  -5   5  -6 13.3738 1.47236   1
  -5   5  -6 12.7223 9.09150   2
  -5   5  -7 16.1219 9.86929   2
  -5   5  -8 28.9369 11.5094   2
  -5   5  -9 48.2567 14.7409   2
  -5   4   9 134.062 18.3121   1
  -5   4   9 140.004 18.1399   1
  -5   4   8 72.4281 13.9530   1
  -5   4   8 66.7674 13.5783   1
  -5   4   7 14.0240 11.3675   1
  -5   4   7-1.20687 10.9094   1
  -5   4   6 28.4597 10.0722   1
  -5   4   6 21.6621 10.6965   1
  -5   4   5 57.3068 11.0724   1
  -5   4   5 31.3069 9.79337   1
  -5   4   4-11.1449 7.81393   1
  -5   4   4 3.48174 2.33165   2
  -5   4   4-1.96373 7.98072   1
  -5   4   3 13.7001 7.86196   1
  -5   4   3 3.71089 3.55689   2
  -5   4   3 6.15998 7.96379   1
  -5   4   2 16.7263 7.40983   1
  -5   4   2 11.0944 4.44674   2
  -5   4   2 9.18532 6.73319   1
  -5   4   1 16.5329 6.98550   1
  -5   4   1 17.8338 7.15598   1
  -5   4   1 10.4451 4.89263   2
  -5   4   0 26.1051 6.87971   1
  -5   4   0 23.4556 5.73555   2
  -5   4   0 35.3308 7.39143   1
  -5   4  -1-1.06210 5.88801   1
  -5   4  -1 2.57140 5.41915   2
  -5   4  -1-2.08458 5.52228   1
  -5   4  -2 76.9230 8.58863   2
  -5   4  -2 83.7008 8.42024   1
  -5   4  -2 77.0468 8.19376   1
  -5   4  -3 3.74548 5.14677   1
  -5   4  -3-0.29323 6.25816   2
  -5   4  -3-0.96964 4.61199   1
  -5   4  -4 0.75170 4.51085   1
  -5   4  -4 2.16841 4.41764   1
  -5   4  -4 5.39759 6.84162   2
  -5   4  -5-7.02730 3.99460   1
  -5   4  -5-7.19670 7.90053   2
  -5   4  -5 4.38182 3.96926   1
  -5   4  -6 1.61036 2.31523   1
  -5   4  -6 0.74125 2.40530   1
  -5   4  -6-3.06061 8.87788   2
  -5   4  -7 17.0880 10.5090   2
  -5   4  -8 38.2859 12.0242   2
  -5   4  -9 0.56797 11.5132   2
  -5   3  10-4.82177 14.2319   1
  -5   3  10-15.3520 13.1919   1
  -5   3   9 50.8940 12.7784   1
  -5   3   9 22.2543 12.2791   1
  -5   3   8 120.614 15.7195   1
  -5   3   8 141.509 16.1215   1
  -5   3   7 52.6961 11.1585   1
  -5   3   7 46.5752 10.6046   1
  -5   3   6 13.8105 9.43402   1
  -5   3   6 16.6378 8.66754   1
  -5   3   5 28.4812 8.79542   1
  -5   3   5 35.2562 9.16274   1
  -5   3   4 96.5129 10.9491   1
  -5   3   4 89.5658 11.0041   1
  -5   3   3 76.3546 9.63594   1
  -5   3   3 76.2338 4.59866   2
  -5   3   3 87.1740 10.5839   1
  -5   3   2 52.3825 5.19525   2
  -5   3   2 48.5224 8.59504   1
  -5   3   2 42.0944 8.06507   1
  -5   3   1 39.5671 5.46736   2
  -5   3   1 49.0888 7.93276   1
  -5   3   1 38.2747 7.82669   1
  -5   3   0 51.0706 6.35315   2
  -5   3   0 50.4832 7.72583   1
  -5   3   0 53.0434 8.11990   1
  -5   3  -1 21.2739 5.77156   1
  -5   3  -1 23.0725 6.28151   1
  -5   3  -1 23.6860 5.78142   2
  -5   3  -2 85.8549 8.62707   2
  -5   3  -2 82.2728 8.09980   1
  -5   3  -2 68.4078 7.75010   1
  -5   3  -3-6.86988 5.42481   1
  -5   3  -3 0.10565 4.92296   1
  -5   3  -3 9.87489 6.10988   2
  -5   3  -4 9.03488 4.76212   1
  -5   3  -4 1.71228 4.52438   1
  -5   3  -4 2.77434 6.23298   2
  -5   3  -5 38.5651 9.06542   2
  -5   3  -5 45.5276 5.61997   1
  -5   3  -5 53.1192 6.09565   1
  -5   3  -6 16.6988 3.73819   1
  -5   3  -6 16.0504 3.89895   1
  -5   3  -6 23.1282 8.93215   2
  -5   3  -7 13.0877 9.01431   2
  -5   3  -7 0.23779 1.44168   1
  -5   3  -8 60.9316 12.9481   2
  -5   3  -9 123.976 16.0644   2
  -5   2  10 21.4173 11.6359   1
  -5   2  10-22.5984 14.3455   1
  -5   2   9 7.72898 10.1215   1
  -5   2   9 0.33115 10.3053   1
  -5   2   8 14.5713 10.6156   1
  -5   2   8 5.04982 10.2121   1
  -5   2   7-12.3809 8.79880   1
  -5   2   7-13.9000 8.98714   1
  -5   2   6 13.4263 8.57843   1
  -5   2   6 5.61203 8.50576   1
  -5   2   5-6.22054 8.22154   1
  -5   2   5 5.93105 6.90278   1
  -5   2   4 7.09053 6.56182   1
  -5   2   4 11.4417 7.35285   1
  -5   2   3 4.78911 7.03675   1
  -5   2   3 1.99292 2.06467   2
  -5   2   3-7.17592 6.25218   1
  -5   2   2 17.2418 7.00097   1
  -5   2   2 8.02966 3.56794   2
  -5   2   1 122.447 7.61312   2
  -5   2   1 139.357 10.8458   1
  -5   2   1 116.636 10.5321   1
  -5   2   0 197.997 10.1230   2
  -5   2   0 222.000 12.7875   1
  -5   2   0 215.351 12.8753   1
  -5   2  -1 21.9656 6.70380   1
  -5   2  -1 32.5760 6.20092   2
  -5   2  -1 24.2573 6.23563   1
  -5   2  -2 12.7079 5.54256   1
  -5   2  -2 5.31879 4.94996   1
  -5   2  -2-0.33578 5.08105   2
  -5   2  -3 165.929 9.93005   1
  -5   2  -3 158.859 11.2852   2
  -5   2  -3 155.498 10.2402   1
  -5   2  -4 22.6861 5.54209   1
  -5   2  -4 18.0091 7.12230   2
  -5   2  -4 25.1816 5.83049   1
  -5   2  -5 5.90958 5.17267   1
  -5   2  -5 7.66090 4.81046   1
  -5   2  -5-3.33075 6.88106   2
  -5   2  -6 29.8244 5.25996   1
  -5   2  -6 29.5274 8.96680   2
  -5   2  -6 30.8922 5.62297   1
  -5   2  -7 4.91571 3.84153   1
  -5   2  -7-2.62014 9.40280   2
  -5   2  -7 8.53199 3.77532   1
  -5   2  -8 1.55304 2.06557   1
  -5   2  -8-16.4593 11.3146   2
  -5   2  -9 99.3956 16.1646   2
  -5   1  11 92.0789 16.4058   1
  -5   1  11 41.2156 15.3452   1
  -5   1  10 17.1153 12.9723   1
  -5   1  10 35.8435 11.7730   1
  -5   1   9 3.57719 9.34976   1
  -5   1   9 11.0008 10.1847   1
  -5   1   8 48.4379 11.0544   1
  -5   1   8 31.8344 9.88349   1
  -5   1   7 3.94706 7.86151   1
  -5   1   7 5.95478 8.96040   1
  -5   1   6 84.6647 11.0731   1
  -5   1   6 81.6785 11.2996   1
  -5   1   5 6.10190 7.65437   1
  -5   1   5 30.3255 8.25771   1
  -5   1   4 4.33806 6.76583   1
  -5   1   4-0.17156 6.24328   1
  -5   1   3 26.5101 3.06838   2
  -5   1   3 28.7518 3.09873   2
  -5   1   3 25.4384 7.38429   1
  -5   1   3 38.7188 8.68244   1
  -5   1   2 243.719 8.77399   2
  -5   1   2 241.480 14.0147   1
  -5   1   2 248.383 14.5624   1
  -5   1   1 124.027 7.53468   2
  -5   1   1 122.948 10.3338   1
  -5   1   1 133.225 11.0732   1
  -5   1   0 7.81434 5.96003   1
  -5   1   0 1.10630 4.15591   2
  -5   1   0 1.88224 5.43081   1
  -5   1  -1 34.4234 6.08315   2
  -5   1  -1 32.5978 6.61000   1
  -5   1  -1 40.5038 7.65565   1
  -5   1  -2 138.341 10.0532   1
  -5   1  -2 126.870 9.76645   2
  -5   1  -2 142.257 10.4622   1
  -5   1  -3 29.1787 6.87182   1
  -5   1  -3 37.0900 7.42836   2
  -5   1  -3 41.6607 6.52422   1
  -5   1  -4 5.49852 5.64250   1
  -5   1  -4-5.55162 5.43816   1
  -5   1  -4 3.18728 6.95812   2
  -5   1  -5 11.9390 5.96199   1
  -5   1  -5 10.5321 5.61013   1
  -5   1  -5 10.2535 7.91673   2
  -5   1  -6 29.4072 5.85175   1
  -5   1  -6 15.1799 8.52003   2
  -5   1  -6 23.6683 6.28201   1
  -5   1  -7 17.2306 6.08461   1
  -5   1  -7-1.89993 9.65163   2
  -5   1  -7 13.9554 5.48483   1
  -5   1  -8 17.3693 5.57853   1
  -5   1  -8 30.9379 11.5405   2
  -5   1  -8 21.3437 5.31164   1
  -5   1  -9 8.05201 4.60119   1
  -5   1  -9 9.71669 3.87660   1
  -5   0  12 18.4940 14.0428   1
  -5   0  12-1.26954 12.5430   1
  -5   0  11 37.4847 12.7512   1
  -5   0  11 30.2377 11.7765   1
  -5   0  10-2.31566 10.2863   1
  -5   0  10 3.60114 11.4147   1
  -5   0   9 17.7825 9.48377   1
  -5   0   9-7.15561 9.89112   1
  -5   0   8 96.8656 12.5148   1
  -5   0   8 97.9490 12.6851   1
  -5   0   7 20.8169 8.95266   1
  -5   0   7 23.9347 9.23659   1
  -5   0   6 223.427 15.3479   1
  -5   0   6 244.332 16.3222   1
  -5   0   5 7.74783 7.72253   1
  -5   0   5 1.38086 6.84383   1
  -5   0   4 28.4441 8.57051   1
  -5   0   4 4.07085 6.63364   1
  -5   0   3 52.9523 4.27228   2
  -5   0   3 56.5128 4.26759   2
  -5   0   3 74.3346 9.52416   1
  -5   0   3 55.8518 8.81522   1
  -5   0   2 81.5549 6.08256   2
  -5   0   2 75.8245 5.84098   2
  -5   0   2 80.8231 9.47092   1
  -5   0   2 81.6751 9.52472   1
  -5   0   1 31.3622 7.45703   1
  -5   0   1 36.9655 5.45404   2
  -5   0   1 42.3389 7.63961   1
  -5   0   1 31.8281 5.22358   2
  -5   0   0-5.33844 5.31752   1
  -5   0   0-5.62500 4.24445   2
  -5   0   0 7.86653 6.17725   1
  -5   0  -1 116.200 10.0228   1
  -5   0  -1 108.960 8.81406   2
  -5   0  -1 120.400 10.6800   1
  -5   0  -2 59.2516 7.90791   2
  -5   0  -2 66.2448 8.60832   1
  -5   0  -2 74.9283 8.22784   1
  -5   0  -3 13.6923 6.66919   2
  -5   0  -3 24.6704 6.14551   1
  -5   0  -3 26.6561 7.27638   1
  -5   0  -4 25.0768 6.65387   1
  -5   0  -4 30.2654 8.20757   2
  -5   0  -4 30.6491 7.30720   1
  -5   0  -5 26.7316 6.67625   1
  -5   0  -5 19.8183 8.32435   2
  -5   0  -6 53.6062 11.2560   2
  -5   0  -6 44.7448 7.54333   1
  -5   0  -7 55.1114 8.28381   1
  -5   0  -7 36.0874 11.8469   2
  -5   0  -8-7.11092 11.8921   2
  -5   0  -8 4.62406 6.66098   1
  -5   0  -9 69.4526 7.82333   1
  -5   0  -9 108.055 15.5598   2
  -5  -1  12-5.01121 12.2744   1
  -5  -1  12 15.9206 13.4729   1
  -5  -1  11 16.8670 12.6144   1
  -5  -1  11 8.25061 10.8325   1
  -5  -1  10 25.5074 12.4217   1
  -5  -1  10 25.9676 11.8505   1
  -5  -1   9 13.7836 9.11015   1
  -5  -1   9 21.5552 9.77882   1
  -5  -1   8 8.91172 9.02146   1
  -5  -1   8-0.84370 7.95947   1
  -5  -1   7-13.7549 9.36727   1
  -5  -1   7 7.75777 8.46255   1
  -5  -1   6 29.4050 9.15756   1
  -5  -1   6 25.6140 8.21554   1
  -5  -1   5 21.9196 8.48999   1
  -5  -1   5 2.50195 6.60575   1
  -5  -1   4 282.101 7.16938   2
  -5  -1   4 260.226 6.76456   2
  -5  -1   4 291.649 16.0664   1
  -5  -1   4 291.251 16.9867   1
  -5  -1   3 128.193 6.71409   2
  -5  -1   3 116.986 6.44487   2
  -5  -1   3 125.443 11.4758   1
  -5  -1   3 145.278 12.4512   1
  -5  -1   2 10.5289 4.19649   2
  -5  -1   2 8.35669 6.44198   1
  -5  -1   2 5.22309 3.84147   2
  -5  -1   2 13.7926 7.17404   1
  -5  -1   1 22.4000 5.36267   2
  -5  -1   1 18.0056 6.57987   1
  -5  -1   1 10.1758 6.56151   1
  -5  -1   0 330.389 15.9818   1
  -5  -1   0 332.363 13.8817   2
  -5  -1   0 318.832 16.4483   1
  -5  -1  -1 100.740 9.26117   2
   5   1   1 94.1230 9.57385   1
  -5  -1  -1 82.1219 9.13920   1
  -5  -1  -2 8.11117 6.40190   2
   5   1   2-2.92324 5.83852   1
  -5  -1  -2 3.92448 5.81397   1
   5   1   3 40.7223 7.85954   1
  -5  -1  -3 31.1789 6.99045   1
   5   1   4 2.32266 6.33498   1
  -5  -1  -4 6.56206 6.44657   1
   5   1   5 76.1606 9.32175   1
  -5  -1  -5 70.0661 8.84247   1
  -5  -1  -6 13.6276 7.59259   1
   5   1   6 21.3537 7.91180   1
   5   1   7 20.0341 7.99749   1
  -5  -1  -7 27.3298 8.52777   1
   5   1   8 20.4106 8.93090   1
  -5  -1  -8 19.0155 8.65704   1
  -5  -2  12-8.90412 13.4046   1
  -5  -2  12-13.8738 12.6629   1
  -5  -2  11 6.85834 12.0590   1
  -5  -2  11 14.9536 11.0012   1
  -5  -2  10 63.8938 12.4049   1
  -5  -2  10 66.3603 13.3648   1
  -5  -2   9 18.1918 11.3318   1
  -5  -2   9 30.7509 10.4563   1
  -5  -2   8-0.37798 8.60963   1
  -5  -2   8 8.54772 8.39888   1
  -5  -2   7 25.7205 9.43663   1
  -5  -2   7 36.6726 9.32361   1
  -5  -2   6 5.82578 8.27638   1
  -5  -2   6 0.12895 7.09848   1
  -5  -2   5 14.5641 2.37627   2
  -5  -2   5 11.1652 2.13583   2
  -5  -2   5 13.4509 7.43163   1
  -5  -2   5 20.4151 8.85404   1
  -5  -2   4 25.1600 4.09962   2
  -5  -2   4 18.6806 7.35396   1
  -5  -2   4 31.0646 8.57981   1
  -5  -2   3 52.9442 5.76084   2
  -5  -2   3 51.7725 8.91983   1
  -5  -2   3 45.5859 8.96292   1
  -5  -2   2 57.6353 9.41723   1
  -5  -2   2 67.6713 6.87197   2
  -5  -2   1 37.7030 6.27035   2
  -5  -2   1 38.6294 7.84042   1
   5   2  -1 32.6344 7.87138   1
  -5  -2   0 0.21369 5.27025   2
   5   2   0 7.38176 6.18493   1
  -5  -2   0 0.81759 6.39857   1
   5   2   1 0.86806 6.65303   1
  -5  -2  -1 7.46563 6.02411   2
  -5  -2  -1-2.25881 6.70113   1
  -5  -2  -2 80.4135 10.0889   2
   5   2   2 72.8591 9.74170   1
  -5  -2  -2 92.7930 10.5009   1
  -5  -2  -3 17.8821 8.18364   2
   5   2   3 11.3136 7.23452   1
  -5  -2  -3 21.7902 7.65479   1
   5   2   4 117.871 11.4951   1
  -5  -2  -4 111.940 12.6161   2
  -5  -2  -4 122.369 11.6485   1
  -5  -2  -5 102.702 13.2040   2
  -5  -2  -5 104.037 11.5103   1
   5   2   5 106.181 11.8169   1
  -5  -2  -6 9.36017 8.81604   1
   5   2   6 6.48139 8.52678   1
  -5  -2  -6 9.21054 10.9301   2
  -5  -2  -7 104.848 15.3887   2
  -5  -2  -7 80.0785 11.5319   1
   5   2   7 78.5252 11.2201   1
  -5  -3  12 13.7667 12.1680   1
  -5  -3  12 9.46033 13.2097   1
  -5  -3  11 55.5427 12.9543   1
  -5  -3  11 72.8157 15.3891   1
  -5  -3  10 2.10811 11.5158   1
  -5  -3  10-0.15792 10.2643   1
  -5  -3   9 18.3878 11.1069   1
  -5  -3   9 20.2196 9.53494   1
  -5  -3   8 6.19227 9.55654   1
  -5  -3   8 5.46662 8.11391   1
  -5  -3   7 6.89467 9.75877   1
  -5  -3   7 5.39972 7.63697   1
  -5  -3   6 6.35927 2.50678   2
  -5  -3   6-0.06697 7.83943   1
  -5  -3   6 9.01318 8.32077   1
  -5  -3   5 3.59037 3.64638   2
  -5  -3   5-2.28103 7.10675   1
  -5  -3   5 11.7877 8.33660   1
  -5  -3   4 58.1963 9.90524   1
  -5  -3   4 68.8263 6.36179   2
  -5  -3   3 29.7417 8.52003   1
  -5  -3   3 21.3307 5.28925   2
   5   3  -3 29.2277 8.03501   1
  -5  -3   2 10.4872 7.36251   1
  -5  -3   2 8.59775 5.11851   2
   5   3  -2 5.84802 6.82261   1
   5   3  -1 5.30893 6.87184   1
  -5  -3   1 9.06637 5.39200   2
  -5  -3   1 0.41873 6.91054   1
  -5  -3   0-0.76638 5.79456   2
   5   3   0 1.73517 7.35624   1
  -5  -3   0-3.14058 6.80888   1
  -5  -3  -1 44.7224 8.38590   2
   5   3   1 23.6665 8.64244   1
  -5  -3  -1 37.3043 9.16528   1
  -5  -3  -2 80.6021 10.5368   2
  -5  -3  -2 64.9248 10.4228   1
   5   3   2 64.3034 10.0589   1
  -5  -3  -3 31.2954 8.67555   1
   5   3   3 25.0207 8.54467   1
  -5  -3  -4 23.1040 9.56862   2
  -5  -3  -4 39.0266 10.2963   1
   5   3   4 18.5822 9.59207   1
  -5  -3  -5 102.638 14.5563   2
  -5  -3  -5 75.3738 11.6045   1
   5   3   5 75.7799 11.7474   1
   5   3   6-2.59285 9.92126   1
  -5  -3  -6-18.1315 11.3313   1
  -5  -4  12 29.4716 15.1745   1
  -5  -4  12 82.5237 15.5422   1
  -5  -4  11 1.61904 13.6350   1
  -5  -4  11 18.4007 12.5145   1
  -5  -4  10 120.748 15.1288   1
  -5  -4  10 112.798 16.2804   1
  -5  -4   9 20.7908 11.8956   1
  -5  -4   9 4.96670 10.4520   1
  -5  -4   8 12.8343 9.36963   1
  -5  -4   8 24.1868 10.4383   1
  -5  -4   7 9.44236 8.89673   1
  -5  -4   7 8.08524 3.31704   2
  -5  -4   7-3.38978 10.1704   1
  -5  -4   6-7.19450 8.10382   1
  -5  -4   6 8.07723 4.60237   2
  -5  -4   6-0.07693 9.19708   1
  -5  -4   5 2.20647 4.74775   2
   5   4  -5-4.23620 7.65156   1
   5   4  -4 25.6473 8.73371   1
  -5  -4   4 17.8932 8.39509   1
  -5  -4   4 14.0828 5.54891   2
  -5  -4   3 6.15140 7.63163   1
   5   4  -3 22.6270 8.48924   1
  -5  -4   3 13.5317 6.19596   2
  -5  -4   2 37.1038 7.37799   2
   5   4  -2 42.7365 9.90796   1
  -5  -4   2 42.6766 9.57325   1
   5   4  -1 50.2580 10.3006   1
  -5  -4   1 58.1937 8.77225   2
  -5  -4   1 44.0848 9.47837   1
   5   4   0 23.2373 9.46560   1
  -5  -4   0 29.7347 8.44009   2
  -5  -4   0 30.6934 9.62085   1
  -5  -4  -1 55.0734 9.78208   2
  -5  -4  -1 62.9008 10.5670   1
   5   4   1 62.1119 10.7080   1
  -5  -4  -2 26.1714 9.28878   1
  -5  -4  -2 38.9101 10.4621   2
   5   4   2 20.6185 9.94957   1
  -5  -4  -3 5.04392 9.58170   1
  -5  -4  -3 7.59557 9.73494   2
   5   4   3 13.6374 9.75181   1
  -5  -4  -4 147.847 14.7830   1
   5   4   4 133.884 14.5085   1
  -5  -4  -5 4.73111 12.4750   2
   5   4   5-0.49668 11.0818   1
  -5  -4  -5 8.73412 11.2964   1
  -5  -5  11 16.8815 15.1154   1
  -5  -5  11-12.8957 13.2350   1
  -5  -5  10 98.9196 14.5230   1
  -5  -5  10 83.9315 15.7233   1
  -5  -5   9-16.1254 11.0503   1
  -5  -5   9 2.05106 3.12047   2
  -5  -5   9 3.24086 12.9256   1
  -5  -5   8-1.62313 4.30413   2
  -5  -5   8 9.93817 11.5901   1
  -5  -5   7 8.95805 10.2435   1
  -5  -5   7 14.5965 5.39771   2
  -5  -5   7 20.4113 11.9254   1
   5   5  -6 20.4382 9.76491   1
  -5  -5   6 22.3151 9.73918   1
  -5  -5   6 25.5693 6.39432   2
  -5  -5   5 4.75550 8.59147   1
  -5  -5   5 0.94120 6.15098   2
   5   5  -5 6.43716 8.75195   1
  -5  -5   4-0.08712 6.02833   2
  -5  -5   4-1.95013 8.26028   1
   5   5  -4-8.05634 9.25631   1
  -5  -5   3 43.0501 8.05111   2
   5   5  -3 49.2315 10.9094   1
  -5  -5   3 16.6128 9.26280   1
   5   5  -2 21.6570 9.80523   1
  -5  -5   2 21.5973 7.60560   2
  -5  -5   2 6.48877 8.37084   1
  -5  -5   1 137.958 12.5572   2
  -5  -5   1 150.235 14.6266   1
   5   5  -1 124.687 13.7730   1
  -5  -5   0 3.41906 8.57895   2
  -5  -5   0 3.41949 9.35999   1
   5   5   0 12.0131 10.0980   1
  -5  -5  -1 202.389 15.9488   2
  -5  -5  -1 181.430 16.4474   1
   5   5   1 149.010 15.1903   1
  -5  -5  -2 23.2780 11.1823   1
  -5  -5  -2 42.9996 11.4383   2
   5   5   2 14.1952 10.6707   1
  -5  -5  -3 2.45328 10.8366   1
  -5  -5  -3-1.15226 11.8945   2
   5   5   3 23.9426 12.7677   1
  -5  -5  -4-7.42451 12.0791   1
   5   5   4 23.6626 12.4077   1
  -5  -5  -4 9.67068 12.9346   2
  -5  -6  11 11.4527 8.90698   1
  -5  -6  11 53.0391 10.6025   1
  -5  -6  10 15.0229 5.30800   2
  -5  -6  10-2.55983 13.4194   1
  -5  -6   9-14.0481 13.1381   1
  -5  -6   9 0.38400 5.90906   2
  -5  -6   9-4.57095 14.5228   1
  -5  -6   8 7.13173 12.0782   1
  -5  -6   8 5.99264 6.51260   2
  -5  -6   7-5.11144 11.1615   1
  -5  -6   7-8.85849 6.48354   2
   5   6  -7-12.2267 10.3132   1
   5   6  -6-12.0553 10.0345   1
  -5  -6   6 5.41446 7.09862   2
  -5  -6   6 13.0092 10.9165   1
  -5  -6   5 13.6713 7.66565   2
  -5  -6   5 0.23655 10.1483   1
   5   6  -5 0.80208 10.7161   1
  -5  -6   4 25.8325 8.37119   2
   5   6  -4 16.7740 10.7410   1
  -5  -6   4 20.3350 11.1735   1
   5   6  -3 3.66113 10.8589   1
  -5  -6   3 4.88214 8.34114   2
  -5  -6   3 11.1493 9.74763   1
  -5  -6   2 154.892 14.2379   2
  -5  -6   2 122.081 15.8043   1
   5   6  -2 143.982 16.1693   1
  -5  -6   1 18.3311 10.8575   1
  -5  -6   1 21.3173 9.74751   2
   5   6  -1-6.07292 11.9337   1
  -5  -6   0 88.8608 13.2689   2
  -5  -6   0 114.991 14.7476   1
  -5  -6  -1 15.2380 11.5179   1
  -5  -6  -1 39.9125 12.1073   2
   5   6   1 8.05141 12.1418   1
  -5  -6  -2 1.42965 12.2409   1
   5   6   2 12.2223 12.8191   1
  -5  -6  -2-6.10362 11.7283   2
  -5  -7   9 7.92383 7.20344   2
  -5  -7   9 31.1131 14.7959   1
  -5  -7   9 22.6161 13.5122   1
  -5  -7   8 120.461 11.4518   2
   5   7  -8 90.4271 17.1410   1
  -5  -7   8 111.768 17.1980   1
  -5  -7   7 22.5355 8.63794   2
   5   7  -7-1.06133 12.1527   1
  -5  -7   7-23.0883 14.1238   1
  -5  -7   6 23.6350 9.96799   2
  -5  -7   6 40.4527 12.1802   1
   5   7  -6 31.9592 12.3321   1
  -5  -7   5 81.8402 11.4974   2
   5   7  -5 93.2891 14.8370   1
  -5  -7   5 92.5369 16.2069   1
   5   7  -4 13.5247 12.8036   1
  -5  -7   4 29.2111 10.1858   2
  -5  -7   4 6.05061 12.9082   1
  -5  -7   3 35.0220 10.9994   2
  -5  -7   3 34.9654 13.2047   1
   5   7  -3 59.9553 13.8571   1
  -5  -7   2 9.05940 13.1507   1
  -5  -7   2 24.9567 11.2699   2
   5   7  -2-1.86462 12.7395   1
  -5  -7   1 61.6350 13.8148   2
  -5  -7   1 43.9651 14.3651   1
  -5  -7   0 8.66139 7.70173   1
  -5  -7   0 8.89254 7.08663   2
   5   7   0 0.45484 6.40531   1
  -6   6   1 4.39391 6.83744   1
  -6   6   1 15.1276 4.82575   2
  -6   6   1 23.6141 8.15857   1
  -6   6   0-16.2727 7.95660   2
  -6   6   0 8.54264 10.2814   1
  -6   6   0 3.48271 9.10160   1
  -6   6  -1 10.9244 8.22782   2
  -6   6  -1-4.33571 9.28772   1
  -6   6  -2-16.9620 8.59303   2
  -6   5   4-2.94123 10.0121   1
  -6   5   4 1.04360 9.85421   1
  -6   5   3 20.1783 12.6795   1
  -6   5   3 6.37378 4.24288   2
  -6   5   2-4.70907 10.6587   1
  -6   5   2 1.46162 6.03211   2
  -6   5   1 44.2880 7.87444   2
  -6   5   1 72.8422 12.4147   1
  -6   5   1 49.0129 12.0359   1
  -6   5   0 25.5508 10.0848   1
  -6   5   0 5.29798 7.58172   2
  -6   5   0 19.7040 9.88328   1
  -6   5  -1 20.0930 9.61903   1
  -6   5  -1 33.3388 9.95975   1
  -6   5  -1 4.46615 8.66292   2
  -6   5  -2-4.45769 8.69705   1
  -6   5  -2 9.25642 9.18609   2
  -6   5  -2-2.18891 8.15827   1
  -6   5  -3 4.51537 8.10164   1
  -6   5  -3-12.9562 9.53674   2
  -6   5  -3-6.89235 7.50032   1
  -6   5  -4 41.3623 8.29641   1
  -6   5  -4 43.2727 8.34960   1
  -6   5  -4 46.5498 11.9804   2
  -6   4   6 31.0688 9.10523   1
  -6   4   6 32.0876 8.80904   1
  -6   4   5 68.2183 15.5579   1
  -6   4   5 20.0816 13.7027   1
  -6   4   4-8.48999 10.7173   1
  -6   4   4 1.63797 12.3322   1
  -6   4   3 1.56722 2.89841   2
  -6   4   3 0.95162 11.0222   1
  -6   4   3-5.97615 11.2493   1
  -6   4   2 52.0263 6.39553   2
  -6   4   2 61.8637 11.6979   1
  -6   4   2 37.5628 11.0361   1
  -6   4   1 0.12796 9.39615   1
  -6   4   1 11.2395 9.00075   1
  -6   4   1-5.07190 6.27066   2
  -6   4   0 47.9640 8.23454   2
  -6   4   0 53.6272 10.1721   1
  -6   4   0 31.9596 10.2304   1
  -6   4  -1 7.44471 8.81672   1
  -6   4  -1 9.97930 7.26319   2
  -6   4  -1-3.41162 8.19084   1
  -6   4  -2 0.14935 8.14169   1
  -6   4  -2 10.2450 8.12898   2
  -6   4  -2 22.7772 7.66124   1
  -6   4  -3 6.96100 7.61108   1
  -6   4  -3 9.24513 7.57070   1
  -6   4  -3 13.8334 9.03071   2
  -6   4  -4-6.86112 6.66877   1
  -6   4  -4-1.32786 7.29725   1
  -6   4  -4-4.96005 10.9710   2
  -6   4  -5 98.9155 8.61266   1
  -6   4  -5 104.828 14.4928   2
  -6   4  -5 92.1138 8.45843   1
  -6   3   7 15.2243 12.5719   1
  -6   3   7 32.7450 14.5929   1
  -6   3   6-15.7805 11.0517   1
  -6   3   6-7.71778 13.0111   1
  -6   3   5 59.9254 13.7656   1
  -6   3   5 23.4390 11.6450   1
  -6   3   4 39.9424 12.6467   1
  -6   3   4 79.0254 13.0803   1
  -6   3   3 0.39009 1.83322   2
  -6   3   3-10.5036 9.18198   1
  -6   3   2 21.3825 10.2922   1
  -6   3   2 19.1964 9.92823   1
  -6   3   2 10.4614 4.75374   2
  -6   3   1 30.9346 9.92316   1
  -6   3   1 27.1282 6.39642   2
  -6   3   1 53.2902 10.9730   1
  -6   3   0 31.9594 7.63338   2
  -6   3   0 34.8727 9.45329   1
  -6   3   0 22.1052 9.43615   1
  -6   3  -1 24.3601 9.05724   1
  -6   3  -1 23.0418 7.69288   2
  -6   3  -1 26.2329 8.77089   1
  -6   3  -2 13.0862 8.32450   1
  -6   3  -2-1.44051 7.32305   1
  -6   3  -2-6.60240 7.52886   2
  -6   3  -3 0.40611 7.48203   1
  -6   3  -3-2.24993 8.27578   2
  -6   3  -4 35.3885 8.18633   1
  -6   3  -4 21.2605 9.55399   2
  -6   3  -4 33.7709 7.52767   1
  -6   3  -5 0.71953 6.57713   1
  -6   3  -5 7.77876 7.04352   1
  -6   3  -6 12.3410 4.91224   1
  -6   3  -6 13.8126 5.07110   1
  -6   3  -6 4.75662 10.2133   2
  -6   2   8 135.043 18.3528   1
  -6   2   8 92.0966 16.0210   1
  -6   2   7-26.9671 14.7060   1
  -6   2   7-0.93913 12.3616   1
  -6   2   6 48.5656 13.4484   1
  -6   2   6 41.7928 12.0667   1
  -6   2   5 34.6994 12.4225   1
  -6   2   5 15.3004 10.9299   1
  -6   2   4 22.0524 10.7464   1
  -6   2   4 28.8403 10.9873   1
  -6   2   3 12.3306 2.09821   2
  -6   2   3 12.3127 9.74103   1
  -6   2   3 23.5959 10.1272   1
  -6   2   2 5.17698 4.31029   2
  -6   2   2 21.1870 9.86669   1
  -6   2   2 11.0721 8.96252   1
  -6   2   2 12.2641 4.46341   2
  -6   2   1 4.46475 5.33229   2
  -6   2   1 16.1252 9.08027   1
  -6   2   0 52.2442 7.77710   2
  -6   2   0 57.2081 10.2034   1
  -6   2  -1-1.58565 7.52125   1
  -6   2  -1 8.62579 8.26465   1
  -6   2  -1 5.52868 7.08642   2
  -6   2  -2 105.832 11.4982   1
  -6   2  -2 106.951 11.3495   2
  -6   2  -2 88.3785 11.3285   1
  -6   2  -3-1.93440 7.38032   1
  -6   2  -3-4.73644 7.82957   1
  -6   2  -3 4.79027 8.22504   2
  -6   2  -4-7.73161 7.31891   1
  -6   2  -4-6.34843 8.89990   2
  -6   2  -4 7.43213 7.26846   1
  -6   2  -5 94.7654 13.9753   2
  -6   2  -5 73.2108 8.99761   1
  -6   2  -5 85.2537 9.70753   1
  -6   2  -6 32.9022 7.17948   1
  -6   2  -6 34.2576 12.8912   2
  -6   2  -6 47.4401 8.03674   1
  -6   1   8-0.27013 12.6263   1
  -6   1   8-7.19871 12.4626   1
  -6   1   7-15.3709 13.2606   1
  -6   1   7 15.6058 11.0834   1
  -6   1   6 16.6695 12.0915   1
  -6   1   6-2.05264 10.5929   1
  -6   1   5 10.8299 10.4266   1
  -6   1   5 16.8837 10.7945   1
  -6   1   4 47.8492 11.5369   1
  -6   1   4 45.0153 11.4107   1
  -6   1   3 102.584 4.79765   2
  -6   1   3 96.7131 4.58555   2
  -6   1   3 93.2228 12.1266   1
  -6   1   3 93.7982 12.6211   1
  -6   1   2 228.607 9.69544   2
  -6   1   2 232.099 9.62258   2
  -6   1   2 239.242 16.3922   1
  -6   1   2 231.083 16.7090   1
  -6   1   1 249.502 11.6550   2
  -6   1   1 225.500 11.0423   2
  -6   1   1 228.275 15.5554   1
  -6   1   1 228.876 16.0516   1
  -6   1   0 3.62090 8.52139   1
  -6   1   0 13.1978 8.61627   1
  -6   1   0 17.7609 6.49083   2
  -6   1  -1 5.76744 8.45545   1
  -6   1  -1 12.0044 8.48480   1
  -6   1  -1 14.9141 6.93571   2
  -6   1  -2 24.1860 8.57083   1
  -6   1  -2 29.9904 9.58857   1
  -6   1  -2 33.2307 9.08900   2
  -6   1  -3 17.6228 8.86177   1
  -6   1  -3 7.62984 8.72916   2
  -6   1  -3 4.88520 7.77163   1
  -6   1  -4 16.0829 8.51403   1
  -6   1  -4 32.6962 8.43796   1
  -6   1  -4 13.2322 9.13937   2
  -6   1  -5 3.89477 8.73248   1
  -6   1  -5-9.68634 8.46977   1
  -6   1  -5-3.09287 10.8859   2
  -6   1  -6 29.9316 6.57240   1
  -6   1  -6 28.5610 6.05006   1
  -6   1  -6 17.4488 8.92236   2
  -6   0   9 35.9206 14.9955   1
  -6   0   9 11.9295 12.8081   1
  -6   0   8 7.54325 13.0784   1
  -6   0   8 0.52014 12.8111   1
  -6   0   7 11.5795 11.7565   1
  -6   0   7 26.0571 11.2039   1
  -6   0   6 22.9794 12.0060   1
  -6   0   6 17.4063 11.1868   1
  -6   0   5 35.7239 10.9503   1
  -6   0   5 34.2157 11.8657   1
  -6   0   4 127.791 14.5880   1
  -6   0   4 129.173 14.7149   1
  -6   0   3 19.2733 10.3033   1
  -6   0   3 7.52729 3.42255   2
  -6   0   3 9.80494 3.40399   2
  -6   0   3 23.6662 9.82265   1
  -6   0   2 117.120 8.03746   2
  -6   0   2 122.721 13.5077   1
  -6   0   2 106.878 7.84577   2
  -6   0   2 102.131 13.3557   1
  -6   0   1 173.856 10.5901   2
  -6   0   1 178.363 14.7969   1
  -6   0   1 167.832 10.3033   2
  -6   0   1 172.401 15.0889   1
  -6   0   0 40.9780 10.3689   1
  -6   0   0 20.9896 9.23251   1
  -6   0   0 27.3347 7.54995   2
  -6   0   0 15.8951 7.08720   2
  -6   0  -1 16.2228 9.13029   1
  -6   0  -1 14.9041 8.68504   1
  -6   0  -1 23.9372 7.90809   2
  -6   0  -1 13.2293 7.88368   2
  -6   0  -2-10.8957 8.60142   1
  -6   0  -2-9.14808 8.16477   2
  -6   0  -2 15.4204 8.26076   2
  -6   0  -2 0.16980 8.79386   1
  -6   0  -3 34.3001 10.0938   1
  -6   0  -3 18.7422 8.54368   1
  -6   0  -3 22.3679 9.73093   2
  -6   0  -4 38.2420 9.14206   1
  -6   0  -4 28.0555 10.4507   2
  -6   0  -4 61.2783 11.0263   1
  -6   0  -5-4.65952 8.77103   1
  -6   0  -5-1.16566 11.9175   2
  -6  -1   9 14.5960 13.3411   1
  -6  -1   9 5.48542 14.8183   1
  -6  -1   8 1.21534 11.8196   1
  -6  -1   8 1.35996 11.9848   1
  -6  -1   7 33.8534 12.6673   1
  -6  -1   7 18.6572 10.6588   1
  -6  -1   6-11.7287 11.5288   1
  -6  -1   6 23.6645 10.7544   1
  -6  -1   5 26.0802 10.8702   1
  -6  -1   5 36.3753 11.7104   1
  -6  -1   4 19.8424 10.7826   1
  -6  -1   4 23.0431 2.89026   2
  -6  -1   4 21.0405 2.55438   2
  -6  -1   4 19.3739 10.2718   1
  -6  -1   3 43.5709 11.6634   1
  -6  -1   3 36.3812 5.50514   2
  -6  -1   3 32.3715 11.0472   1
  -6  -1   3 30.7655 5.05429   2
  -6  -1   2-4.00976 10.1704   1
  -6  -1   2 12.9750 5.97598   2
  -6  -1   2 6.49302 9.22380   1
  -6  -1   2 7.53473 5.35811   2
  -6  -1   1-5.90892 9.23360   1
  -6  -1   1 2.47313 6.04872   2
  -6  -1   1-6.25953 5.83025   2
  -6  -1   0 95.7667 10.1922   2
  -6  -1   0 106.325 10.5526   2
  -6  -1   0 87.5611 12.8735   1
  -6  -1   0 94.8774 12.5348   1
  -6  -1  -1 31.2992 9.10826   2
  -6  -1  -1 26.8957 8.84263   2
  -6  -1  -1 29.8606 10.5041   1
  -6  -1  -1 34.9478 10.9843   1
  -6  -1  -2-2.23951 8.87513   2
  -6  -1  -2-12.2501 9.03492   1
  -6  -1  -2-2.49159 9.05807   2
  -6  -1  -2-5.93490 9.78714   1
  -6  -1  -3 46.4569 11.4128   2
  -6  -1  -3 40.1534 10.0598   1
  -6  -1  -3 50.7628 10.8636   2
  -6  -1  -3 58.8203 11.6713   1
  -6  -1  -4 47.1849 12.0644   2
  -6  -1  -4 19.3738 9.44305   1
  -6  -1  -4 23.0412 11.3458   2
  -6  -1  -4 30.4843 11.3474   1
  -6  -1  -5 7.68403 5.23057   1
  -6  -1  -5 29.7413 8.84908   2
  -6  -1  -5 9.92213 6.81227   2
  -6  -1  -5 19.1271 6.56435   1
  -6  -2   9 54.1979 17.0414   1
  -6  -2   9 32.8286 14.1030   1
  -6  -2   8-17.1233 14.6550   1
  -6  -2   8 20.2712 13.9831   1
  -6  -2   7-8.44380 11.4608   1
  -6  -2   7 3.74517 11.6273   1
  -6  -2   6-2.99791 12.3528   1
  -6  -2   6 1.12471 10.9469   1
  -6  -2   5-5.13954 11.4233   1
  -6  -2   5 4.83640 9.49360   1
  -6  -2   4 129.627 14.8705   1
  -6  -2   4 130.277 7.43411   2
  -6  -2   4 117.639 6.89821   2
  -6  -2   4 120.029 15.3058   1
  -6  -2   3 18.2365 10.7916   1
  -6  -2   3-2.95584 5.48934   2
  -6  -2   3 2.83388 5.62238   2
  -6  -2   3-6.93591 11.1635   1
  -6  -2   2-1.21520 9.04786   1
  -6  -2   2 6.43963 6.58462   2
  -6  -2   2 0.11303 6.30372   2
  -6  -2   2 6.10082 10.8323   1
  -6  -2   1 7.18205 9.25001   1
  -6  -2   1 10.7066 7.57568   2
  -6  -2   1-2.43264 10.4599   1
  -6  -2   0 14.2878 8.19251   2
  -6  -2   0 23.1505 10.5793   1
  -6  -2   0 14.6695 10.1152   1
  -6  -2  -1 27.9640 9.51115   2
  -6  -2  -1 10.0078 9.86390   1
  -6  -2  -2 72.5443 12.2830   2
  -6  -2  -2 58.0907 11.7913   1
   6   2   3-4.36890 11.1292   1
  -6  -2  -3 3.56934 10.7465   1
  -6  -2  -4 12.2196 7.26076   1
   6   2   4 12.1153 7.33195   1
  -6  -3   8 4.54157 13.8182   1
  -6  -3   8 3.82483 13.7201   1
  -6  -3   7 4.12081 13.5246   1
  -6  -3   7 1.03328 12.0590   1
  -6  -3   6 10.2524 10.7156   1
  -6  -3   5 9.39960 11.7950   1
  -6  -3   5-0.74451 4.00436   2
  -6  -3   5-1.76018 3.81815   2
  -6  -3   5-0.78308 11.3995   1
  -6  -3   4-7.42617 11.1549   1
  -6  -3   4-2.01018 5.80804   2
  -6  -3   4 12.6495 12.7510   1
  -6  -3   3 38.7112 11.6804   1
  -6  -3   3 46.2154 8.32599   2
  -6  -3   3 18.6001 11.6484   1
  -6  -3   2 89.5533 10.1358   2
  -6  -3   2 62.9466 13.5869   1
  -6  -3   2 54.3202 12.7324   1
  -6  -3   1 11.4052 8.10713   2
  -6  -3   1 17.2486 11.0474   1
  -6  -3   0 125.458 12.9276   2
   6   3   0 84.4402 13.5659   1
  -6  -3   0 84.9679 13.5652   1
   6   3   1 18.7584 11.2293   1
  -6  -3  -1-1.25092 10.7183   2
  -6  -3  -1 2.79984 11.5024   1
  -6  -3  -2 132.874 15.2295   2
   6   3   2 127.060 16.0625   1
  -6  -3  -2 142.496 16.5872   1
  -6  -4   8 23.9463 14.4571   1
  -6  -4   8-6.43250 12.6322   1
  -6  -4   7 135.843 17.8741   1
  -6  -4   7 86.0265 16.1899   1
  -6  -4   6-6.69884 14.0882   1
  -6  -4   6 7.26901 4.66035   2
  -6  -4   6 14.5665 14.1607   1
  -6  -4   5 3.56018 11.6408   1
  -6  -4   5 6.15052 6.45850   2
  -6  -4   5-12.6597 14.4249   1
  -6  -4   4 17.0929 10.9472   1
  -6  -4   4 11.0199 7.01646   2
  -6  -4   4 29.5319 12.6299   1
  -6  -4   3 7.61049 7.69444   2
  -6  -4   3 29.6626 12.3615   1
  -6  -4   2 22.6226 8.69265   2
  -6  -4   2 3.38622 12.1730   1
  -6  -4   1 17.6115 9.35577   2
  -6  -4   1 29.4322 12.9112   1
   6   4  -1 20.8642 12.9555   1
  -6  -4   0 135.101 14.8358   2
  -6  -4   0 100.794 15.9566   1
   6   4   1 32.9268 10.1170   1
  -6  -4  -1 39.4548 10.1799   1
  -6  -5   6 31.9975 12.0509   1
  -6  -5   6 18.7499 6.95269   2
  -6  -5   6 20.9150 14.3818   1
  -6  -5   5 3.00042 7.70640   2
  -6  -5   5 7.35098 14.4317   1
  -6  -5   4-4.03644 8.26486   2
   6   5  -4-5.47085 13.2491   1
  -6  -5   4 9.36320 14.4354   1
   6   5  -3 25.3218 13.7939   1
  -6  -5   3 7.01822 9.23187   2
  -6  -5   3-0.43680 13.3074   1
  -6  -5   2 51.7159 10.0920   2
  -6  -5   2 10.8292 10.3730   1
   0   0   0    0.00    0.00   0
TITL 100 in P-1
REM P-1 (#2 in standard setting)
CELL 0.71073   4.894763   8.570697  11.917943 108.4588  96.6491  92.2348
ZERR    2.00   0.000492   0.000687   0.000941   0.0074   0.0078   0.0073
LATT  1
SFAC C H N O
UNIT 14.00 26.00 2.00 16.00
TREF
HKLF 4
END
;
_shelx_hkl_checksum              6365
_shelx_res_file
;
TITL 100_III in P-1
    100.res
    created by SHELXL-2018/3 at 12:29:07 on 16-Jan-2019
REM P-1 (#2 in standard setting)
CELL 0.71073 4.894763 8.570697 11.917943 108.4588 96.6491 92.2348
ZERR 2 0.000492 0.000687 0.000941 0.0074 0.0078 0.0073
LATT 1
SFAC C H N O
UNIT 14 26 2 16
EQIV $1 -X,1-Y,-Z
EQIV $2 1+X,+Y,+Z
EQIV $3 2-X,2-Y,1-Z
EQIV $4 +X,-1+Y,+Z
EQIV $5 1-X,1-Y,-Z
EQIV $6 -1+X,-1+Y,+Z
EQIV $7 1-X,2-Y,-Z
EQIV $8 1-X,2-Y,1-Z
L.S. 20
PLAN  10
SIZE 0.034 0.071 0.4337
TEMP -173.15
HTAB O4 O3_$2
HTAB O1 O7_$3
HTAB N1 O5_$1
HTAB N1 O2_$4
HTAB N1 O4_$5
HTAB N1 O5_$5
HTAB N1 O2_$6
HTAB O3 O4_$7
HTAB O6 O6_$1
HTAB O8 O8_$8
BOND $H
BOND
CONF
fmap 2
acta
SHEL 40 0.8
REM <olex2.extras>
REM <HklSrc "%.\\100.hkl">
REM </olex2.extras>
WGHT    0.030900    0.180700
FVAR       0.81141
O3    4    0.257451    0.988876    0.134579    11.00000    0.00706    0.01272 =
         0.01323    0.00685    0.00120    0.00082
O6    4    0.188088    0.596080    0.066665    11.00000    0.01051    0.01330 =
         0.01205    0.00411    0.00052   -0.00466
AFIX 147
H6    2    0.065216    0.531423    0.016689    10.50000   -1.20000
AFIX   0
O4    4    0.740061    0.845943    0.025927    11.00000    0.00523    0.01445 =
         0.01243    0.00500    0.00094   -0.00380
AFIX 147
H4    2    0.899472    0.878567    0.062752    11.00000   -1.20000
AFIX   0
O1    4    0.879337    0.973092    0.320474    11.00000    0.00825    0.01187 =
         0.01283    0.00291   -0.00321   -0.00133
AFIX 147
H1    2    0.999587    1.046631    0.363914    11.00000   -1.20000
AFIX   0
O5    4    0.327845    0.631196   -0.097099    11.00000    0.01153    0.01589 =
         0.01015    0.00272    0.00126   -0.00080
O8    4    0.429437    0.855029    0.442950    11.00000    0.01401    0.00994 =
         0.01318    0.00234    0.00001    0.00027
AFIX 147
H8    2    0.502355    0.950697    0.479857    10.50000   -1.20000
AFIX   0
O2    4    0.692995    1.185555    0.275661    11.00000    0.01327    0.00951 =
         0.02276    0.00458   -0.00102   -0.00125
C3    1    0.584195    0.777002    0.095116    11.00000    0.00851    0.01043 =
         0.00837    0.00484   -0.00003   -0.00048
AFIX  13
H3A   2    0.706243    0.714713    0.135893    11.00000   -1.20000
AFIX   0
C2    1    0.461967    0.912840    0.188785    11.00000    0.00809    0.00960 =
         0.01188    0.00472    0.00076    0.00011
AFIX  13
H2    2    0.372632    0.860948    0.241032    11.00000   -1.20000
AFIX   0
N1    3    0.201499    0.362454    0.233581    11.00000    0.00893    0.01123 =
         0.01227    0.00204    0.00028    0.00003
AFIX 137
H1A   2    0.320053    0.359717    0.179662    11.00000   -1.50000
H1B   2    0.025173    0.341526    0.195587    11.00000   -1.50000
H1C   2    0.240372    0.284596    0.268914    11.00000   -1.50000
AFIX   0
O7    4    0.770664    0.776986    0.551344    11.00000    0.01512    0.01487 =
         0.01692    0.00369   -0.00537   -0.00386
C5    1    0.585395    0.748938    0.465792    11.00000    0.00743    0.01301 =
         0.01054    0.00457    0.00198   -0.00181
C1    1    0.689720    1.040812    0.267062    11.00000    0.01007    0.01178 =
         0.00804    0.00165    0.00459    0.00055
C4    1    0.350250    0.659244    0.011712    11.00000    0.00781    0.00655 =
         0.01358    0.00259    0.00405    0.00314
C7    1    0.232470    0.528832    0.326305    11.00000    0.01070    0.01008 =
         0.01126    0.00119    0.00184    0.00041
AFIX  23
H7A   2    0.126512    0.527033    0.391842    11.00000   -1.20000
H7B   2    0.157849    0.610999    0.290889    11.00000   -1.20000
AFIX   0
C6    1    0.534140    0.577553    0.375409    11.00000    0.00918    0.01240 =
         0.01308    0.00385    0.00250    0.00085
AFIX  23
H6A   2    0.604356    0.496967    0.413362    11.00000   -1.20000
H6B   2    0.639673    0.571849    0.308384    11.00000   -1.20000
AFIX   0
H3    2    0.323554    1.032436    0.088718    11.00000    0.03492
HKLF 4
REM  100_III in P-1
REM wR2 = 0.0833, GooF = S = 1.038, Restrained GooF = 1.038 for all data
REM R1 = 0.0390 for 1427 Fo > 4sig(Fo) and 0.0632 for all 1915 data
REM 154 parameters refined using 0 restraints
END
WGHT      0.0309      0.1807
REM Highest difference peak  0.316,  deepest hole -0.271,  1-sigma level  0.056
Q1    1   0.5318  0.8474  0.1441  11.00000  0.05    0.32
Q2    1   0.4480  0.7408  0.0439  11.00000  0.05    0.24
Q3    1   0.5733  0.9742  0.2198  11.00000  0.05    0.24
Q4    1   0.3897  0.5564  0.3608  11.00000  0.05    0.23
Q5    1   0.0860  0.9633  0.1116  11.00000  0.05    0.23
Q6    1   0.5404  0.6614  0.4207  11.00000  0.05    0.22
Q7    1   0.4900  1.2137  0.2555  11.00000  0.05    0.22
Q8    1   0.4171  0.8906  0.2243  11.00000  0.05    0.21
Q9    1   0.5067  0.9848  0.0398  11.00000  0.05    0.20
Q10   1   0.9490  0.7390  0.5518  11.00000  0.05    0.19
;
_shelx_res_checksum              34661
loop_
_space_group_symop_operation_xyz
'x, y, z'
'-x, -y, -z'
loop_
_atom_site_type_symbol
_atom_site_label
_atom_site_fract_x
_atom_site_fract_y
_atom_site_fract_z
_atom_site_U_iso_or_equiv
_atom_site_adp_type
_atom_site_calc_flag
_atom_site_occupancy
O O3 0.2575(3) 0.98888(16) 0.13458(12) 0.0104(3) Uani d 1
O O6 0.1881(3) 0.59608(16) 0.06667(11) 0.0122(3) Uani d 1
H H6 0.065216 0.531423 0.016689 0.015 Uiso calc 0.5
O O4 0.7401(3) 0.84594(16) 0.02593(11) 0.0107(3) Uani d 1
H H4 0.899472 0.878567 0.062752 0.013 Uiso calc 1
O O1 0.8793(3) 0.97309(16) 0.32047(12) 0.0117(3) Uani d 1
H H1 0.999587 1.046631 0.363914 0.014 Uiso calc 1
O O5 0.3278(3) 0.63120(16) -0.09710(12) 0.0129(3) Uani d 1
O O8 0.4294(3) 0.85503(16) 0.44295(12) 0.0129(3) Uani d 1
H H8 0.502355 0.950697 0.479857 0.015 Uiso calc 0.5
O O2 0.6930(3) 1.18555(16) 0.27566(13) 0.0157(3) Uani d 1
C C3 0.5842(4) 0.7770(2) 0.09512(16) 0.0088(4) Uani d 1
H H3A 0.706243 0.714713 0.135893 0.011 Uiso calc 1
C C2 0.4620(4) 0.9128(2) 0.18878(17) 0.0096(4) Uani d 1
H H2 0.372632 0.860948 0.241032 0.012 Uiso calc 1
N N1 0.2015(3) 0.36245(18) 0.23358(14) 0.0113(3) Uani d 1
H H1A 0.320053 0.359717 0.179662 0.017 Uiso calc 1
H H1B 0.025173 0.341526 0.195587 0.017 Uiso calc 1
H H1C 0.240372 0.284596 0.268914 0.017 Uiso calc 1
O O7 0.7707(3) 0.77699(16) 0.55134(12) 0.0167(3) Uani d 1
C C5 0.5854(4) 0.7489(2) 0.46579(17) 0.0102(4) Uani d 1
C C1 0.6897(4) 1.0408(2) 0.26706(17) 0.0101(4) Uani d 1
C C4 0.3502(4) 0.6592(2) 0.01171(17) 0.0092(4) Uani d 1
C C7 0.2325(4) 0.5288(2) 0.32631(17) 0.0112(4) Uani d 1
H H7A 0.126512 0.527033 0.391842 0.013 Uiso calc 1
H H7B 0.157849 0.610999 0.290889 0.013 Uiso calc 1
C C6 0.5341(4) 0.5776(2) 0.37541(17) 0.0115(4) Uani d 1
H H6A 0.604356 0.496967 0.413362 0.014 Uiso calc 1
H H6B 0.639673 0.571849 0.308384 0.014 Uiso calc 1
H H3 0.324(5) 1.032(3) 0.089(2) 0.035(7) Uiso d 1
loop_
_atom_site_aniso_label
_atom_site_aniso_U_11
_atom_site_aniso_U_22
_atom_site_aniso_U_33
_atom_site_aniso_U_12
_atom_site_aniso_U_13
_atom_site_aniso_U_23
O3 0.0071(6) 0.0127(7) 0.0132(7) 0.0008(5) 0.0012(6) 0.0069(6)
O6 0.0105(7) 0.0133(7) 0.0120(7) -0.0047(5) 0.0005(6) 0.0041(6)
O4 0.0052(6) 0.0145(7) 0.0124(7) -0.0038(5) 0.0009(6) 0.0050(6)
O1 0.0083(6) 0.0119(7) 0.0128(7) -0.0013(5) -0.0032(6) 0.0029(6)
O5 0.0115(7) 0.0159(7) 0.0101(7) -0.0008(6) 0.0013(6) 0.0027(6)
O8 0.0140(7) 0.0099(7) 0.0132(7) 0.0003(5) 0.0000(6) 0.0023(6)
O2 0.0133(7) 0.0095(7) 0.0228(8) -0.0012(5) -0.0010(6) 0.0046(6)
C3 0.0085(9) 0.0104(10) 0.0084(9) -0.0005(7) 0.0000(8) 0.0048(8)
C2 0.0081(9) 0.0096(9) 0.0119(10) 0.0001(7) 0.0008(8) 0.0047(8)
N1 0.0089(8) 0.0112(8) 0.0123(8) 0.0000(6) 0.0003(7) 0.0020(7)
O7 0.0151(7) 0.0149(7) 0.0169(8) -0.0039(6) -0.0054(6) 0.0037(6)
C5 0.0074(9) 0.0130(10) 0.0105(10) -0.0018(8) 0.0020(8) 0.0046(8)
C1 0.0101(9) 0.0118(10) 0.0080(9) 0.0005(7) 0.0046(8) 0.0016(8)
C4 0.0078(9) 0.0065(9) 0.0136(10) 0.0031(7) 0.0041(8) 0.0026(8)
C7 0.0107(9) 0.0101(10) 0.0113(10) 0.0004(7) 0.0018(8) 0.0012(8)
C6 0.0092(9) 0.0124(10) 0.0131(10) 0.0008(8) 0.0025(8) 0.0039(8)
loop_
_atom_type_symbol
_atom_type_description
_atom_type_scat_dispersion_real
_atom_type_scat_dispersion_imag
_atom_type_scat_source
C C 0.0033 0.0016 'International Tables Vol C Tables 4.2.6.8 and 6.1.1.4'
H H 0.0000 0.0000 'International Tables Vol C Tables 4.2.6.8 and 6.1.1.4'
N N 0.0061 0.0033 'International Tables Vol C Tables 4.2.6.8 and 6.1.1.4'
O O 0.0106 0.0060 'International Tables Vol C Tables 4.2.6.8 and 6.1.1.4'
loop_
_exptl_crystal_face_index_h
_exptl_crystal_face_index_k
_exptl_crystal_face_index_l
_exptl_crystal_face_perp_dist
0 5 1 0.0120
0 -5 -1 0.0220
3 -1 1 0.2160
-7 3 -2 0.1830
0 1 -3 0.0290
0 -1 3 0.0420
loop_
_geom_angle_atom_site_label_1
_geom_angle_atom_site_label_2
_geom_angle_atom_site_label_3
_geom_angle
C2 O3 H3 111.1(18)
C4 O6 H6 109.5
C3 O4 H4 109.5
C1 O1 H1 109.5
C5 O8 H8 109.5
O4 C3 H3A 109.5
O4 C3 C2 110.68(14)
O4 C3 C4 108.58(14)
C2 C3 H3A 109.5
C4 C3 H3A 109.5
C4 C3 C2 109.21(15)
O3 C2 C3 111.31(15)
O3 C2 H2 108.1
O3 C2 C1 110.71(15)
C3 C2 H2 108.1
C1 C2 C3 110.40(15)
C1 C2 H2 108.1
H1A N1 H1B 109.5
H1A N1 H1C 109.5
H1B N1 H1C 109.5
C7 N1 H1A 109.5
C7 N1 H1B 109.5
C7 N1 H1C 109.5
O8 C5 C6 114.52(16)
O7 C5 O8 125.84(18)
O7 C5 C6 119.62(16)
O1 C1 C2 111.70(15)
O2 C1 O1 125.47(18)
O2 C1 C2 122.82(17)
O6 C4 C3 113.45(16)
O5 C4 O6 125.59(18)
O5 C4 C3 120.96(16)
N1 C7 H7A 109.7
N1 C7 H7B 109.7
N1 C7 C6 109.98(15)
H7A C7 H7B 108.2
C6 C7 H7A 109.7
C6 C7 H7B 109.7
C5 C6 C7 113.40(15)
C5 C6 H6A 108.9
C5 C6 H6B 108.9
C7 C6 H6A 108.9
C7 C6 H6B 108.9
H6A C6 H6B 107.7
loop_
_geom_bond_atom_site_label_1
_geom_bond_atom_site_label_2
_geom_bond_distance
O3 C2 1.418(2)
O3 H3 0.84(2)
O6 H6 0.8400
O6 C4 1.290(2)
O4 H4 0.8400
O4 C3 1.425(2)
O1 H1 0.8400
O1 C1 1.320(2)
O5 C4 1.233(2)
O8 H8 0.8400
O8 C5 1.283(2)
O2 C1 1.211(2)
C3 H3A 1.0000
C3 C2 1.532(2)
C3 C4 1.526(3)
C2 H2 1.0000
C2 C1 1.527(3)
N1 H1A 0.9100
N1 H1B 0.9100
N1 H1C 0.9100
N1 C7 1.491(2)
O7 C5 1.238(2)
C5 C6 1.512(3)
C7 H7A 0.9900
C7 H7B 0.9900
C7 C6 1.515(2)
C6 H6A 0.9900
C6 H6B 0.9900
loop_
_geom_hbond_atom_site_label_D
_geom_hbond_atom_site_label_H
_geom_hbond_atom_site_label_A
_geom_hbond_site_symmetry_A
_geom_hbond_distance_DH
_geom_hbond_distance_HA
_geom_hbond_distance_DA
_geom_hbond_angle_DHA
_geom_hbond_publ_flag
O6 H6 O6 2_565 0.84 1.62 2.461(3) 173.3 yes
O4 H4 O3 1_655 0.84 1.93 2.7541(18) 168.6 yes
O1 H1 O7 2_776 0.84 1.79 2.6254(19) 172.0 yes
O8 H8 O8 2_676 0.84 1.63 2.452(3) 166.7 yes
N1 H1A O4 2_665 0.91 2.50 3.096(2) 123.3 yes
N1 H1A O5 2_665 0.91 2.09 2.978(2) 164.4 yes
N1 H1B O5 2_565 0.91 2.04 2.907(2) 159.4 yes
N1 H1B O2 1_445 0.91 2.52 3.037(2) 116.6 yes
N1 H1C O2 1_545 0.91 2.40 2.971(2) 120.4 yes
O3 H3 O4 2_675 0.84(2) 1.97(3) 2.7171(18) 148(2) yes
loop_
_geom_torsion_atom_site_label_1
_geom_torsion_atom_site_label_2
_geom_torsion_atom_site_label_3
_geom_torsion_atom_site_label_4
_geom_torsion
O3 C2 C1 O1 178.62(14)
O3 C2 C1 O2 -2.6(3)
O4 C3 C2 O3 67.66(19)
O4 C3 C2 C1 -55.72(19)
O4 C3 C4 O6 -176.82(14)
O4 C3 C4 O5 3.3(2)
O8 C5 C6 C7 -36.7(2)
C3 C2 C1 O1 -57.7(2)
C3 C2 C1 O2 121.13(18)
C2 C3 C4 O6 -56.1(2)
C2 C3 C4 O5 124.05(17)
N1 C7 C6 C5 177.07(15)
O7 C5 C6 C7 144.90(17)
C4 C3 C2 O3 -51.82(19)
C4 C3 C2 C1 -175.20(15)

_cod_database_fobs_code 2021493
