#------------------------------------------------------------------------------
#$Date: 2019-08-29 07:13:12 +0300 (Thu, 29 Aug 2019) $
#$Revision: 217821 $
#$URL: file:///home/coder/svn-repositories/cod/cif/2/02/17/2021754.cif $
#------------------------------------------------------------------------------
#
# This file is available in the Crystallography Open Database (COD),
# http://www.crystallography.net/. The original data for this entry
# were provided by IUCr Journals, http://journals.iucr.org/.
#
# The file may be used within the scientific community so long as
# proper attribution is given to the journal article from which the
# data were obtained.
#
data_2021754
loop_
_publ_author_name
'Meundaeng, Natthaya'
'Prior, Timothy John'
'Rujiwatra, Apinpus'
_publ_section_title
;
 Crystal structures and Hirshfeld surface analysis of transition-metal
 complexes of 1,3-azolecarboxylic acids
;
_journal_coeditor_code           FN3320
_journal_issue                   9
_journal_name_full               'Acta Crystallographica Section C'
_journal_page_first
;
;
_journal_paper_doi               10.1107/S2053229619011525
_journal_volume                  75
_journal_year                    2019
_chemical_formula_iupac          '[Co (C4 H2 N O2 S)2 (H2 O)2]'
_chemical_formula_moiety         'C8 H8 Co N2 O6 S2'
_chemical_formula_sum            'C8 H8 Co N2 O6 S2'
_chemical_formula_weight         351.21
_chemical_name_systematic
;
Diaquabis(thiazole-2-carboxylato-\k^2^<i>N</i>,<i>O</i>)cobalt(II)
;
_space_group_crystal_system      monoclinic
_space_group_IT_number           14
_space_group_name_Hall           '-P 2yn'
_space_group_name_H-M_alt        'P 1 21/n 1'
_symmetry_space_group_name_Hall  '-P 2yn'
_symmetry_space_group_name_H-M   'P 1 21/n 1'
_atom_sites_solution_hydrogens   difmap
_audit_creation_method           SHELXL-2018/3
_cell_angle_alpha                90
_cell_angle_beta                 109.517(7)
_cell_angle_gamma                90
_cell_formula_units_Z            2
_cell_length_a                   5.0481(4)
_cell_length_b                   18.633(2)
_cell_length_c                   6.7533(6)
_cell_measurement_reflns_used    4872
_cell_measurement_temperature    150(2)
_cell_measurement_theta_max      29.55
_cell_measurement_theta_min      2.2
_cell_volume                     598.73(10)
_computing_cell_refinement
;
X-AREA (Stoe & Cie, 2016)
;
_computing_data_collection
;
X-AREA (Stoe & Cie, 2016)
;
_computing_data_reduction
;
SORTAV (Blessing, 1987, 1989)
;
_computing_structure_refinement
;
SHELXL2018 (Sheldrick, 2015b)
;
_computing_structure_solution
;
SHELXT2014 (Sheldrick, 2015a)
;
_diffrn_ambient_temperature      150(2)
_diffrn_detector_area_resol_mean 6.67
_diffrn_measured_fraction_theta_full 0.999
_diffrn_measured_fraction_theta_max 0.999
_diffrn_measurement_device_type  'Stoe IPDS2'
_diffrn_measurement_method       \w-scans
_diffrn_radiation_type           MoK\a
_diffrn_radiation_wavelength     0.71073
_diffrn_reflns_av_R_equivalents  0.0247
_diffrn_reflns_av_unetI/netI     0.0287
_diffrn_reflns_limit_h_max       6
_diffrn_reflns_limit_h_min       -4
_diffrn_reflns_limit_k_max       22
_diffrn_reflns_limit_k_min       -25
_diffrn_reflns_limit_l_max       9
_diffrn_reflns_limit_l_min       -9
_diffrn_reflns_number            4040
_diffrn_reflns_theta_full        26.000
_diffrn_reflns_theta_max         29.145
_diffrn_reflns_theta_min         2.186
_diffrn_source                   'fine-focus sealed tube'
_exptl_absorpt_coefficient_mu    1.806
_exptl_absorpt_correction_T_max  0.720
_exptl_absorpt_correction_T_min  0.677
_exptl_absorpt_correction_type   multi-scan
_exptl_absorpt_process_details
;
(SORTAV; Blessing, 1995)
;
_exptl_crystal_colour            'dark pink'
_exptl_crystal_density_diffrn    1.948
_exptl_crystal_description       Block
_exptl_crystal_F_000             354
_exptl_crystal_size_max          0.500
_exptl_crystal_size_mid          0.170
_exptl_crystal_size_min          0.170
_refine_diff_density_max         0.364
_refine_diff_density_min         -0.280
_refine_ls_extinction_method     none
_refine_ls_goodness_of_fit_ref   0.965
_refine_ls_hydrogen_treatment    refall
_refine_ls_matrix_type           full
_refine_ls_number_parameters     98
_refine_ls_number_reflns         1606
_refine_ls_number_restraints     0
_refine_ls_restrained_S_all      0.965
_refine_ls_R_factor_all          0.0263
_refine_ls_R_factor_gt           0.0215
_refine_ls_shift/su_max          0.000
_refine_ls_shift/su_mean         0.000
_refine_ls_structure_factor_coef Fsqd
_refine_ls_weighting_details
'w=1/[\s^2^(Fo^2^)+(0.0344P)^2^] where P=(Fo^2^+2Fc^2^)/3'
_refine_ls_weighting_scheme      calc
_refine_ls_wR_factor_gt          0.0529
_refine_ls_wR_factor_ref         0.0537
_reflns_number_gt                1382
_reflns_number_total             1606
_reflns_threshold_expression     'I > 2\s(I)'
_cod_data_source_file            fn3320sup1.cif
_cod_data_source_block           Co-2tza
_cod_database_code               2021754
_shelx_space_group_comment
;
The symmetry employed for this shelxl refinement is uniquely defined
by the following loop, which should always be used as a source of
symmetry information in preference to the above space-group names.
They are only intended as comments.
;
_shelx_estimated_absorpt_t_min   0.465
_shelx_estimated_absorpt_t_max   0.749
_shelx_hkl_file
;
   6   9  -1  154.57   24.81
   6   9  -1  156.68   23.36
   6   8  -1   61.76   15.88
   6   7  -1    9.08   14.09
   6   6  -1  144.02   14.15
   6   5  -1  280.66   14.74
   6   5  -2   15.49   14.94
   6   5  -2   17.47   15.39
   6   4  -1  128.91   13.00
   6   4  -2   59.50   13.92
   6   4  -2   59.30   12.66
   6   3  -1   72.11   12.22
   6   3  -2    7.05   11.66
   6   3  -2   12.62   11.19
   6   3  -3   86.43   16.97
   6   3  -3   81.56   15.82
   6   2  -1   20.71   10.71
   6   2  -2  311.66   14.79
   6   2  -2  292.28   14.84
   6   2  -3   49.08   12.83
   6   2  -3   52.97   13.37
   6   2  -4  355.35   22.30
   6   2  -4  355.77   20.81
   6   1  -1  479.28   15.58
   6   1  -2   50.40   11.98
   6   1  -2   49.82   11.61
   6   1  -3   43.14   11.34
   6   1  -3   49.58   12.01
   6   1  -4  317.19   17.72
   6   1  -4  307.95   15.68
   6   1  -5   78.27   16.13
   6   1  -5   76.07   16.27
   6   1  -6  399.02   22.96
   6   1  -6  380.09   24.12
   6   1  -7   90.04   19.26
   6   0  -1   -3.39   10.20
   6   0  -2   25.14    9.79
   6   0  -2   28.77    9.52
   6   0  -3    0.93   11.14
   6   0  -3    4.88   11.47
   6   0  -4  767.37   26.31
   6   0  -4  812.32   21.00
   6   0  -5    1.11   12.13
   6   0  -5   -1.87   14.03
   6   0  -6  130.18   15.87
   6   0  -7   -0.54   17.73
   6  -1   0   51.74   11.31
   6  -1  -1  489.38   14.67
   6  -1  -2   52.66    9.80
   6  -1  -2   55.23   11.05
   6  -1  -3   48.10   12.11
   6  -1  -3   46.21   11.76
   6  -1  -4  320.54   15.00
   6  -1  -4  302.54   13.97
   6  -1  -5   82.03   12.83
   6  -1  -6  383.48   17.82
   6  -1  -7   91.39   16.87
   6  -2   0  102.87   10.85
   6  -2  -1   19.04    9.25
   6  -2  -2  308.11   12.78
   6  -2  -2  300.92   12.73
   6  -2  -3   50.84   10.01
   6  -2  -3   48.57   10.22
   6  -2  -4  365.34   14.82
   6  -2  -4  354.60   15.23
   6  -2  -5   83.35   11.60
   6  -2  -6   12.89   13.33
   6  -3   0   56.73    9.90
   6  -3  -1   67.30    9.43
   6  -3  -2    7.40    9.55
   6  -3  -2   13.48   11.51
   6  -3  -3   85.26   11.61
   6  -3  -3   90.28   10.53
   6  -3  -4   38.52   12.35
   6  -3  -5  971.82   22.63
   6  -3  -6   18.62   14.18
   6  -4   0  400.49   14.68
   6  -4  -1  123.35    9.95
   6  -4  -2   55.63   10.84
   6  -4  -2   54.09    9.95
   6  -4  -3   25.43   10.42
   6  -4  -3   27.32   10.29
   6  -4  -4  494.99   14.83
   6  -4  -5   13.03   11.07
   6  -4  -6  107.93   13.74
   6  -5   0    3.35    9.97
   6  -5  -1  287.58   14.51
   6  -5  -2   14.66    9.48
   6  -5  -2   20.78    9.38
   6  -5  -3  700.34   20.08
   6  -5  -3  695.81   17.33
   6  -5  -4   27.23   11.05
   6  -5  -5   50.53   11.25
   6  -5  -6  187.11   13.31
   6  -6   0  125.12   11.14
   6  -6  -1  144.08   11.25
   6  -6  -2  160.52   10.68
   6  -6  -2  160.87   11.31
   6  -6  -3  350.71   13.18
   6  -6  -4  202.39   13.02
   6  -6  -5    6.18   12.90
   6  -6  -6  192.62   13.88
   6  -7   0   19.64    8.09
   6  -7  -1    8.85   10.37
   6  -7  -1   10.41   10.60
   6  -7  -2   30.19    9.24
   6  -7  -2   28.64    9.44
   6  -7  -3  194.03   11.54
   6  -7  -4   41.42   10.15
   6  -7  -5  794.85   18.44
   6  -7  -6   31.01   13.14
   6  -8   0  133.76   12.09
   6  -8  -1   55.85   11.03
   6  -8  -1   52.52   11.26
   6  -8  -2  518.45   18.60
   6  -8  -2  518.88   17.30
   6  -8  -3   49.66   10.27
   6  -8  -4   49.62    9.89
   6  -8  -5    5.44   11.23
   6  -8  -6  242.99   13.19
   6  -9   0   86.36   11.75
   6  -9  -1  152.34    9.15
   6  -9  -1  139.99   11.86
   6  -9  -2   21.33   11.07
   6  -9  -2   31.38   10.03
   6  -9  -3  247.97   13.09
   6  -9  -4    0.15    9.49
   6  -9  -5  150.61   13.20
   6 -10   0  240.27   13.79
   6 -10  -1  100.27   12.36
   6 -10  -1   94.85   12.15
   6 -10  -2   72.26   10.47
   6 -10  -3    1.95   11.32
   6 -10  -4  273.19   14.20
   6 -10  -5    9.66   12.61
   6 -11  -1   86.59   12.08
   6 -11  -1   78.30   11.02
   6 -11  -2   -4.24    8.39
   6 -11  -3   62.82   10.82
   6 -11  -4   37.25   10.70
   6 -12  -2  342.65   13.33
   6 -12  -3    4.82   12.08
   6 -12  -4  115.35   11.83
   5  10  -1  215.31   17.43
   5   9  -1   12.31   13.26
   5   8  -1  616.61   28.10
   5   7  -1    2.85   10.69
   5   6  -1  475.09   14.73
   5   5  -1   27.70   10.02
   5   5  -2   15.71   10.97
   5   5  -2   16.55   12.72
   5   4  -1  144.54   10.51
   5   4  -2  660.48   22.94
   5   4  -2  682.52   18.94
   5   4  -8   12.78   19.05
   5   3  -1   32.88    9.63
   5   3  -2  516.39   16.15
   5   3  -2  512.14   15.44
   5   3  -3  130.31   13.09
   5   3  -3  125.43   12.70
   5   3  -6    1.04   15.94
   5   3  -7  177.96   15.38
   5   3  -8  821.30   29.44
   5   2  -1 1168.00   25.16
   5   2  -2   11.97    8.67
   5   2  -2    8.72    9.15
   5   2  -3    3.28   10.03
   5   2  -3    3.13    9.25
   5   2  -4  165.18   13.50
   5   2  -4  158.44   12.31
   5   2  -5  709.28   21.55
   5   2  -6   50.74   13.52
   5   2  -7  345.72   15.24
   5   2  -8  148.14   15.61
   5   1  -1  280.70   11.53
   5   1  -2  157.03    9.90
   5   1  -2  165.36    9.34
   5   1  -3   53.83    9.29
   5   1  -3   58.62   10.22
   5   1  -4  191.66   12.11
   5   1  -5  368.16   13.80
   5   1  -6  102.26   12.27
   5   1  -7  370.25   15.87
   5   1  -8  162.25   14.68
   5   0  -1    3.27    7.50
   5   0  -2    1.33    7.64
   5   0  -2   -2.14    7.10
   5   0  -3  313.59   12.41
   5   0  -3  300.57   11.01
   5   0  -4    0.31    8.15
   5   0  -5  103.72   10.90
   5   0  -6    0.54   10.87
   5   0  -7   74.48   11.03
   5   0  -8    1.91   12.22
   5  -1   0  329.79   11.09
   5  -1  -1  263.09   10.84
   5  -1  -2  164.85    9.11
   5  -1  -2  164.38    9.33
   5  -1  -3   56.80    9.72
   5  -1  -4  190.80    9.31
   5  -1  -5  375.75   13.57
   5  -1  -6   98.59   10.05
   5  -1  -7  351.59   15.51
   5  -1  -8  169.10   14.72
   5  -2   0    2.59    8.33
   5  -2  -1 1215.13   45.79
   5  -2  -2    6.57    7.43
   5  -2  -2    2.73    7.93
   5  -2  -3    4.62    7.54
   5  -2  -4  162.51    9.72
   5  -2  -5  695.70   16.85
   5  -2  -6   47.87   11.54
   5  -2  -7  359.12   14.79
   5  -2  -8  158.22   15.13
   5  -3   0  212.75    9.35
   5  -3  -1   33.17    7.62
   5  -3  -2  489.61   13.62
   5  -3  -2  483.68   14.90
   5  -3  -3  133.06    9.06
   5  -3  -4 1438.47   28.99
   5  -3  -5  192.89   10.01
   5  -3  -6    3.29    9.48
   5  -3  -7  173.02   11.52
   5  -3  -8  854.99   20.81
   5  -4   0  202.16    9.98
   5  -4  -1  133.09    8.62
   5  -4  -2  646.87   16.70
   5  -4  -3 1401.98   32.33
   5  -4  -4  487.39   13.57
   5  -4  -5  397.09   12.52
   5  -4  -6   15.41    9.04
   5  -4  -7   58.44   11.05
   5  -4  -8   16.57   12.55
   5  -5   0 1136.28   43.60
   5  -5  -1   34.09    8.19
   5  -5  -2   14.73    7.48
   5  -5  -3   28.98    8.09
   5  -5  -4  247.02   11.03
   5  -5  -5   17.50    9.76
   5  -5  -6 1290.33   26.69
   5  -5  -7   65.43   10.77
   5  -5  -8    8.03   11.75
   5  -6   0    1.92    8.03
   5  -6  -1  461.64   14.95
   5  -6  -2   57.15    8.39
   5  -6  -3  223.92   10.34
   5  -6  -4   76.84    8.32
   5  -6  -5  284.44   11.07
   5  -6  -6  198.39   10.49
   5  -6  -7   11.35   11.34
   5  -7   0    8.25    8.44
   5  -7  -1   -2.17    7.94
   5  -7  -2  533.30   14.54
   5  -7  -3  103.39    8.98
   5  -7  -4  293.71   13.60
   5  -7  -5   10.28    9.16
   5  -7  -6    1.51    9.56
   5  -7  -7   -1.84   11.42
   5  -8   0  198.25    8.33
   5  -8  -1  525.14   18.24
   5  -8  -2  489.79   15.55
   5  -8  -3   16.89    8.78
   5  -8  -4   89.58    9.24
   5  -8  -5  435.95   13.68
   5  -8  -6  134.50   10.82
   5  -8  -7  157.53   13.37
   5  -9   0  910.02   23.58
   5  -9  -1   11.23    7.92
   5  -9  -2  171.02    8.33
   5  -9  -3    5.79    6.45
   5  -9  -4    8.30    9.35
   5  -9  -5    0.61    9.07
   5  -9  -6 1336.93   26.61
   5  -9  -7    3.25   11.70
   5 -10   0   -1.37    8.26
   5 -10  -1  222.16   10.38
   5 -10  -2   89.45    8.65
   5 -10  -3  315.93   12.32
   5 -10  -4    1.82    9.60
   5 -10  -5  260.03   11.12
   5 -10  -6   14.69   10.84
   5 -10  -7  177.85   11.89
   5 -11   0   83.65    7.33
   5 -11  -1  361.56   13.35
   5 -11  -2  332.74   13.50
   5 -11  -3   15.35    6.55
   5 -11  -4  341.12   15.41
   5 -11  -5   76.65   10.17
   5 -11  -6   -0.38   10.42
   5 -12   0   26.72    9.30
   5 -12  -1  686.19   16.35
   5 -12  -2   46.02    8.71
   5 -12  -3   30.09    9.49
   5 -12  -4   64.60   10.80
   5 -12  -5  336.05   12.71
   5 -12  -6   27.62   10.92
   5 -13   0   28.57    9.84
   5 -13  -1    4.40    9.84
   5 -13  -2  129.90    9.49
   5 -13  -3   11.61    9.25
   5 -13  -4  168.92   10.18
   5 -13  -5  423.32   12.94
   5 -13  -6  112.00   11.52
   5 -14   0   55.58   10.49
   5 -14   0   55.15   10.75
   5 -14  -1   28.18    9.39
   5 -14  -2    9.92    8.02
   5 -14  -3  607.16   22.90
   5 -14  -4   17.39   11.19
   5 -14  -5  102.13    8.68
   5 -15   0  124.03   11.06
   5 -15   0  120.74    9.17
   5 -15  -1   55.98   10.12
   5 -15  -2  329.15   13.10
   5 -15  -3   51.90   10.32
   5 -15  -4  129.52   10.98
   5 -15  -5   31.67   10.98
   5 -16   0    1.94   10.90
   5 -16   0   -0.72   12.74
   5 -16  -1  505.99   18.92
   5 -16  -2   -5.77    9.91
   5 -16  -3  126.91   11.29
   5 -16  -4   68.54   12.13
   5 -17  -1  166.01   12.24
   5 -17  -2  318.19   14.97
   5 -17  -3    9.41   12.16
  -4 -20   1    7.96   21.14
  -4 -19   1   20.54   18.46
  -4 -18   1    2.50   16.66
  -4 -17   1  488.46   27.59
  -4 -16   1  236.65   18.62
   4  11  -1  334.69   17.30
   4  10  -1   38.10   12.38
  -4 -10   8  170.50   20.92
   4   9  -1   19.35   10.16
  -4  -9   8   -1.47   17.48
   4   8  -1   59.88   10.33
  -4  -8   7   14.03   15.88
  -4  -8   8   29.18   14.96
   4   7  -1 2090.73   39.35
  -4  -7   7 1000.35   28.20
  -4  -7   8   20.99   13.85
   4   6  -1  132.49    9.71
  -4  -6   7   10.93   11.30
  -4  -6   8   83.75   13.80
   4   5  -1  100.15    8.95
   4   5  -2    1.46   11.44
   4   5  -2    4.02   13.06
   4   5  -6  261.24   14.38
  -4  -5   7  149.83   13.05
   4   5  -7  194.01   12.86
  -4  -5   8   51.92   12.63
   4   5  -8   62.56   12.50
   4   4  -1  348.90   11.26
   4   4  -2 2250.22   51.56
   4   4  -2 2297.96   45.89
   4   4  -5  267.32   15.10
  -4  -4   6  555.04   18.00
   4   4  -6  637.33   19.11
   4   4  -7   27.18   11.04
  -4  -4   7   18.25   10.81
  -4  -4   8   99.58   12.65
   4   4  -8  126.98   12.28
   4   3  -1 1751.89   43.34
   4   3  -2  176.08   10.05
   4   3  -2  177.67   10.39
   4   3  -3   65.19   11.25
   4   3  -3   68.73   11.47
   4   3  -4  427.36   17.73
   4   3  -5   50.59   10.42
   4   3  -6  145.76   10.57
  -4  -3   6  124.80   10.54
  -4  -3   7  399.23   14.56
   4   3  -7  474.14   15.90
   4   3  -8  133.41   11.60
  -4  -3   8  104.49   11.34
   4   2  -1   47.19    6.79
   4   2  -2  208.88   10.31
   4   2  -2  202.47    9.13
   4   2  -3   85.36    8.67
   4   2  -4  643.13   17.65
   4   2  -5  148.24   10.06
   4   2  -6  366.40   14.02
  -4  -2   6  339.02   11.85
  -4  -2   7   22.75    8.95
   4   2  -7   28.07    8.85
   4   2  -8   21.91   10.64
  -4  -2   8   13.32   12.59
   4   1  -1 1079.41   23.75
   4   1  -2  489.58   14.93
   4   1  -2  480.77   13.60
   4   1  -3  142.00    8.84
   4   1  -4  312.95   11.81
   4   1  -5 1890.69   42.93
   4   1  -6  405.04   12.75
  -4  -1   6  376.01   12.09
  -4  -1   7  260.88   12.88
   4   1  -7  308.71   11.90
  -4  -1   8  355.09   15.22
   4   1  -8  399.08   14.26
   4   0  -1    0.54    6.25
   4   0  -2 2973.09   62.35
   4   0  -2 2949.97   56.46
   4   0  -3    0.76    7.83
   4   0  -4  409.07   14.13
   4   0  -5    1.69    8.06
   4   0  -6 1289.47   23.11
  -4   0   6 1226.81   23.48
  -4   0   7    0.05    8.71
   4   0  -7   -1.65    9.29
  -4   0   8  177.62   12.27
   4   0  -8  211.53   11.83
   4  -1   0   91.82    7.05
   4  -1  -1 1080.52   26.28
   4  -1  -2  475.84   13.29
   4  -1  -3  139.36    8.65
   4  -1  -4  340.38   13.91
   4  -1  -5 1979.44   32.91
   4  -1  -6  384.81   12.38
  -4   1   6  369.27   11.49
   4  -1  -7  300.69   13.36
  -4   1   7  257.65   11.16
   4  -1  -8  404.56   14.44
  -4   1   8  381.62   15.43
   4  -2   0  216.91   11.23
   4  -2  -1   48.26    6.40
   4  -2  -2  215.51    9.37
   4  -2  -3   86.32    7.21
   4  -2  -4  658.12   26.34
   4  -2  -5  150.52    8.60
  -4   2   6  328.22   12.68
   4  -2  -6  360.33   11.16
   4  -2  -7   26.74    9.29
  -4   2   7   23.60    9.64
   4  -2  -8   17.03   11.02
  -4   2   8   17.51   10.36
   4  -3   0  165.22    7.94
   4  -3  -1 1719.54   55.64
   4  -3  -2  175.48    8.00
   4  -3  -3   60.53    6.57
   4  -3  -4  392.43   10.54
   4  -3  -5   45.46    7.69
   4  -3  -6  148.09    9.60
  -4   3   6  130.15    9.09
   4  -3  -7  454.61   13.74
  -4   3   7  434.92   14.01
   4  -3  -8  136.19   11.98
  -4   3   8  108.07   11.16
   4  -4   0  647.52   17.31
   4  -4  -2 2121.66   50.93
   4  -4  -3  288.91   12.10
   4  -4  -4  209.32    9.22
   4  -4  -5  279.94   10.87
   4  -4  -6  623.06   14.26
  -4   4   6  560.16   14.87
  -4   4   7   22.85    9.12
   4  -4  -7   22.11    9.20
   4  -4  -8  126.74   10.75
  -4   4   8  109.70   11.34
   4  -5   0  315.15   11.10
   4  -5  -2   -0.75    6.32
   4  -5  -3 1051.78   22.74
   4  -5  -4    8.00    6.95
   4  -5  -5  478.03   13.39
   4  -5  -6  245.08   10.79
  -4   5   6  223.15    9.75
  -4   5   7  165.68   10.40
   4  -5  -7  176.41   10.39
  -4   5   8   54.76   11.18
   4  -5  -8   71.72   11.33
   4  -6   0  962.35   26.16
   4  -6  -2  512.21   13.25
   4  -6  -3  246.51    8.93
   4  -6  -4  945.21   19.63
   4  -6  -5   10.12    7.75
  -4   6   6  641.56   15.08
   4  -6  -6  695.04   16.17
  -4   6   7   12.61    9.02
   4  -6  -7   12.61    9.92
  -4   6   8  103.46   11.22
   4  -6  -8  116.03   11.17
   4  -7   0   -1.35    6.36
   4  -7  -2    5.79    5.05
   4  -7  -3  141.10    8.08
   4  -7  -4   48.24    7.89
   4  -7  -5  168.59    9.69
   4  -7  -6   35.24    8.55
   4  -7  -7 1246.62   23.72
  -4   7   7 1142.78   21.34
   4  -7  -8   29.29   11.33
  -4   7   8   26.30   11.76
   4  -8  -2   40.47    6.61
   4  -8  -3  687.40   16.41
   4  -8  -4  396.89   11.22
   4  -8  -5   68.79    8.28
   4  -8  -6  213.64   10.30
  -4   8   7    4.91    8.93
   4  -8  -7    6.61    9.22
  -4   8   8   34.14   11.03
   4  -8  -8   42.38   11.63
   4  -9  -2  175.35    8.60
   4  -9  -3  671.13   15.60
   4  -9  -4    1.35    7.31
   4  -9  -5 1211.19   21.75
   4  -9  -6   21.75    6.88
  -4   9   7   -0.44    7.29
   4  -9  -7    9.62   10.39
  -4   9   8   -1.81    8.85
   4  -9  -8   -2.54   11.09
   4 -10  -1   36.18    7.31
   4 -10  -2  253.11   11.04
   4 -10  -3  481.58   13.32
   4 -10  -4    9.52    8.04
   4 -10  -5  167.45    7.37
   4 -10  -6   80.48    7.46
   4 -10  -7   91.31   10.54
  -4  10   7   91.57    9.87
  -4  10   8  308.56   13.57
   4 -10  -8  297.55   14.31
   4 -11  -1  297.38   10.95
   4 -11  -2   33.50    7.68
   4 -11  -3  186.23   10.12
   4 -11  -4   52.45    8.44
   4 -11  -5  219.72   12.80
   4 -11  -6  234.15   10.60
   4 -11  -7  760.57   19.45
   4 -12  -1  134.36    8.55
   4 -12  -2    6.19    7.36
   4 -12  -3    2.17    7.28
   4 -12  -4 1874.08   35.58
   4 -12  -5   18.64    8.97
   4 -12  -6    6.57   10.56
   4 -12  -7   38.83   10.99
   4 -13  -1  107.36    8.14
   4 -13  -2  237.15   10.83
   4 -13  -3  372.85   10.69
   4 -13  -4   65.48    9.11
   4 -13  -5  205.64   12.45
   4 -13  -6  310.57   11.11
   4 -13  -7   38.99   11.74
   4 -14  -1  172.85    9.49
   4 -14  -2 1575.35   46.91
   4 -14  -3    0.71    8.61
   4 -14  -4  110.06    8.67
   4 -14  -5   18.73    9.63
   4 -14  -6  255.91   12.26
   4 -14  -7    5.06   11.04
   4 -15   0   57.67    8.56
   4 -15  -1  127.56    9.25
   4 -15  -2   24.80    6.36
   4 -15  -3  277.70   11.56
   4 -15  -4   27.86    8.61
   4 -15  -5  154.65   11.93
   4 -15  -6  236.25   12.66
   4 -16   0  315.05   11.28
   4 -16  -1  242.44   11.75
   4 -16  -2    8.91    8.59
   4 -16  -3  290.95   12.05
   4 -16  -4  470.46   14.25
   4 -16  -5  105.04    9.57
   4 -16  -6   76.82   11.34
   4 -17   0  108.17   10.95
   4 -17  -1  503.96   17.18
   4 -17  -2  484.85   15.93
   4 -17  -3  220.58    9.23
   4 -17  -4    6.84    9.81
   4 -17  -5    6.09   10.67
   4 -18   0   42.61   10.86
   4 -18  -1    1.70    9.87
   4 -18  -2  196.22   11.86
   4 -18  -3   -4.55    8.01
   4 -18  -4   26.54   10.13
   4 -18  -5   37.15   13.01
   4 -19   0   13.98    8.23
   4 -19  -1   30.58    9.02
   4 -19  -2    1.59   10.21
   4 -19  -3  669.70   21.43
   4 -19  -4  -14.52   11.95
   4 -20   0  142.45   11.82
   4 -20  -1   11.85   11.85
   4 -20  -2    3.86    9.13
   4 -20  -3   87.44    8.98
  -3 -22   1   81.10   14.36
  -3 -22   2  149.19   16.76
  -3 -22   3   23.57   15.04
  -3 -22   3   15.75   19.06
  -3 -21   1    4.61   12.86
  -3 -21   2   42.55   14.58
  -3 -21   3   22.40   18.15
  -3 -21   3   23.58   15.95
  -3 -21   4  421.44   29.37
  -3 -21   4  336.15   30.29
  -3 -20   1   85.62   12.90
  -3 -20   2   68.09   13.30
  -3 -20   3  339.77   19.76
  -3 -20   3  404.01   20.05
  -3 -20   4   33.55   23.79
  -3 -20   4   43.11   22.51
  -3 -19   1    1.57   11.47
  -3 -19   2  163.75   14.16
  -3 -19   3    6.33   15.90
  -3 -19   3    5.90   14.62
  -3 -19   4  272.96   28.53
  -3 -19   4  319.94   28.30
  -3 -18   1  514.38   16.77
  -3 -18   2    4.81   12.74
  -3 -18   3   94.84   16.02
  -3 -18   3  119.16   17.05
  -3 -18   6   25.10   20.65
  -3 -18   6   22.83   20.57
  -3 -17   1   92.00   11.46
  -3 -17   2   86.35   12.10
  -3 -17   3    6.51   16.47
  -3 -17   3    6.14   17.35
  -3 -17   6  186.74   20.39
  -3 -17   6  191.01   19.34
  -3 -16   1  218.09   11.68
  -3 -16   2   83.71   13.25
  -3 -16   5   12.72   21.68
  -3 -16   5    9.37   23.59
  -3 -16   6   58.06   16.11
  -3 -16   6   70.52   18.24
  -3 -15   1  178.87   11.51
  -3 -15   2  606.16   21.48
  -3 -15   5   19.58   20.95
  -3 -15   5   18.58   20.58
  -3 -15   6   38.35   15.78
  -3 -15   6   38.81   13.48
  -3 -15   7   63.26   16.84
  -3 -14   1  433.45   15.43
  -3 -14   2    1.45   13.15
  -3 -14   5  510.96   26.11
  -3 -14   5  538.15   28.22
  -3 -14   6   12.26   12.29
  -3 -14   6    8.02   14.44
  -3 -14   7    9.24   15.70
  -3 -13   1  133.49   10.43
  -3 -13   5   44.39   16.85
  -3 -13   5   50.52   17.08
  -3 -13   6  190.10   15.52
  -3 -13   7  233.61   14.92
  -3 -12   1   42.11    8.96
  -3 -12   5    5.47   16.13
  -3 -12   5    5.42   13.79
  -3 -12   6   -0.66   11.53
  -3 -12   7  350.80   16.15
  -3 -12   8   34.20   15.70
  -3 -11   1  689.82   18.38
  -3 -11   5  156.75   17.89
  -3 -11   5  156.60   14.82
  -3 -11   6  441.17   15.41
  -3 -11   7  126.92   12.72
  -3 -11   8   32.64   14.16
  -3 -10   1  219.58   11.80
   3  10  -1  229.79   12.23
  -3 -10   5  988.53   28.56
  -3 -10   6   32.80   11.01
  -3 -10   7  400.88   16.89
  -3 -10   8    2.44   13.64
  -3  -9   1   42.10    9.01
   3   9  -1   43.51    8.96
  -3  -9   5   28.15   11.62
  -3  -9   6  110.29   11.26
  -3  -9   7  327.79   13.96
  -3  -9   8  569.13   17.63
   3   8  -1 1220.50   36.70
  -3  -8   1 1151.29   32.72
  -3  -8   5  301.11   15.33
  -3  -8   6  266.94   12.43
  -3  -8   7  501.89   14.13
  -3  -8   8    1.45   12.20
   3   7  -1   60.35    8.46
  -3  -7   5   12.10    9.64
  -3  -7   6 1181.62   28.21
  -3  -7   7   69.68   10.24
  -3  -7   8  113.29   12.57
   3   6  -1 1158.27   25.61
  -3  -6   5   32.62    9.87
  -3  -6   6   57.74    9.45
   3   6  -6   58.50    7.58
  -3  -6   7  298.50   12.59
   3   6  -7  337.42   12.42
   3   6  -8    2.43   11.48
  -3  -6   8    3.06   11.73
   3   5  -1 1036.05   25.89
  -3  -5   4  262.53   12.96
   3   5  -4  283.27   13.91
  -3  -5   5  131.74   10.15
   3   5  -5  142.78    9.00
   3   5  -6  121.52    9.80
  -3  -5   6  108.71    9.46
   3   5  -7   86.26    8.87
  -3  -5   7   75.16    9.50
  -3  -5   8  681.78   17.97
   3   5  -8  708.98   18.86
  -3  -5   9   23.87   12.21
   3   5  -9   24.42   12.06
   3   4  -1  539.85   15.12
  -3  -4   4  379.74   13.70
   3   4  -4  434.56   17.80
   3   4  -5  194.73    9.26
  -3  -4   5  173.19    9.66
   3   4  -6  186.70   10.04
  -3  -4   6  171.81    9.88
  -3  -4   7  165.48   10.03
   3   4  -7  174.20    9.78
  -3  -4   8   25.87   11.24
   3   4  -8   21.98   10.05
   3   4  -9   60.90   12.81
  -3  -4   9   43.30   11.70
   3   3  -1   92.80    7.79
   3   3  -2  391.80   15.80
   3   3  -2  388.68   15.69
   3   3  -3  108.86   10.08
  -3  -3   4  740.17   21.05
   3   3  -4  794.63   19.32
   3   3  -5  297.70   10.08
  -3  -3   5  298.12   11.36
  -3  -3   6  983.12   19.72
   3   3  -6 1014.17   20.43
  -3  -3   7  238.09   12.29
   3   3  -7  244.21   10.46
   3   3  -8   -0.86    9.44
  -3  -3   8   -0.85    9.72
   3   3  -9   95.24   11.59
  -3  -3   9   87.61   13.53
   3   2  -1  438.04   12.47
   3   2  -2  111.56    8.63
   3   2  -3 2377.89   46.10
   3   2  -4  155.66    9.12
  -3  -2   4  155.08    9.12
   3   2  -5  262.37   10.84
  -3  -2   5  227.72    8.80
  -3  -2   6  484.09   17.88
   3   2  -6  480.22   12.50
  -3  -2   7  306.12   10.79
   3   2  -7  342.97   11.08
  -3  -2   8  114.19   10.92
   3   2  -8  133.82   10.14
  -3  -2   9  264.92   13.18
   3   2  -9  305.78   13.88
   3   1  -1 1265.72   33.41
   3   1  -2 1520.02   39.45
   3   1  -3  714.37   17.21
   3   1  -4  171.09    9.38
  -3  -1   4  176.42    8.58
   3   1  -5    2.94    7.88
  -3  -1   5    0.41    6.60
   3   1  -6  609.76   14.53
  -3  -1   6  555.68   17.44
   3   1  -7  265.74   12.02
  -3  -1   7  250.56   10.04
  -3  -1   8  246.67   11.32
   3   1  -8  273.48   11.64
   3   1  -9  295.57   14.14
  -3  -1   9  272.62   14.29
   3   0  -1 3217.61   80.93
   3   0  -2    0.38    6.52
   3   0  -3    8.29    5.57
  -3   0   4   -2.01    6.05
   3   0  -4    1.18    6.55
  -3   0   5 5539.28  111.94
   3   0  -5 5624.78   97.22
   3   0  -6   -2.60    7.36
  -3   0   6   -2.51    6.93
   3   0  -7   58.94    8.05
  -3   0   7   57.59    8.26
   3   0  -8    2.22    9.88
  -3   0   8   -1.42    9.58
  -3   0   9  149.23   13.58
   3   0  -9  155.69   11.59
   3  -1   0   74.76    6.24
   3  -1  -2 1373.94   41.14
   3  -1  -3  702.71   16.17
   3  -1  -4  167.07    7.67
  -3   1   4  159.36    7.45
   3  -1  -5    5.88    6.78
  -3   1   5    1.71    6.46
   3  -1  -6  565.25   12.62
  -3   1   6  520.50   13.47
  -3   1   7  261.28   10.37
   3  -1  -7  268.25   11.09
  -3   1   8  229.79   12.59
   3  -1  -8  255.99   10.83
   3  -1  -9  285.22   13.31
  -3   1   9  302.60   14.44
   3  -2   0   24.31    5.92
   3  -2  -2  112.42    6.97
   3  -2  -3 2210.25   43.19
   3  -2  -4  160.58    8.30
  -3   2   4  151.39    7.71
   3  -2  -5  238.86    8.70
  -3   2   5  244.82    8.66
  -3   2   6  469.13   16.15
   3  -2  -6  502.08   14.91
   3  -2  -7  340.23   11.08
  -3   2   7  317.76   11.06
  -3   2   8  118.94   10.87
   3  -2  -8  127.84    8.01
  -3   2   9  291.39   13.45
   3  -2  -9  310.65   13.80
   3  -3   0 1283.61   33.95
   3  -3  -2  388.16   11.40
   3  -3  -3  111.83    7.77
   3  -3  -4  713.97   14.78
  -3   3   4  694.39   15.73
  -3   3   5  315.39   11.09
   3  -3  -5  322.71   10.93
   3  -3  -6  984.37   21.98
  -3   3   6  976.79   27.04
   3  -3  -7  248.80   10.67
  -3   3   7  256.11   10.41
   3  -3  -8   -1.81    9.33
  -3   3   8   -1.35    8.70
   3  -3  -9   95.65   11.72
  -3   3   9   91.63   12.22
   3  -4  -2 1009.97   23.75
   3  -4  -3   20.36    5.65
   3  -4  -4  412.93   11.45
  -3   4   4  421.36   10.47
   3  -4  -5  201.06    8.43
  -3   4   5  176.71    7.60
  -3   4   6  181.33    8.95
   3  -4  -6  169.34    8.30
  -3   4   7  175.77   10.28
   3  -4  -7  175.84    7.54
  -3   4   8   26.96   10.07
   3  -4  -8   25.80   10.41
  -3   4   9   44.29   11.81
   3  -4  -9   42.82   13.04
   3  -5  -2 4923.73  105.86
   3  -5  -3  661.03   19.56
  -3   5   4  266.42    9.37
   3  -5  -4  284.91    7.63
  -3   5   5  144.81    7.95
   3  -5  -5  129.35    5.81
   3  -5  -6  129.54    8.50
  -3   5   6  101.15    7.34
  -3   5   7   80.33    8.70
   3  -5  -7   93.77    9.45
   3  -5  -8  715.32   23.40
  -3   5   8  698.45   23.89
  -3   5   9   15.96   11.69
   3  -6  -2   71.17    5.11
   3  -6  -3 1035.72   22.13
  -3   6   4  141.18    7.38
   3  -6  -4  148.47    7.51
   3  -6  -5   35.84    6.92
  -3   6   5   37.29    6.95
   3  -6  -6   57.81    7.89
  -3   6   6   52.18    7.40
   3  -6  -7  332.03   11.77
  -3   6   7  308.65   11.54
  -3   6   8   10.32   10.39
   3  -6  -8    1.85    9.66
   3  -7  -2  160.83    7.45
   3  -7  -3  749.76   17.56
  -3   7   4  905.18   18.13
   3  -7  -4  886.69   15.97
  -3   7   5   10.73    6.90
   3  -7  -5   10.41    5.08
  -3   7   6 1387.31   33.41
   3  -7  -6 1474.23   24.50
  -3   7   7   67.68    8.28
   3  -7  -7   78.66    9.21
  -3   7   8  129.10   11.40
   3  -7  -8  130.57   11.06
   3  -8  -2  116.49    6.91
   3  -8  -3 1272.39   27.51
   3  -8  -4 1221.26   26.62
  -3   8   5  302.31    9.03
   3  -8  -5  328.72    9.79
  -3   8   6  300.08   10.08
   3  -8  -6  331.84   11.92
   3  -8  -7  565.59   14.09
  -3   8   7  570.07   17.75
  -3   8   8    2.26    9.56
   3  -8  -8   -0.74   10.91
   3  -9  -1   42.89    5.97
   3  -9  -2 1356.19   27.26
   3  -9  -3   11.39    4.64
   3  -9  -4   -0.48    6.23
  -3   9   5   21.83    7.08
   3  -9  -5   26.43    7.66
  -3   9   6  126.17    8.77
   3  -9  -6  111.39    8.43
   3  -9  -7  371.46   12.21
  -3   9   7  387.99   13.98
  -3   9   8  619.64   16.85
   3  -9  -8  635.90   16.77
   3 -10  -1  225.63    8.70
   3 -10  -2  363.28   11.32
   3 -10  -3  344.18    9.46
   3 -10  -4  284.15    9.64
  -3  10   5 1230.42   21.49
   3 -10  -5 1207.77   22.19
  -3  10   6   40.23    8.14
   3 -10  -6   40.71    6.51
   3 -10  -7  420.25   12.85
  -3  10   7  437.57   11.71
   3 -10  -8    3.79   11.16
  -3  10   8    3.40   11.22
   3 -11  -1  744.79   16.27
   3 -11  -2  297.84   10.42
   3 -11  -3   37.01    6.30
   3 -11  -4  428.91   12.81
  -3  11   5  164.29    8.90
   3 -11  -5  162.78    8.78
  -3  11   6  515.66   11.61
   3 -11  -6  519.80   12.03
   3 -11  -7  148.74   11.04
  -3  11   7  146.13   10.35
   3 -11  -8   37.60   11.88
  -3  11   8   30.47   10.71
   3 -12  -1   42.26    6.62
   3 -12  -2  161.04    7.71
   3 -12  -3 2215.94   47.68
   3 -12  -4   18.78    5.28
  -3  12   5    0.25    5.65
   3 -12  -5    4.26    5.94
  -3  12   6    7.90    8.41
   3 -12  -6   -1.76    9.14
   3 -12  -7  439.10   13.16
  -3  12   7  398.61   14.91
  -3  12   8   28.23   11.92
   3 -12  -8   32.52   12.67
   3 -13  -1  131.02    6.02
   3 -13  -2 1433.97   39.98
   3 -13  -3  236.41    7.96
   3 -13  -4  299.26    9.41
   3 -13  -5   62.23    8.84
  -3  13   6  222.66    8.45
   3 -13  -6  219.95   10.55
   3 -13  -7  278.31   10.37
  -3  13   7  281.71    9.54
   3 -14   0   32.64    6.77
   3 -14  -1  490.45   14.78
   3 -14  -2   -2.05    5.34
   3 -14  -3   33.27    7.98
   3 -14  -4    7.52    7.46
   3 -14  -5  639.16   20.63
  -3  14   6    9.93    9.47
   3 -14  -6   11.93    9.42
   3 -14  -7   15.56   10.57
  -3  14   7   16.04   11.11
   3 -15   0  428.57   11.97
   3 -15  -1  209.53    7.80
   3 -15  -2  669.97   17.01
   3 -15  -3  659.81   20.17
   3 -15  -4  273.52   10.82
   3 -15  -5   30.69    9.97
  -3  15   6   48.13    9.35
   3 -15  -6   48.05    9.75
   3 -15  -7   75.97   11.25
  -3  15   7   90.18   11.40
   3 -16   0   40.65    6.04
   3 -16  -1  247.93   10.96
   3 -16  -2   90.48    6.42
   3 -16  -3  500.51   19.19
   3 -16  -4  244.53   10.66
   3 -16  -5    6.62    9.43
   3 -16  -6   76.16   11.24
   3 -17   0  691.92   18.90
   3 -17  -1   95.70    6.16
   3 -17  -2   91.02    8.38
   3 -17  -3   -2.48    8.74
   3 -17  -4  461.20   12.14
   3 -17  -5    3.89   10.17
   3 -17  -6  242.61   12.88
   3 -18   0   96.65    8.81
   3 -18  -1  639.52   20.72
   3 -18  -2    0.20    8.01
   3 -18  -3  131.73   10.41
   3 -18  -4   36.28   10.12
   3 -18  -5  564.61   20.11
   3 -18  -6   42.45   12.62
   3 -19   0   53.52    8.37
   3 -19  -1    5.49    6.47
   3 -19  -2  185.85    9.64
   3 -19  -3   10.91    8.93
   3 -19  -4  328.86   12.35
   3 -19  -5   10.12    8.60
   3 -20   0    8.27    7.43
   3 -20  -1  116.95   10.35
   3 -20  -2   86.17    9.68
   3 -20  -3  418.75   12.89
   3 -20  -4   46.03   10.18
   3 -20  -5  273.86   13.00
   3 -21   0  724.76   18.39
   3 -21  -1    1.52    9.81
   3 -21  -2   51.87    7.77
   3 -21  -3   15.06    9.98
   3 -21  -4  604.59   16.43
   3 -22   0    2.50   11.81
   3 -22  -1  102.48   12.01
   3 -22  -2  201.44   12.35
   3 -22  -3   28.22   11.81
  -2 -24   1    0.17   13.82
  -2 -24   2   70.24   13.24
  -2 -23   1  417.26   15.37
  -2 -23   2   50.94   12.75
  -2 -23   3    1.84   11.40
  -2 -23   3    3.13   13.04
  -2 -22   1    7.06   10.65
  -2 -22   2  161.85   12.08
  -2 -22   3   19.62   11.58
  -2 -22   3   19.91   11.53
  -2 -22   4  100.95   13.87
  -2 -22   4  104.86   13.59
  -2 -21   1    2.26   11.97
  -2 -21   2   30.90   12.12
  -2 -21   3  799.91   25.63
  -2 -21   3  811.66   21.40
  -2 -21   4   89.52   13.09
  -2 -21   4   86.38   11.19
  -2 -21   5   57.71   14.66
  -2 -21   5   58.23   13.08
  -2 -20   1   87.21   10.77
  -2 -20   2  195.31   10.65
  -2 -20   3  257.08   11.67
  -2 -20   3  245.75   13.29
  -2 -20   4  193.20   12.50
  -2 -20   4  220.94   13.63
  -2 -20   5  150.67   13.48
  -2 -20   5  146.60   14.15
  -2 -19   1  731.75   19.05
  -2 -19   2   16.61    9.79
  -2 -19   3   13.59    8.70
  -2 -19   3   16.18   10.42
  -2 -19   4    0.04   11.13
  -2 -19   4    4.54   11.14
  -2 -19   5  118.69   12.78
  -2 -19   5  118.73   11.61
  -2 -19   6    2.22   14.60
  -2 -19   6    5.19   14.78
  -2 -18   1   42.20    9.59
  -2 -18   2   50.54    9.64
  -2 -18   3   99.22   11.10
  -2 -18   3   92.63   10.14
  -2 -18   4  938.14   27.74
  -2 -18   4  988.83   24.24
  -2 -18   5  150.62   11.73
  -2 -18   5  140.45   12.16
  -2 -18   6   26.61   12.14
  -2 -17   1  270.88   10.37
  -2 -17   2  402.19   13.85
  -2 -17   3  703.05   19.75
  -2 -17   3  708.74   19.84
  -2 -17   4   69.17   10.30
  -2 -17   4   67.01    8.79
  -2 -17   5  255.50   13.49
  -2 -17   5  276.17   13.79
  -2 -17   6   59.76   11.65
  -2 -16   1   12.81    7.35
  -2 -16   2  469.76   15.48
  -2 -16   3   47.84    8.13
  -2 -16   3   41.01    8.43
  -2 -16   4   72.22    9.93
  -2 -16   4   73.56   10.42
  -2 -16   5   89.65   11.08
  -2 -16   6  519.06   16.78
  -2 -16   7   46.57   14.46
  -2 -15   1 1191.32   27.14
  -2 -15   2    5.06    8.51
  -2 -15   3    9.17    8.64
  -2 -15   3    9.50    8.27
  -2 -15   4   35.16    9.18
  -2 -15   4   33.29    8.99
  -2 -15   5  504.10   15.55
  -2 -15   6  145.24   12.35
  -2 -15   7  191.37   14.39
  -2 -14   1   16.64    7.01
  -2 -14   2  121.35    9.38
  -2 -14   3   87.61    9.29
  -2 -14   3   92.80    8.74
  -2 -14   4  809.60   21.24
  -2 -14   4  799.16   20.85
  -2 -14   5   14.31    9.27
  -2 -14   6    4.36   11.09
  -2 -14   7   -1.48   12.43
  -2 -13   1  241.96    9.47
  -2 -13   2 1583.27   42.68
  -2 -13   3   52.55    8.80
  -2 -13   3   52.11    8.73
  -2 -13   4 1136.87   32.10
  -2 -13   5  436.11   13.44
  -2 -13   6   -1.41    9.06
  -2 -13   7   49.92   10.97
  -2 -12   1  570.36   14.83
  -2 -12   2 1010.62   29.24
  -2 -12   3    0.24    7.41
  -2 -12   3    3.16    7.88
  -2 -12   4  109.94    9.48
  -2 -12   5   87.47    9.72
  -2 -12   6  914.95   20.49
  -2 -12   7    0.69   10.96
  -2 -12   8   31.68   13.18
  -2 -11   1  359.32   12.23
  -2 -11   2  213.02   11.14
  -2 -11   3 1517.83   36.29
  -2 -11   3 1543.89   39.29
  -2 -11   4    1.97    8.35
  -2 -11   5  427.96   11.90
  -2 -11   6    3.04    8.41
  -2 -11   7   34.61   10.62
  -2 -11   8  497.76   16.64
  -2 -10   1  234.14    9.62
  -2 -10   2 1104.01   25.63
  -2 -10   3  622.24   17.87
  -2 -10   3  629.70   19.83
  -2 -10   4 2004.18   40.36
  -2 -10   5  239.58   10.68
  -2 -10   6  341.15   12.14
  -2 -10   7   40.03    9.78
  -2 -10   8  198.69   12.24
  -2  -9   1 4532.37   75.39
  -2  -9   2    9.64    8.01
  -2  -9   2    9.93    7.35
  -2  -9   3   83.69    8.36
  -2  -9   4   54.29    8.06
  -2  -9   5 1816.42   39.22
  -2  -9   6   17.17    7.61
  -2  -9   7  413.24   12.39
  -2  -9   8   41.52   11.41
  -2  -8   1  834.25   21.08
  -2  -8   2  725.57   26.06
  -2  -8   2  709.36   23.34
  -2  -8   3 1156.57   30.65
  -2  -8   4  618.56   15.28
  -2  -8   5  367.73   11.26
  -2  -8   6  749.99   18.32
  -2  -8   7   80.97   10.61
  -2  -8   8   85.65   10.82
  -2  -7   1  461.40   15.62
   2   7  -1  475.31   15.70
  -2  -7   3 1604.17   34.95
  -2  -7   4   49.36    7.86
  -2  -7   5   96.41    8.41
  -2  -7   6  390.67   11.32
   2   7  -6  386.84   10.85
   2   7  -7    9.47    8.49
  -2  -7   7    1.85    8.45
  -2  -7   8    4.06    9.67
   2   6  -1    1.51    7.63
  -2  -6   1    3.31    7.31
  -2  -6   3    2.47    8.06
  -2  -6   4  190.02    9.25
   2   6  -5  367.04   11.70
  -2  -6   5  379.64   10.78
  -2  -6   6  183.96    8.34
   2   6  -6  204.53    8.96
  -2  -6   7   -2.45    8.33
   2   6  -7    8.64    8.07
   2   6  -8   57.54    9.76
  -2  -6   8   57.44   11.07
   2   5  -1 1378.19   37.79
  -2  -5   1 1484.86   44.13
  -2  -5   3   25.78    8.12
   2   5  -4  137.21    8.47
  -2  -5   4  139.54    7.82
   2   5  -5  166.82    8.61
  -2  -5   5  159.15    8.10
  -2  -5   6   12.12    6.87
   2   5  -6    6.94    7.14
  -2  -5   7 1705.24   33.41
   2   5  -7 1805.50   43.22
   2   5  -8   69.80    9.70
  -2  -5   8   65.81   10.76
  -2  -5   9   12.17   12.28
   2   5  -9    6.28   10.72
   2   4  -1  267.46   14.86
  -2  -4   3  495.61   14.30
   2   4  -3  512.85   16.11
  -2  -4   4 1599.58   28.51
   2   4  -4 1621.34   33.40
  -2  -4   5  953.98   20.35
   2   4  -5  925.72   19.94
   2   4  -6  113.10    7.89
  -2  -4   6  105.39    8.01
  -2  -4   7  173.62    9.42
   2   4  -7  193.61   11.23
   2   4  -8  315.84   11.97
  -2  -4   8  306.06   11.91
   2   4  -9   -2.37   12.47
  -2  -4   9    0.47   12.19
   2   3  -1  108.32   10.09
   2   3  -2  177.74   15.22
   2   3  -3 7348.82  131.80
  -2  -3   4  428.40   11.39
   2   3  -4  436.58   13.41
  -2  -3   5   39.19    6.92
   2   3  -5   41.48    6.48
   2   3  -6  568.66   14.90
  -2  -3   6  565.62   15.76
   2   3  -7  675.13   18.41
  -2  -3   7  667.44   14.98
  -2  -3   8  168.44   10.08
   2   3  -8  180.90   11.54
  -2  -3   9  385.18   15.19
   2   3  -9  400.17   15.36
   2   2  -1  704.26   24.00
   2   2  -2 4861.41   94.52
   2   2  -3  564.86   13.93
  -2  -2   3  529.97   14.04
   2   2  -4   32.80    6.50
  -2  -2   4   29.99    6.37
   2   2  -5   -2.57    6.19
  -2  -2   5   -3.65    6.16
  -2  -2   6 1398.43   24.96
   2   2  -6 1466.72   30.97
   2   2  -7   17.59    7.35
  -2  -2   7   17.62    7.62
   2   2  -8  264.71   11.56
  -2  -2   8  277.25   13.24
   2   2  -9    7.54   12.81
  -2  -2   9   12.57   11.29
   2   1  -2 2395.39   53.05
   2   1  -3 3579.48   74.49
  -2  -1   3 3472.42   66.12
   2   1  -4  452.12   11.97
  -2  -1   4  431.10   10.64
   2   1  -5  289.69    9.18
  -2  -1   5  286.76    8.71
  -2  -1   6  115.72    8.60
   2   1  -6  102.65    6.00
   2   1  -7  325.43   10.14
  -2  -1   7  316.25   10.55
   2   1  -8  210.02   10.12
  -2  -1   8  217.86   10.81
   2   1  -9   -7.90   11.58
  -2  -1   9    5.78   11.09
   2   0  -2  869.36   18.83
   2   0  -3    1.15    6.18
  -2   0   3    2.57    4.82
   2   0  -4 3286.15   70.93
  -2   0   4 3150.10   56.20
  -2   0   5   -1.79    5.49
   2   0  -5   -0.94    6.40
  -2   0   6    8.29    7.00
   2   0  -6    1.42    7.00
   2   0  -7    3.41    7.58
  -2   0   7    3.06    8.05
   2   0  -8  414.46   11.81
  -2   0   8  419.33   18.99
   2   0  -9    0.24    8.36
  -2   0   9   -0.44   11.63
   2  -1   0   73.41    5.71
   2  -1  -2 2452.68   48.16
  -2   1   3 3507.83   63.77
   2  -1  -3 3687.37   64.21
  -2   1   4  429.54   11.16
   2  -1  -4  450.68   12.03
  -2   1   5  276.12    9.05
   2  -1  -5  275.26    8.56
  -2   1   6  113.15    7.10
   2  -1  -6  108.14    6.30
  -2   1   7  309.16   10.87
   2  -1  -7  355.10   11.35
  -2   1   8  205.20   10.46
   2  -1  -8  209.67   10.21
  -2   1   9   -0.19    9.41
   2  -1  -9   -4.13   11.68
   2  -2  -2 4663.01   89.98
  -2   2   3  524.36   13.87
   2  -2  -3  571.01   13.65
   2  -2  -4   36.28    6.13
  -2   2   4   31.43    5.51
  -2   2   5    0.19    4.23
   2  -2  -5    3.07    4.41
  -2   2   6 1469.37   28.39
   2  -2  -6 1510.00   27.19
  -2   2   7   20.58    7.77
   2  -2  -7   23.93    8.16
  -2   2   8  262.86   11.96
   2  -2  -8  261.98   12.41
  -2   2   9   28.02   11.94
   2  -2  -9    8.54    8.60
   2  -3  -2  175.91    8.73
  -2   3   3 7115.44  130.83
   2  -3  -3 7116.42  103.25
   2  -3  -4  420.61   10.77
  -2   3   4  435.17   11.41
  -2   3   5   38.58    6.04
   2  -3  -5   34.14    6.55
  -2   3   6  576.34   12.91
   2  -3  -6  576.11   12.09
  -2   3   7  710.85   15.59
   2  -3  -7  733.71   21.27
   2  -3  -8  189.36   10.60
  -2   3   8  167.13   10.17
  -2   3   9  357.76   13.88
   2  -3  -9  362.52   13.01
   2  -4  -2 1202.51   24.52
   2  -4  -3  455.14   12.60
  -2   4   3  486.51   11.06
   2  -4  -4 1478.44   29.34
  -2   4   4 1541.46   30.59
   2  -4  -5  898.80   20.18
  -2   4   5  900.75   29.23
  -2   4   6  101.62    6.91
   2  -4  -6  127.29    7.89
  -2   4   7  185.28    8.25
   2  -4  -7  188.88    9.10
  -2   4   8  322.37   13.12
   2  -4  -8  311.09   12.16
  -2   4   9    8.43   10.64
   2  -4  -9    4.43   12.05
   2  -5  -2    4.71    3.80
   2  -5  -3   27.81    6.17
  -2   5   3   28.13    5.22
   2  -5  -4  149.65    7.27
  -2   5   4  136.24    5.62
   2  -5  -5  170.98    7.91
  -2   5   5  172.59    7.58
   2  -5  -6    7.93    6.75
  -2   5   6    7.65    6.84
  -2   5   7 1741.21   29.31
   2  -5  -7 1862.34   41.66
  -2   5   8   65.69    7.44
   2  -5  -8   69.86   10.38
  -2   5   9   11.38   11.18
   2  -5  -9    5.19   12.26
   2  -6  -1   -1.78    5.15
   2  -6  -2  581.32   17.39
   2  -6  -3    1.35    5.71
  -2   6   3    1.15    4.91
  -2   6   4  200.71    7.90
   2  -6  -4  198.99    8.24
   2  -6  -5  379.62    9.77
  -2   6   5  352.00   10.85
   2  -6  -6  205.51    8.82
  -2   6   6  207.03    9.32
   2  -6  -7   12.55    8.55
  -2   6   7   -0.21    8.15
   2  -6  -8   53.25   10.04
  -2   6   8   50.52    7.72
   2  -7  -1  463.97   13.85
   2  -7  -2   -2.75    5.47
   2  -7  -3 1668.38   30.34
  -2   7   3 1646.32   29.31
  -2   7   4   42.51    5.85
   2  -7  -4   46.58    4.84
  -2   7   5   82.58    6.38
   2  -7  -5   83.16    6.91
   2  -7  -6  391.97   10.94
  -2   7   6  358.49   10.46
  -2   7   7    7.82    9.04
   2  -7  -7    7.79    8.98
   2  -7  -8   -0.12   10.77
  -2   7   8   10.05    9.67
   2  -8  -1  924.95   19.38
   2  -8  -2  731.99   21.12
  -2   8   3 1168.40   25.85
   2  -8  -3 1203.19   22.72
  -2   8   4  703.94   18.15
   2  -8  -4  671.81   14.53
  -2   8   5  349.12   10.89
   2  -8  -5  386.55   10.41
   2  -8  -6  772.36   17.80
  -2   8   6  749.96   16.91
   2  -8  -7   81.89    9.10
  -2   8   7   71.62    8.49
  -2   8   8   90.60    9.60
   2  -8  -8   95.75    8.56
   2  -9  -1 4702.01  107.71
   2  -9  -2    9.03    5.43
  -2   9   3   94.80    5.04
   2  -9  -3   89.67    5.50
  -2   9   4   51.35    4.66
   2  -9  -4   60.05    7.12
  -2   9   5 1848.36   38.50
   2  -9  -5 1830.59   32.41
   2  -9  -6   19.12    5.89
  -2   9   6   18.05    7.88
  -2   9   7  400.12   12.52
   2  -9  -7  404.03   11.83
   2  -9  -8   36.04   10.89
  -2   9   8   47.59   10.80
   2 -10  -1  248.75    8.22
   2 -10  -2 1191.72   24.46
   2 -10  -3  695.77   19.44
  -2  10   3  641.44   15.05
  -2  10   4 2003.68   39.38
   2 -10  -4 2075.69   40.97
  -2  10   5  233.13    8.69
   2 -10  -5  224.79    8.57
   2 -10  -6  344.69   10.47
  -2  10   6  372.72   12.89
   2 -10  -7   34.22    8.64
  -2  10   7   36.22    9.89
  -2  10   8  190.20   10.99
   2 -10  -8  212.66    9.48
   2 -11  -1  361.70   12.37
   2 -11  -2  219.51    7.97
   2 -11  -3 1566.85   30.95
  -2  11   3 1480.24   27.24
  -2  11   4    3.03    4.61
   2 -11  -4    3.91    6.72
   2 -11  -5  444.43   11.62
  -2  11   5  475.80   14.13
   2 -11  -6   -5.27    8.27
  -2  11   6    1.81    8.19
   2 -11  -7   29.07    9.78
  -2  11   7   30.17    9.37
   2 -11  -8  461.30   13.45
  -2  11   8  477.16   14.93
   2 -12  -1  653.55   16.38
   2 -12  -2 1104.09   35.22
   2 -12  -3    7.10    6.66
  -2  12   4  115.47    7.03
   2 -12  -4  107.84    7.32
   2 -12  -5   79.04    5.82
  -2  12   5   77.18    7.55
   2 -12  -6  971.04   18.31
  -2  12   6 1015.75   28.33
  -2  12   7    9.10   10.12
   2 -12  -7   10.98   10.37
  -2  12   8   31.48   12.34
   2 -12  -8   27.11   11.21
   2 -13   0  943.10   20.95
   2 -13  -1  270.67    9.30
   2 -13  -2 1516.33   32.57
   2 -13  -3   56.80    7.16
  -2  13   4 1162.56   23.17
   2 -13  -4 1160.77   19.63
   2 -13  -5  468.91   11.63
  -2  13   5  457.34   12.35
   2 -13  -6   -1.48    8.60
  -2  13   6    0.67    9.05
  -2  13   7   56.50   10.59
   2 -13  -7   65.13   10.98
   2 -14   0  195.03    8.42
   2 -14  -1   17.07    4.60
   2 -14  -2  124.80    7.07
   2 -14  -3   97.47    7.49
  -2  14   4  824.41   20.86
   2 -14  -4  838.41   15.64
  -2  14   5   10.71    7.74
   2 -14  -5   14.31    7.99
  -2  14   6   -3.67    8.74
   2 -14  -6    4.78    9.21
   2 -14  -7    6.85   10.38
  -2  14   7   -4.05   11.58
   2 -15   0  124.33    7.31
   2 -15  -1 1407.63   36.67
   2 -15  -2    9.13    6.92
   2 -15  -3    0.37    6.97
  -2  15   4   38.76    6.98
   2 -15  -4   35.16    7.98
  -2  15   5  507.66   13.70
   2 -15  -5  506.37   12.83
  -2  15   6  158.64   10.20
   2 -15  -6  157.09   11.27
   2 -15  -7  182.14   11.97
  -2  15   7  195.11   11.05
   2 -16   0 1562.84   32.88
   2 -16  -1   12.05    5.30
   2 -16  -2  478.87   14.00
   2 -16  -3   54.47    7.63
   2 -16  -4   85.06    8.02
  -2  16   5   96.49    6.90
   2 -16  -5   91.38    9.18
  -2  16   6  528.91   15.94
   2 -16  -6  497.23   13.29
   2 -16  -7   33.66   11.76
  -2  16   7   39.16   11.22
   2 -17   0  113.65    6.67
   2 -17  -1  299.29   11.37
   2 -17  -2  401.26   11.70
   2 -17  -3  730.68   16.10
   2 -17  -4   72.33    6.67
  -2  17   5  266.22    8.85
   2 -17  -5  248.62   10.10
   2 -17  -6   53.99    8.27
  -2  17   6   71.47   10.65
   2 -18   0   17.48    7.06
   2 -18  -1   41.64    7.82
   2 -18  -2   62.33    8.39
   2 -18  -3   98.27    8.47
   2 -18  -4 1030.50   19.00
  -2  18   5  150.87   10.00
   2 -18  -5  137.07    9.73
  -2  18   6   37.39   11.49
   2 -18  -6   29.73   10.92
   2 -19   0   -2.31    8.18
   2 -19  -1  781.31   23.89
   2 -19  -2   12.37    8.65
   2 -19  -3   15.77    8.96
   2 -19  -4   -5.36    9.32
   2 -19  -5  127.17   11.07
  -2  19   6    2.67   10.58
   2 -19  -6    3.37   11.54
   2 -20   0   99.61   10.43
   2 -20  -1   87.13    9.88
   2 -20  -2  211.30   11.60
   2 -20  -3  260.83   11.73
   2 -20  -4  231.51    9.37
   2 -20  -5  147.17   12.03
   2 -21   0   -1.74    6.87
   2 -21  -1    8.06    8.28
   2 -21  -2   41.27   10.20
   2 -21  -3  831.14   20.13
   2 -21  -4  100.28   11.46
   2 -21  -5   59.44    9.91
   2 -22   0  535.85   16.87
   2 -22  -1    1.37   10.32
   2 -22  -2  196.95   11.01
   2 -22  -3   21.58    7.92
   2 -22  -4  113.95   12.50
   2 -23   0   -4.38   10.69
   2 -23  -1  397.19   14.06
   2 -23  -2   53.58    8.31
   2 -23  -3    0.93    8.49
   2 -24   0  126.77   12.89
   2 -24  -1    1.87   12.15
   2 -24  -2   72.87   12.12
  -1 -25   1  278.47   13.65
  -1 -24   1  396.61   14.72
  -1 -24   2    9.39   11.87
  -1 -24   3   97.37   13.28
  -1 -24   3   77.21   11.95
  -1 -23   1   43.12   10.16
  -1 -23   2    3.92   11.05
  -1 -23   3   80.61   12.33
  -1 -23   3   79.47   10.55
  -1 -23   4  115.08   13.31
  -1 -23   4  123.86   14.04
  -1 -22   1  297.44   11.97
  -1 -22   2    2.85   10.26
  -1 -22   3   82.77   10.93
  -1 -22   3   94.12   10.82
  -1 -22   4   29.46   11.74
  -1 -22   4   24.49   11.17
  -1 -21   1   75.90    9.54
  -1 -21   2 1121.78   25.93
  -1 -21   3   46.81    9.57
  -1 -21   3   46.74    9.73
  -1 -21   4   61.85   11.16
  -1 -21   4   57.84   10.73
  -1 -21   5   -0.46   11.85
  -1 -21   5    4.94   11.96
  -1 -20   1  533.27   13.96
  -1 -20   2   35.00    8.48
  -1 -20   3   81.05    9.13
  -1 -20   3   83.01    8.79
  -1 -20   4  131.14   10.45
  -1 -20   4  143.25   10.89
  -1 -20   5  169.11   13.23
  -1 -20   5  152.35   12.12
  -1 -19   1   -2.18    7.60
  -1 -19   2  382.97   12.16
  -1 -19   3   41.06    8.61
  -1 -19   3   45.40    9.44
  -1 -19   4  738.74   17.51
  -1 -19   4  718.28   16.84
  -1 -19   5   61.83    9.95
  -1 -19   6  284.49   14.90
  -1 -18   1 1283.15   45.05
  -1 -18   2   -1.30    7.72
  -1 -18   3  123.06    9.01
  -1 -18   3  131.76    8.48
  -1 -18   4  123.13    9.49
  -1 -18   4  136.34    9.99
  -1 -18   5   16.59    9.66
  -1 -18   6  154.46   13.45
  -1 -17   1   54.83    7.85
  -1 -17   2 1388.82   38.05
  -1 -17   3  200.42    9.18
  -1 -17   3  197.63    9.17
  -1 -17   4   72.01    9.68
  -1 -17   5  115.28    9.94
  -1 -17   6  205.36   11.55
  -1 -16   1  295.47   10.34
  -1 -16   2   46.24    7.34
  -1 -16   3    9.88    7.83
  -1 -16   3    7.45    7.06
  -1 -16   4    5.10    8.23
  -1 -16   5  977.62   21.37
  -1 -16   6  116.69   11.26
  -1 -16   7    0.19   13.21
  -1 -15   1  112.69    7.50
  -1 -15   2    2.29    6.53
  -1 -15   3  188.53    9.89
  -1 -15   3  200.89    9.49
  -1 -15   4  327.55   11.50
  -1 -15   5    0.10    8.16
  -1 -15   6  173.60   10.64
  -1 -15   7    8.38   11.01
  -1 -14   1 1415.13   30.14
  -1 -14   2  289.23   10.02
  -1 -14   3  928.82   22.47
  -1 -14   4   10.04    6.94
  -1 -14   5   60.40    7.68
  -1 -14   6   19.32    9.10
  -1 -14   7  732.04   18.13
  -1 -13   1  596.51   20.67
  -1 -13   2  136.30    7.97
  -1 -13   3  631.37   17.88
  -1 -13   4  226.03    9.28
  -1 -13   5  213.87   10.36
  -1 -13   6  175.95   10.70
  -1 -13   7    3.31   10.26
  -1 -12   1   43.61    6.47
  -1 -12   2   18.40    6.48
  -1 -12   3 1031.97   24.27
  -1 -12   4  123.31    7.57
  -1 -12   5 1278.54   34.19
  -1 -12   6   59.15    8.64
  -1 -12   7   25.23   10.49
  -1 -11   1  250.71   10.03
  -1 -11   2 1831.20   60.34
  -1 -11   3  620.39   17.90
  -1 -11   4  209.80    8.68
  -1 -11   5  653.29   18.18
  -1 -11   6  470.09   12.70
  -1 -11   7    5.30    9.38
  -1 -11   8  262.43   13.52
  -1 -10   1 1238.57   28.96
  -1 -10   3 1723.72   49.34
  -1 -10   4  430.87   11.43
  -1 -10   5   19.11    7.07
  -1 -10   6  155.52    8.66
  -1 -10   7  114.04    9.87
  -1 -10   8   38.27   11.27
  -1  -9   1   16.21    5.30
  -1  -9   3  163.04    7.91
  -1  -9   4 4568.42  115.88
  -1  -9   5   46.30    7.16
  -1  -9   6   16.70    7.47
  -1  -9   7  239.88   11.11
  -1  -9   8   74.06   11.56
  -1  -8   1  367.57   11.42
  -1  -8   3  622.29   15.49
  -1  -8   4  865.55   18.72
  -1  -8   5  548.86   17.88
  -1  -8   6    9.32    7.37
  -1  -8   7   18.80    8.61
  -1  -8   8    8.68   10.94
  -1  -7   1 1123.67   30.22
  -1  -7   2 1282.61   29.45
  -1  -7   3  470.82   14.90
  -1  -7   4  537.43   12.87
  -1  -7   5   20.66    4.85
  -1  -7   6  243.15    9.46
   1   7  -6  243.73   10.58
  -1  -7   7   91.70    9.01
  -1  -7   8  945.90   19.44
  -1  -6   1  465.43   13.96
  -1  -6   2  995.69   30.21
  -1  -6   3  833.83   18.03
  -1  -6   4  825.94   18.02
   1   6  -4  831.54   21.27
   1   6  -5  970.26   20.47
  -1  -6   5  992.60   21.51
  -1  -6   6  793.19   16.90
   1   6  -6  788.89   19.83
   1   6  -7  783.34   17.74
  -1  -6   7  766.15   15.29
   1   6  -8  131.54   10.44
  -1  -6   8  142.22   11.10
  -1  -5   1 1635.16   39.74
  -1  -5   2  362.13   12.11
   1   5  -3  197.43    8.54
  -1  -5   3  189.02    7.86
  -1  -5   4 2032.87   35.65
   1   5  -4 2040.34   42.63
  -1  -5   5  398.57   10.67
   1   5  -5  395.88   12.03
  -1  -5   6   58.01    7.44
   1   5  -6   49.94    7.60
  -1  -5   7    0.85    8.00
   1   5  -7    1.82    7.96
   1   5  -8   32.80    9.04
  -1  -5   8   27.53   10.55
  -1  -4   1 2683.57   64.25
  -1  -4   2  630.33   17.18
  -1  -4   3 3464.15   76.96
   1   4  -3 3531.26   94.85
  -1  -4   4   48.49    6.15
   1   4  -4   44.51    6.29
   1   4  -5   89.31    7.33
  -1  -4   5   88.83    6.97
   1   4  -6  432.97    9.85
  -1  -4   6  432.86   10.12
  -1  -4   7 1450.91   24.41
   1   4  -7 1527.32   34.83
   1   4  -8   53.84    9.23
  -1  -4   8   53.77   10.68
  -1  -3   1   24.55   10.81
  -1  -3   1   23.75   10.78
   1   3  -2 3262.72   72.21
  -1  -3   2 3131.27   52.45
  -1  -3   3   21.16    5.63
   1   3  -3   19.18    5.33
  -1  -3   4    9.91    5.82
   1   3  -4   -1.29    5.71
   1   3  -5   13.00    6.29
  -1  -3   5   10.13    5.66
  -1  -3   6  458.01   11.21
   1   3  -6  456.25   11.69
   1   3  -7   64.79    8.75
  -1  -3   7   57.42    8.45
  -1  -3   8  214.96   10.96
   1   3  -8  245.05   11.02
  -1  -3   9  194.06   12.42
   1   3  -9  187.73   13.08
  -1  -2   1   17.26   10.56
   1   2  -1   18.77   10.91
  -1  -2   2  115.84    8.10
   1   2  -2  120.17    7.40
  -1  -2   3  939.44   21.18
   1   2  -3  967.43   20.03
  -1  -2   4  557.39   11.86
   1   2  -4  560.70   12.41
  -1  -2   5 1412.62   29.39
   1   2  -5 1409.54   37.31
   1   2  -6    3.12    4.93
  -1  -2   6   12.15    7.62
   1   2  -7   17.24    7.50
  -1  -2   7   19.23    8.23
  -1  -2   8   52.72    9.43
   1   2  -8   61.30   10.33
  -1  -2   9   86.58   11.97
   1   2  -9   85.44    9.44
   1   1  -1   27.27    8.01
  -1  -1   1   24.96    6.80
   1   1  -2 3488.86   68.84
  -1  -1   2 3385.98   63.25
  -1  -1   3 2869.98   62.43
   1   1  -3 2933.03   50.03
   1   1  -4 2199.19   51.68
  -1  -1   4 2220.40   34.91
   1   1  -5  429.72   11.27
  -1  -1   5  432.48    9.62
   1   1  -6  725.49   20.40
  -1  -1   6  723.41   15.28
   1   1  -7    4.08    8.01
  -1  -1   7    0.80    5.91
  -1  -1   8  184.96   10.21
   1   1  -8  197.76   11.06
   1   1  -9  118.45   12.47
  -1  -1   9  114.30   12.80
   1   0  -1 4552.72   93.20
  -1   0   1 4530.21  101.06
   1   0  -2   10.08    3.72
  -1   0   2    1.96    4.97
   1   0  -3 3440.03   55.64
  -1   0   3 3283.85   59.17
  -1   0   4   -0.15    4.09
   1   0  -4   -2.55    5.71
   1   0  -5   63.38    6.51
  -1   0   5   55.77    6.46
   1   0  -6    1.20    6.58
  -1   0   6   -2.04    5.01
   1   0  -7  362.51   11.28
  -1   0   7  386.72   11.38
  -1   0   8    3.66    6.99
   1   0  -8    3.75    9.34
  -1   0   9   62.55   11.56
   1   0  -9   77.82   11.76
  -1   1   1   26.13    5.30
   1  -1  -1   24.08    5.22
   1  -1  -2 3458.13   63.25
  -1   1   2 3408.05   64.03
   1  -1  -3 2721.71   49.10
  -1   1   3 2734.30   55.90
   1  -1  -4 2228.38   38.11
  -1   1   4 2214.82   35.70
   1  -1  -5  473.57   12.52
  -1   1   5  463.43    9.91
   1  -1  -6  756.25   20.40
  -1   1   6  737.42   15.18
   1  -1  -7    3.51    7.88
  -1   1   7   -3.88    8.38
   1  -1  -8  169.74    9.81
  -1   1   8  186.14    8.12
  -1   1   9  114.14   11.65
   1  -1  -9  116.29   11.77
  -1   2   1   17.56    3.47
   1  -2  -1   16.92    5.13
  -1   2   2  107.26    6.26
   1  -2  -2  113.06    6.67
   1  -2  -3  975.07   19.81
  -1   2   3  948.43   17.09
   1  -2  -4  532.45   12.33
  -1   2   4  521.70   13.18
   1  -2  -5 1444.43   27.89
  -1   2   5 1377.67   24.47
   1  -2  -6    3.38    4.94
  -1   2   6    3.77    6.85
  -1   2   7   14.53    5.83
   1  -2  -7   12.33    8.19
  -1   2   8   56.05    9.87
   1  -2  -8   50.34    9.63
  -1   2   9   88.12   12.74
   1  -2  -9   82.50   12.55
  -1   3   1   24.20    4.81
   1  -3  -1   25.60    5.50
  -1   3   2 3283.15   61.80
   1  -3  -2 3256.43   51.57
  -1   3   3   19.32    3.83
   1  -3  -3   22.73    5.93
   1  -3  -4    1.29    4.10
  -1   3   4    6.80    5.49
   1  -3  -5   15.69    6.35
  -1   3   5   16.95    6.19
   1  -3  -6  459.64   11.47
  -1   3   6  463.31   11.52
  -1   3   7   59.69    9.07
   1  -3  -7   57.84    6.51
   1  -3  -8  257.25   11.31
  -1   3   8  259.50   10.78
  -1   3   9  208.81   15.58
   1  -3  -9  206.82   13.23
  -1   4   1 2652.29   83.14
   1  -4  -1 2664.55   47.61
   1  -4  -2  574.67   14.18
  -1   4   2  545.27   13.18
  -1   4   3 3366.67   58.05
   1  -4  -3 3409.01   64.55
   1  -4  -4   45.21    6.29
  -1   4   4   43.10    5.28
   1  -4  -5   90.18    6.69
  -1   4   5   87.46    6.56
  -1   4   6  432.64    9.21
   1  -4  -6  445.57   11.76
  -1   4   7 1543.22   25.33
   1  -4  -7 1541.00   32.19
  -1   4   8   49.56   10.15
   1  -4  -8   45.03    9.11
   1  -5  -1 1700.09   31.57
   1  -5  -2  384.37   10.46
  -1   5   2  372.39   10.06
  -1   5   3  185.50    6.02
   1  -5  -3  198.44    7.60
   1  -5  -4 2062.39   37.03
  -1   5   4 2047.74   45.78
   1  -5  -5  412.41   10.56
  -1   5   5  401.01    9.40
   1  -5  -6   42.81    7.13
  -1   5   6   43.34    6.34
   1  -5  -7   -1.47    8.92
  -1   5   7    4.29    5.61
  -1   5   8   27.47    9.57
   1  -5  -8   35.76    9.52
   1  -6  -1  501.44   14.72
  -1   6   2  967.77   20.22
   1  -6  -2  985.63   19.48
   1  -6  -3  876.59   21.49
  -1   6   3  894.41   18.67
  -1   6   4  820.27   21.68
   1  -6  -4  861.27   15.58
   1  -6  -5 1008.66   21.45
  -1   6   5 1002.47   23.52
  -1   6   6  790.86   18.24
   1  -6  -6  782.85   14.74
  -1   6   7  757.25   18.14
   1  -6  -7  770.76   22.29
  -1   6   8  140.77   10.88
   1  -6  -8  145.57   11.23
   1  -7  -1 1103.68   28.18
   1  -7  -2 1272.96   25.52
  -1   7   2 1259.84   22.32
   1  -7  -3  511.50   11.45
  -1   7   3  501.68   11.51
  -1   7   4  515.87   11.31
   1  -7  -4  515.37   11.41
  -1   7   5   20.10    6.51
   1  -7  -5   26.33    6.58
  -1   7   6  250.61    7.80
   1  -7  -6  252.91    9.48
  -1   7   7   84.59    8.49
   1  -7  -7   92.06    9.35
  -1   7   8  988.83   20.98
   1  -7  -8 1002.99   23.19
   1  -8  -1  374.27   12.00
   1  -8  -2 1093.65   19.99
  -1   8   2 1094.47   23.11
  -1   8   3  612.61   12.81
   1  -8  -3  611.45   13.55
  -1   8   4  860.73   23.72
   1  -8  -4  894.42   17.44
   1  -8  -5  554.20   13.52
  -1   8   5  547.07   11.83
  -1   8   6   10.42    7.44
   1  -8  -6    6.51    7.74
  -1   8   7   24.12    6.78
   1  -8  -7   25.21    9.34
  -1   8   8    9.75   11.15
   1  -8  -8   11.98    7.91
   1  -9  -1   14.36    4.11
   1  -9  -2  334.81    9.13
  -1   9   2  358.59    9.90
  -1   9   3  161.41    5.92
   1  -9  -3  172.42    7.40
  -1   9   4 4325.39   93.66
   1  -9  -4 4579.01   78.00
   1  -9  -5   53.06    5.46
  -1   9   5   38.94    6.03
   1  -9  -6   18.07    5.54
  -1   9   6   17.10    5.34
   1  -9  -7  240.59    9.10
  -1   9   7  254.84   10.45
  -1   9   8   79.17   11.33
   1  -9  -8   76.08   11.95
   1 -10   0  257.38    8.49
   1 -10  -1 1151.20   31.29
   1 -10  -2  157.36    7.01
  -1  10   2  160.46    6.95
  -1  10   3 1796.21   34.29
   1 -10  -3 1794.04   27.86
  -1  10   4  448.93   15.01
   1 -10  -4  437.38   11.08
   1 -10  -5   22.87    7.19
  -1  10   5   23.32    4.71
   1 -10  -6  142.77    8.84
  -1  10   6  133.82    8.74
   1 -10  -7  115.16   10.05
  -1  10   7  122.12   10.43
   1 -10  -8   40.05   10.93
  -1  10   8   38.26   10.69
   1 -11   0 1616.03   31.68
   1 -11  -1  268.86    9.11
   1 -11  -2 1925.46   33.49
  -1  11   2 1976.32   32.34
   1 -11  -3  636.82   12.57
  -1  11   3  597.83   11.70
  -1  11   4  205.83    8.69
   1 -11  -4  202.70    8.11
   1 -11  -5  662.09   13.73
  -1  11   5  655.15   14.94
   1 -11  -6  448.62   12.01
  -1  11   6  439.03   10.90
   1 -11  -7    5.68   10.01
  -1  11   7    1.57    9.16
  -1  11   8  282.43   12.81
   1 -11  -8  240.10   10.49
   1 -12   0  624.73   16.50
   1 -12  -1   45.11    6.20
   1 -12  -2   18.33    6.06
  -1  12   2   18.01    5.60
   1 -12  -3  967.58   16.65
  -1  12   3  964.35   27.80
  -1  12   4  117.98    6.93
   1 -12  -4  129.79    7.70
  -1  12   5 1282.43   23.80
   1 -12  -5 1326.38   21.91
   1 -12  -6   58.59    8.03
  -1  12   6   65.55    8.49
  -1  12   7   29.51    7.31
   1 -12  -7   27.49   10.26
   1 -12  -8    3.98    9.64
  -1  12   8    8.08   10.90
   1 -13   0  417.35   12.69
   1 -13  -1  570.16   17.18
   1 -13  -2  143.69    7.07
  -1  13   3  648.09   15.78
   1 -13  -3  636.19   12.73
   1 -13  -4  247.36    8.96
  -1  13   4  237.60    9.63
  -1  13   5  219.19    9.31
   1 -13  -5  236.70   10.31
   1 -13  -6  178.39    9.27
  -1  13   6  200.14   11.15
   1 -13  -7    3.57   10.82
  -1  13   7    6.81    8.70
   1 -14   0   -4.90    6.17
   1 -14  -1 1475.34   29.96
   1 -14  -2  285.27    8.64
   1 -14  -3  918.01   16.64
  -1  14   3  954.13   21.43
   1 -14  -4   17.97    6.77
  -1  14   4   12.05    4.79
  -1  14   5   69.22    7.91
   1 -14  -5   69.46    8.62
   1 -14  -6   17.18    9.28
  -1  14   6   20.54    6.52
   1 -14  -7  773.51   21.93
  -1  14   7  749.38   17.78
   1 -15   0  481.23   16.23
   1 -15  -1  119.94    6.78
   1 -15  -2   11.03    6.58
   1 -15  -3  193.64    8.35
  -1  15   3  211.32    8.37
  -1  15   4  342.78   10.45
   1 -15  -4  345.32    9.97
  -1  15   5    0.41    6.10
   1 -15  -5    0.39    8.32
  -1  15   6  173.69    9.78
   1 -15  -6  179.56   10.18
  -1  15   7    4.57   11.43
   1 -15  -7    2.73   11.19
   1 -16   0  138.25    7.13
   1 -16  -1  256.60    8.66
   1 -16  -2   47.14    6.73
   1 -16  -3   11.20    6.87
  -1  16   3   14.05    6.69
  -1  16   4    7.83    7.59
   1 -16  -4    4.35    7.87
  -1  16   5 1020.12   22.08
   1 -16  -5  993.73   18.74
   1 -16  -6  118.60    9.65
  -1  16   6  119.75   10.32
  -1  16   7   -1.40   11.52
   1 -16  -7   -1.92   12.01
   1 -17   0  188.83    7.99
   1 -17  -1   62.58    7.48
   1 -17  -2 1461.06   38.42
   1 -17  -3  208.44    7.32
  -1  17   4   78.15    7.51
   1 -17  -4   68.96    8.73
  -1  17   5  117.03    9.29
   1 -17  -5  106.94    9.38
   1 -17  -6  192.05    9.21
  -1  17   6  208.43   11.04
   1 -18   0  415.25   14.19
   1 -18  -1 1350.35   30.78
   1 -18  -2    3.16    7.61
   1 -18  -3  131.22    8.86
   1 -18  -4  128.15    9.53
  -1  18   4  139.16    8.83
  -1  18   5   30.54    9.82
   1 -18  -5   14.70    9.56
   1 -18  -6  178.86   12.99
  -1  18   6  163.16   10.88
   1 -19   0  196.02    9.70
   1 -19  -1    3.37    5.97
   1 -19  -2  393.03   11.66
   1 -19  -3   44.40    8.54
   1 -19  -4  720.06   16.22
  -1  19   4  734.87   15.22
  -1  19   5   71.47    9.27
   1 -19  -5   61.19   10.71
   1 -19  -6  298.59   14.73
  -1  19   6  287.32   13.27
   1 -20   0  366.11   12.67
   1 -20  -1  528.81   17.45
   1 -20  -2   48.10    9.06
   1 -20  -3   86.85    9.99
   1 -20  -4  132.01    8.19
   1 -20  -5  151.05   11.84
  -1  20   5  163.98    9.13
   1 -21   0   19.53    8.72
   1 -21  -1   85.12    8.98
   1 -21  -2 1180.24   29.79
   1 -21  -3   40.25    7.54
   1 -21  -4   56.61   10.74
  -1  21   5    2.38    8.58
   1 -21  -5    5.35   12.62
   1 -22   0  183.33   10.18
   1 -22  -1  292.97   11.09
   1 -22  -2    2.80    9.41
   1 -22  -3  105.94   11.42
   1 -22  -4   26.09    9.28
   1 -23   0  217.84   11.55
   1 -23  -1   33.78    9.96
   1 -23  -2   -1.84   10.46
   1 -23  -3   83.69   12.57
   1 -23  -4  133.26   13.91
   1 -24   0   74.24   11.05
   1 -24  -1  393.38   14.25
   1 -24  -2    3.99   11.54
   1 -24  -3   83.89   11.71
   1 -25   0   80.40   12.97
   1 -25  -1  279.00   11.24
   0 -25   1  104.39   13.52
   0 -24   1   49.53   10.82
   0 -24   2    6.32   11.79
   0 -23   1   52.66    7.51
   0 -23   2   77.46   10.46
   0 -23   3  417.45   13.55
   0 -23   3  476.71   16.74
   0 -22   1  414.74   13.33
   0 -22   2   68.38    9.19
   0 -22   3  143.27   11.05
   0 -22   3  140.58   11.44
   0 -22   4   66.68   10.62
   0 -22   4   66.87   11.63
   0 -21   1  473.78   18.42
   0 -21   2    4.26    9.88
   0 -21   3    7.22    9.86
   0 -21   3   12.04    9.08
   0 -21   4    7.41   10.65
   0 -21   4   -0.28    9.99
   0 -20   1  324.37   12.90
   0 -20   2  887.28   22.53
   0 -20   3    4.09    9.13
   0 -20   3    1.18    8.42
   0 -20   4  131.59   10.93
   0 -20   5    2.09   10.87
   0 -19   1  279.80   11.03
   0 -19   2    2.60    5.84
   0 -19   3  555.34   14.21
   0 -19   3  553.66   15.98
   0 -19   4    7.08    9.41
   0 -19   5    4.79   10.04
   0 -18   1   55.93    7.59
   0 -18   2  545.89   14.39
   0 -18   3  199.50    9.22
   0 -18   4  172.87   10.08
   0 -18   5  152.76   11.00
   0 -18   6  261.88   14.65
   0 -17   1  525.03   16.21
   0 -17   2    5.48    5.17
   0 -17   3   24.70    7.72
   0 -17   4  269.73   12.26
   0 -17   5  349.37   12.63
   0 -17   6  149.32   11.38
   0 -16   1  619.14   16.27
   0 -16   2  685.33   18.42
   0 -16   3  408.09   13.21
   0 -16   4  472.77   13.06
   0 -16   5   41.53    7.29
   0 -16   6    6.26    9.84
   0 -15   1  290.82   10.11
   0 -15   3  846.70   23.63
   0 -15   4  349.37   14.96
   0 -15   5  249.14    9.18
   0 -15   6   -6.05   10.17
   0 -15   7  157.44   13.69
   0 -14   1  256.88    8.64
   0 -14   3   19.27    7.03
   0 -14   4   33.00    7.01
   0 -14   5   13.73    7.60
   0 -14   6 1097.81   29.30
   0 -14   7    1.81   11.87
   0 -13   1 1129.55   28.09
   0 -13   3 1710.67   39.08
   0 -13   4  295.75   10.55
   0 -13   5  256.28   10.07
   0 -13   6  100.27    7.45
   0 -13   7  495.17   19.25
   0 -12   1  109.01    6.64
   0 -12   3   -0.07    5.81
   0 -12   4  227.00    9.29
   0 -12   5  216.05    9.00
   0 -12   6  149.94   10.02
   0 -12   7   82.77   10.36
   0 -11   1  635.79   22.30
   0 -11   3  479.86   13.21
   0 -11   4   53.25    6.74
   0 -11   5  229.31    9.53
   0 -11   6  107.01    9.01
   0 -11   7   91.94    8.18
   0 -10   3  202.67   10.38
   0 -10   4   44.26    6.56
   0 -10   5    7.55    7.01
   0 -10   6  759.00   22.69
   0 -10   7    2.19   10.09
   0 -10   8    4.02   11.00
   0  -9   3  940.34   27.66
   0  -9   4  323.99    9.37
   0  -9   5  147.35    8.29
   0  -9   6   69.10    8.21
   0  -9   7  170.65    8.69
   0  -9   8   40.72   11.30
   0  -8   3  125.71    7.28
   0  -8   4 1231.75   24.05
   0  -8   5  394.31   11.56
   0  -8   6   37.36    6.04
   0  -8   7  237.55   11.20
   0  -8   8  344.60   13.96
   0  -7   2   60.88    5.71
   0  -7   3   37.98    5.42
   0  -7   4    6.55    5.69
   0  -7   5 2094.50   43.84
   0  -7   6   32.49    7.37
   0  -7   7  171.75   10.20
   0  -7   8   94.55   11.36
   0  -6   2 1144.76   26.38
   0  -6   3   39.13    5.41
   0  -6   4 1768.49   44.85
   0  -6   5  943.43   18.41
   0   6  -5  920.70   16.95
   0   6  -6  121.11    8.01
   0  -6   6  107.02    8.30
   0   6  -7  179.54   10.58
   0  -6   7  174.12    9.77
   0  -6   8  329.94   13.58
   0  -5   2  203.20    8.01
   0   5  -3 3635.69   58.71
   0  -5   3 3515.99   61.16
   0   5  -4  211.64    7.58
   0  -5   4  229.56    8.13
   0   5  -5  463.24   12.92
   0  -5   5  461.69   11.34
   0  -5   6  186.47    8.92
   0   5  -6  180.04    8.27
   0  -5   7  582.02   14.10
   0   5  -7  589.68   14.65
   0  -5   8   -6.85   11.44
   0   5  -8    6.09   10.97
   0  -4   2  508.04   13.77
   0  -4   3  214.77    8.61
   0   4  -3  229.87    8.30
   0  -4   4  360.75   11.97
   0   4  -4  376.27   15.56
   0   4  -5   86.96    7.63
   0  -4   5   84.52    6.67
   0  -4   6  538.85   13.49
   0   4  -6  552.74   14.07
   0  -4   7   91.54    8.84
   0   4  -7   97.12    9.16
   0  -4   8   59.02    8.17
   0   4  -8   58.40    7.78
   0  -3   1 1759.61   34.88
   0  -3   2   51.72    4.06
   0   3  -2   55.71    5.45
   0  -3   3  109.20    6.43
   0   3  -3  106.95    5.20
   0  -3   4   59.52    6.00
   0   3  -4   63.32    5.50
   0  -3   5 1801.39   35.07
   0   3  -5 1898.93   31.79
   0   3  -6   10.33    7.21
   0  -3   6   10.38    7.45
   0  -3   7  109.98    9.08
   0   3  -7  108.81    9.10
   0   3  -8   19.98   10.61
   0  -3   8   25.06   10.56
   0  -2   1 4803.29   83.41
   0   2  -1 4677.27   92.35
   0   2  -2  528.67   14.15
   0  -2   2  554.77   16.39
   0  -2   3  256.39    8.42
   0   2  -3  240.19    8.19
   0  -2   4 3232.97   51.36
   0   2  -4 3217.67   58.45
   0  -2   5   24.40    6.26
   0   2  -5   23.01    6.44
   0   2  -6   33.43    5.45
   0  -2   6   30.16    5.40
   0  -2   7  121.95    9.18
   0   2  -7  116.21    8.82
   0   2  -8  503.02   21.25
   0  -2   8  512.71   14.23
   0   1  -1 2500.76   56.47
   0  -1   1 2480.59   45.14
   0  -1   2  196.06    6.74
   0   1  -2  192.62    6.67
   0  -1   3 1023.20   18.22
   0   1  -3 1070.17   20.56
   0  -1   4 1048.53   20.22
   0   1  -4 1098.91   24.32
   0  -1   5  273.64    8.52
   0   1  -5  276.86    9.11
   0  -1   6  198.25    8.81
   0   1  -6  185.29    8.29
   0   1  -7   15.26    6.20
   0  -1   7    5.60    9.04
   0   1  -8   36.22   10.18
   0  -1   8   35.57   10.94
   0   0   1   -1.00    3.01
   0   0  -1    0.96    4.95
   0   0   2  184.92    7.50
   0   0  -2  188.65    6.92
   0   0   3    0.89    3.69
   0   0  -3   -4.18    5.58
   0   0   4 2831.46   49.32
   0   0  -4 2916.24   46.68
   0   0   5   -2.94    5.91
   0   0  -5    3.50    5.71
   0   0   6  740.41   14.47
   0   0  -6  756.19   17.89
   0   0  -7    6.31    8.15
   0   0   7   -0.04    7.98
   0   0   8  108.45   10.48
   0   0  -8  128.41    9.33
   0   1   1 2366.64   50.83
   0  -1  -1 2436.65   47.55
   0   1   2  201.93    7.97
   0  -1  -2  188.25    7.51
   0   1   3 1047.29   22.48
   0  -1  -3 1078.82   21.04
   0   1   4 1144.56   20.44
   0  -1  -4 1179.76   22.82
   0   1   5  277.64    7.32
   0  -1  -5  304.05    8.81
   0  -1  -6  183.32    8.49
   0   1   6  198.29    6.82
   0  -1  -7   16.22    8.51
   0   1   7   15.97    8.34
   0   1   8   44.81   10.54
   0  -1  -8   45.50   10.05
   0  -2   0 2070.70   47.59
   0   2   1 4539.66  102.87
   0  -2  -1 4644.67   81.38
   0  -2  -2  512.82   12.05
   0   2   2  529.98   12.14
   0   2   3  254.91    7.06
   0  -2  -3  256.93    8.40
   0  -2  -4 3599.98   61.49
   0   2   4 3425.07   51.22
   0  -2  -5   27.46    6.51
   0   2   5   19.79    6.37
   0  -2  -6   30.91    5.23
   0   2   6   31.28    7.46
   0  -2  -7  127.60    9.56
   0   2   7  110.17    9.22
   0   2   8  516.69   14.38
   0  -2  -8  523.06   14.70
   0  -3   0    5.08    4.50
   0   3   1 1703.50   30.19
   0  -3  -1 1687.00   31.96
   0  -3  -2   57.22    5.91
   0   3   2   55.43    4.27
   0  -3  -3  117.55    6.78
   0   3   3  113.84    5.27
   0  -3  -4   58.89    6.42
   0   3   4   64.66    6.20
   0   3   5 1867.80   33.22
   0  -3  -5 1861.10   37.89
   0  -3  -6    9.94    6.80
   0   3   6   10.15    7.47
   0  -3  -7  102.45    6.98
   0   3   7  119.23    8.45
   0   3   8   26.93   10.72
   0  -3  -8   28.44   10.52
   0  -4   0 1430.10   29.96
   0   4   1 1646.34   29.80
   0  -4  -1 1590.87   27.54
   0  -4  -2  531.81   11.84
   0   4   2  514.89   12.21
   0  -4  -3  217.49    8.22
   0   4   3  213.83    6.53
   0  -4  -4  375.99   10.23
   0   4   4  374.42    9.93
   0  -4  -5   85.19    7.17
   0   4   5   86.70    5.48
   0  -4  -6  582.47   16.76
   0   4   6  545.11   12.29
   0  -4  -7   86.24    8.35
   0   4   7   86.03    8.26
   0   4   8   57.87   10.92
   0  -4  -8   65.91   11.35
   0  -5   0   -0.31    4.70
   0  -5  -1 2148.59   35.80
   0   5   1 2180.64   44.66
   0   5   2  188.04    7.27
   0  -5  -2  191.80    6.62
   0  -5  -3 3517.76   60.74
   0   5   3 3498.73   62.30
   0  -5  -4  218.38    6.44
   0   5   4  211.09    7.45
   0  -5  -5  502.05   11.60
   0   5   5  460.26    9.95
   0  -5  -6  190.72    8.62
   0   5   6  183.02    7.09
   0   5   7  572.71   13.39
   0  -5  -7  578.28   15.75
   0  -5  -8    2.75   10.85
   0   5   8   -4.51   10.73
   0  -6   0  110.45    5.48
   0  -6  -1  282.27    9.73
   0   6   1  294.09    8.22
   0   6   2 1127.10   22.04
   0  -6  -2 1118.56   22.74
   0  -6  -3   41.18    6.39
   0   6   3   38.39    5.72
   0  -6  -4 1793.80   41.85
   0   6   4 1789.60   49.70
   0  -6  -5  892.30   16.71
   0   6   5  906.82   18.21
   0  -6  -6  122.99    8.02
   0   6   6  127.02    8.91
   0   6   7  170.74    7.61
   0  -6  -7  175.70    9.22
   0   6   8  351.68   10.73
   0  -6  -8  314.68   12.22
   0  -7   0    3.26    4.79
   0   7   1 3533.45   89.38
   0  -7  -1 3504.45   61.19
   0   7   2   65.07    4.39
   0  -7  -2   65.33    6.17
   0  -7  -3   46.06    6.12
   0   7   3   32.99    5.47
   0  -7  -4   11.86    6.07
   0   7   4    8.09    4.31
   0  -7  -5 2059.79   34.49
   0   7   5 2115.94   31.90
   0  -7  -6   36.20    7.37
   0   7   6   29.10    7.73
   0   7   7  184.48    9.80
   0  -7  -7  179.74    7.95
   0   7   8   94.24    8.49
   0  -7  -8  115.37   11.15
   0  -8   0 2239.36   41.13
   0  -8  -1 2442.09   46.74
   0   8   1 2426.87   40.95
   0  -8  -2 2495.71   50.89
   0   8   2 2502.00   46.83
   0   8   3  128.79    6.42
   0  -8  -3  141.49    7.32
   0  -8  -4 1264.92   23.50
   0   8   4 1199.58   25.77
   0  -8  -5  379.13    8.76
   0   8   5  369.05   10.92
   0   8   6   31.03    6.91
   0  -8  -6   33.01    8.20
   0   8   7  220.41    9.23
   0  -8  -7  225.29   10.23
   0   8   8  324.67   12.83
   0  -8  -8  313.87   12.91
   0  -9   0   -0.91    4.09
   0  -9  -1  127.46    6.64
   0   9   1  137.51    6.61
   0   9   2  262.41    7.89
   0  -9  -2  276.52    8.38
   0  -9  -3  923.83   18.43
   0   9   3  929.48   17.25
   0  -9  -4  343.24   10.22
   0   9   4  332.01    9.17
   0   9   5  151.52    8.07
   0  -9  -5  135.05    6.17
   0   9   6   64.75    7.89
   0  -9  -6   74.68    8.34
   0   9   7  175.24   10.09
   0  -9  -7  176.42   10.03
   0   9   8   42.57   12.23
   0  -9  -8   47.36   12.26
   0 -10   0 3871.67  105.41
   0 -10  -1 1963.97   33.42
   0  10   1 1903.75   33.75
   0  10   2 1217.21   26.19
   0 -10  -2 1219.14   34.76
   0 -10  -3  207.32    8.01
   0  10   3  235.82    8.15
   0  10   4   46.82    4.85
   0 -10  -4   44.35    6.28
   0  10   5   13.82    7.10
   0 -10  -5   12.74    7.21
   0  10   6  805.69   16.99
   0 -10  -6  771.20   19.11
   0  10   7    3.57    9.56
   0 -10  -7   10.75   10.01
   0  10   8    4.77   12.29
   0 -10  -8    2.16    9.48
   0 -11   0   -0.97    5.39
   0 -11  -1  615.23   12.50
   0  11   1  674.25   13.06
   0  11   2   46.17    4.31
   0 -11  -2   40.66    6.16
   0  11   3  472.10   10.88
   0 -11  -3  457.75   11.38
   0 -11  -4   61.49    6.90
   0  11   4   44.48    4.70
   0  11   5  248.14    8.74
   0 -11  -5  229.08    7.69
   0  11   6  101.38    6.40
   0 -11  -6   96.64    6.61
   0  11   7   90.62    7.41
   0 -11  -7   92.46    7.91
   0 -12   0  222.86    7.51
   0 -12  -1  100.90    6.54
   0  12   1  102.01    6.30
   0 -12  -2 3082.45   59.83
   0  12   2 3035.45   49.50
   0  12   3    0.61    5.80
   0 -12  -3    2.76    6.05
   0 -12  -4  210.12    8.41
   0  12   4  224.37    7.02
   0 -12  -5  202.77    7.51
   0  12   5  190.63    8.51
   0 -12  -6  152.77    9.56
   0  12   6  164.15    9.32
   0 -12  -7   88.63    8.54
   0  12   7   70.66    9.89
   0 -13   0   -2.70    5.84
   0 -13  -1 1155.91   21.23
   0  13   2  325.65    8.62
   0 -13  -2  325.02    9.19
   0  13   3 1785.16   37.27
   0 -13  -3 1842.25   34.63
   0 -13  -4  300.67    9.14
   0  13   4  281.38    7.79
   0 -13  -5  257.80    9.51
   0  13   5  260.23    9.24
   0  13   6  108.43    9.40
   0 -13  -6   94.47    9.78
   0 -13  -7  490.78   13.26
   0  13   7  478.77   19.49
   0 -14   0 1470.30   30.17
   0 -14  -1  238.33    8.08
   0 -14  -2   14.60    5.02
   0  14   2   17.99    6.32
   0  14   3   15.30    4.78
   0 -14  -3   23.41    6.66
   0 -14  -4   41.15    7.90
   0  14   4   37.62    6.74
   0 -14  -5   17.71    6.37
   0  14   5   11.75    8.22
   0 -14  -6 1085.55   23.48
   0  14   6 1138.00   24.52
   0 -14  -7    6.56    9.01
   0  14   7   -0.95    8.23
   0 -15   0   -0.83    4.68
   0 -15  -1  262.45    8.78
   0  15   2  166.46    7.23
   0 -15  -2  164.64    6.37
   0  15   3  908.61   19.81
   0 -15  -3  936.45   17.43
   0  15   4  341.84   10.92
   0 -15  -4  328.19    9.88
   0 -15  -5  257.82    9.96
   0  15   5  278.45    8.47
   0 -15  -6   -4.04    7.64
   0  15   6    4.54    8.65
   0 -15  -7  141.41   13.20
   0  15   7  151.04   12.00
   0 -16   0  163.38    7.67
   0 -16  -1  593.93   16.93
   0  16   2  694.19   18.08
   0 -16  -2  656.83   12.44
   0  16   3  425.52   11.75
   0 -16  -3  422.19   10.88
   0  16   4  498.06   14.92
   0 -16  -4  487.37   14.19
   0 -16  -5   29.95    9.63
   0  16   5   35.97    9.38
   0 -16  -6   -3.15   11.20
   0  16   6    1.64   10.51
   0 -17   0    2.01    7.02
   0 -17  -1  466.44   11.77
   0 -17  -2    9.54    7.76
   0  17   2    3.61    4.90
   0 -17  -3   27.00    5.93
   0  17   3   25.71    6.94
   0  17   4  274.13   10.41
   0 -17  -4  253.56    9.53
   0  17   5  391.35   12.11
   0 -17  -5  390.30   12.89
   0  17   6  161.87    9.41
   0 -17  -6  146.87   12.12
   0 -18   0 1236.35   27.62
   0 -18  -1   55.78    7.66
   0 -18  -2  556.38   14.39
   0  18   3  207.71    9.17
   0 -18  -3  199.62    8.06
   0  18   4  175.66    9.19
   0 -18  -4  174.68   10.47
   0 -18  -5  147.88   10.65
   0  18   5  183.12   11.62
   0  18   6  263.17   12.30
   0 -18  -6  266.32   13.54
   0 -19   0   -0.96    8.13
   0 -19  -1  286.95   10.31
   0 -19  -2    5.18    6.09
   0  19   3  611.85   15.60
   0 -19  -3  568.21   13.61
   0  19   4   13.16    9.11
   0 -19  -4    5.00   10.49
   0 -19  -5    2.98   11.37
   0  19   5   -0.12    7.22
   0 -20   0  200.76   10.51
   0 -20  -1  329.14   11.98
   0 -20  -2  923.73   28.09
   0 -20  -3    5.36   10.09
   0  20   3    1.32    6.37
   0  20   4  132.02    7.78
   0 -20  -4  146.25   11.19
   0 -20  -5    8.04   12.15
   0  20   5    3.40   10.72
   0 -21   0   -5.86    8.65
   0 -21  -1  493.50   14.46
   0 -21  -2    0.41    9.44
   0 -21  -3    8.09    9.58
   0  21   4    5.02   10.45
   0 -21  -4    4.71   10.73
   0 -22   0   18.16    8.95
   0 -22  -1  418.23   13.70
   0 -22  -2   71.66    7.83
   0 -22  -3  137.47   10.89
   0  22   4   57.14   11.49
   0 -22  -4   57.44   12.30
   0 -23   0    5.55    9.64
   0 -23  -1   46.65   10.22
   0 -23  -2   72.44   10.30
   0 -23  -3  443.36   14.46
   0 -24   0  394.11   13.39
   0 -24  -1   52.69   11.38
   0 -24  -2   10.05   11.79
   0 -25   0   -4.49   12.11
   0 -25  -1  112.10    9.58
   1 -24   1    9.26   11.00
   1 -24   2   96.75   13.44
   1 -23   1   -1.06   11.09
   1 -23   2  163.97   11.91
   1 -23   3   31.02   11.62
   1 -23   3   27.34   10.88
   1 -22   1  162.33   11.01
   1 -22   2  354.34   13.34
   1 -22   3  497.49   16.46
   1 -22   3  464.34   17.27
   1 -21   1   14.45    9.97
   1 -21   2  148.44   10.26
   1 -21   3  254.83   11.99
   1 -21   3  263.14   12.52
   1 -21   4  292.73   12.57
   1 -20   1   89.72    8.85
   1 -20   2  185.51    9.86
   1 -20   3  136.69    8.52
   1 -20   4   21.03    9.90
   1 -19   1   -0.09    8.10
   1 -19   2  706.01   20.85
   1 -19   3    0.63    6.76
   1 -19   4   69.36   10.50
   1 -19   5   -2.66   10.89
   1 -18   1   45.84    7.53
   1 -18   2   46.28    8.07
   1 -18   3  430.00   14.34
   1 -18   4    4.61    9.85
   1 -18   5   79.41   11.42
   1 -17   1   75.46    5.80
   1 -17   3  348.11   12.77
   1 -17   4  656.92   16.01
   1 -17   5   89.99    9.92
   1 -16   1 1446.34   30.39
   1 -16   3  259.55    8.71
   1 -16   4   76.10    9.08
   1 -16   5   96.67   10.30
   1 -16   6   53.14   12.14
   1 -15   1    3.15    6.49
   1 -15   3   29.59    7.18
   1 -15   4  422.62   18.70
   1 -15   5  224.45   12.43
   1 -15   6  156.62   12.03
   1 -14   3 1239.88   32.94
   1 -14   4   30.46    8.12
   1 -14   5  364.85   13.06
   1 -14   6    9.53   11.04
   1 -13   3   30.01    6.73
   1 -13   4  238.29    9.90
   1 -13   5  105.45    9.05
   1 -13   6  370.62   13.68
   1 -12   3   26.95    6.71
   1 -12   4  167.13    8.90
   1 -12   5   50.44    8.41
   1 -12   6   71.41    9.91
   1 -12   7  262.10   14.24
   1 -11   3  232.30   11.32
   1 -11   4  413.36   10.84
   1 -11   5   51.71    6.23
   1 -11   6  141.52    9.76
   1 -11   7   -4.11   10.95
   1 -10   3  441.68   13.48
   1 -10   4  218.23    8.55
   1 -10   5  701.88   18.79
   1 -10   6  113.59    9.49
   1 -10   7   20.67   10.54
   1  -9   2  660.03   21.75
   1  -9   3  185.31    8.34
   1  -9   4   63.91    6.70
   1  -9   5  205.68    8.80
   1  -9   6  594.80   18.81
   1  -9   7   46.89   11.07
   1  -8   2 3292.01   81.93
   1  -8   3   52.10    6.68
   1  -8   4   90.83    6.93
   1  -8   5  513.96   12.17
   1  -8   6   34.97    9.09
   1  -8   7  148.38    8.48
   1  -7   2  197.11    7.44
   1  -7   3   50.78    4.50
   1  -7   4 1629.59   35.22
   1  -7   5   22.48    7.01
   1  -7   6   35.02    8.48
   1  -7   7    6.14   10.52
   1  -6   2   15.65    5.41
   1  -6   3   93.59    5.00
   1  -6   4   91.82    6.43
   1  -6   5  732.50   15.93
   1  -6   6  776.92   19.21
   1  -6   7   23.03   10.01
   1  -5   2 2949.71   68.80
   1  -5   3   73.93    5.04
   1  -5   4  118.14    7.15
   1  -5   5  226.20    8.82
  -1   5  -5  216.50    9.88
  -1   5  -6  927.80   28.40
   1  -5   6  917.85   17.21
   1  -5   7   88.74    7.31
   1  -5   8   78.42   13.15
   1  -4   2 1807.57   55.57
  -1   4  -3 1665.07   27.99
   1  -4   3 1631.06   29.80
   1  -4   4  224.10    7.24
  -1   4  -4  234.61    8.76
   1  -4   5 1520.36   43.99
  -1   4  -5 1532.62   29.94
   1  -4   6  108.27    8.29
  -1   4  -6  106.63    6.65
   1  -4   7   12.37    9.15
  -1   4  -7   18.73    9.60
   1  -4   8   -2.12    9.70
   1  -3   1 5679.13  115.01
  -1   3  -2 2047.33   34.44
   1  -3   2 2080.75   41.68
   1  -3   3   49.92    5.94
  -1   3  -3   52.57    5.84
   1  -3   4 1789.23   37.26
  -1   3  -4 1805.73   34.77
  -1   3  -5  342.64    9.06
   1  -3   5  340.07    9.53
   1  -3   6  250.77   10.42
  -1   3  -6  253.63    8.37
   1  -3   7   21.61    9.10
  -1   3  -7   21.24    6.92
   1  -3   8  173.17   12.17
  -1   3  -8  161.99   11.46
   1  -2   1 9734.19  230.78
   1  -2   2   26.64    3.81
  -1   2  -2   31.75    5.78
   1  -2   3  240.30    8.65
  -1   2  -3  231.94    7.59
  -1   2  -4   47.87    4.59
   1  -2   4   50.24    6.38
   1  -2   5  112.15    7.39
  -1   2  -5  122.14    7.16
   1  -2   6    9.87    7.22
  -1   2  -6   -2.06    7.56
   1  -2   7  632.19   16.30
  -1   2  -7  676.32   16.71
   1  -2   8  147.30   12.67
  -1   2  -8  138.52    9.15
   1  -1   1 3745.01   90.55
  -1   1  -1 3681.59   83.66
   1  -1   2  269.80    9.67
  -1   1  -2  279.25    8.53
   1  -1   3  393.11   12.56
  -1   1  -3  401.71   13.98
   1  -1   4  317.74    7.88
  -1   1  -4  339.90   12.38
   1  -1   5  125.78    7.85
  -1   1  -5  138.77    8.98
   1  -1   6  153.17    8.37
  -1   1  -6  156.43    9.03
   1  -1   7   54.00    8.98
  -1   1  -7   55.71    7.28
  -1   1  -8   98.78   11.40
   1  -1   8  113.13   13.29
   1   0   0    2.77    4.35
   1   0   1 1966.13   41.84
  -1   0  -1 1981.63   35.11
   1   0   2    1.23    5.29
  -1   0  -2   -6.15    5.25
  -1   0  -3 1672.92   31.72
   1   0   3 1668.47   29.69
   1   0   4   -1.89    5.86
  -1   0  -4   -0.50    5.67
   1   0   5  241.42    8.79
  -1   0  -5  260.30    9.28
   1   0   6    1.04    7.86
  -1   0  -6   -1.64    5.97
   1   0   7    7.45    7.16
  -1   0  -7    8.27    9.30
  -1   0  -8   -3.35   10.54
   1   0   8    3.92   10.60
   1   1   0 6282.79  135.74
  -1  -1   0 6090.29  127.40
   1   1   1 3784.62   74.03
  -1  -1  -1 3680.89   78.80
   1   1   2  260.95    7.45
  -1  -1  -2  261.43    9.68
   1   1   3  388.86    9.78
  -1  -1  -3  372.78    9.83
   1   1   4  295.35    9.15
  -1  -1  -4  306.38    8.54
   1   1   5  124.26    7.31
  -1  -1  -5  124.58    7.61
   1   1   6  140.88    8.11
  -1  -1  -6  149.56    8.66
  -1  -1  -7   62.71   10.15
   1   1   7   53.25    9.65
  -1  -1  -8   90.49   11.02
   1   1   8  108.07   11.87
   1   2   0  361.62   12.74
  -1  -2   0  353.44   13.05
   1   2   1 9999.00  148.43
  -1  -2  -1 9852.35  169.17
   1   2   2   27.19    5.55
  -1  -2  -2   23.98    5.84
   1   2   3  240.41    8.29
  -1  -2  -3  252.50    7.89
   1   2   4   47.92    4.50
  -1  -2  -4   48.74    6.14
   1   2   5  137.13    7.93
  -1  -2  -5  137.69    8.23
   1   2   6    7.36    7.56
  -1  -2  -6   -3.17    7.16
  -1  -2  -7  627.34   16.22
   1   2   7  615.08   14.76
   1   2   8  136.25    9.59
  -1  -2  -8  145.10   11.92
  -1  -3   0  607.41   16.88
   1   3   0  582.41   16.45
   1   3   1 5885.92  100.62
  -1  -3  -1 6034.45   99.36
   1   3   2 1978.54   35.25
  -1  -3  -2 1950.73   38.63
   1   3   3   57.71    6.05
  -1  -3  -3   51.61    6.29
   1   3   4 1770.53   32.06
  -1  -3  -4 1709.66   38.00
   1   3   5  329.91    9.40
  -1  -3  -5  305.29   10.59
  -1  -3  -6  241.57    9.64
   1   3   6  241.71    9.38
  -1  -3  -7   23.73    6.69
   1   3   7   17.57    8.71
   1   3   8  165.98   10.30
  -1  -3  -8  162.94   11.64
  -1  -4   0 8739.01  141.41
   1   4   0 8417.78  130.24
  -1  -4  -1 1016.95   19.71
   1   4   1  997.79   20.57
   1   4   2 1820.89   30.62
  -1  -4  -2 1810.12   34.53
   1   4   3 1568.18   26.30
  -1  -4  -3 1610.24   31.83
  -1  -4  -4  237.18    9.20
   1   4   4  227.02    8.08
  -1  -4  -5 1489.31   25.04
   1   4   5 1509.89   25.77
  -1  -4  -6   95.30    7.84
   1   4   6  102.92    8.04
  -1  -4  -7   10.52    7.03
   1   4   7   13.08    7.09
   1   4   8   -2.61   11.94
  -1  -4  -8    1.45    8.96
  -1  -5   0  241.35    9.89
   1   5   0  268.92    9.97
  -1  -5  -1   32.47    5.57
   1   5   1   38.37    5.32
  -1  -5  -2 3037.39   46.61
   1   5   2 3050.54   53.40
  -1  -5  -3   68.93    6.43
   1   5   3   70.08    4.67
  -1  -5  -4  124.21    7.16
   1   5   4  120.29    7.05
  -1  -5  -5  215.35    9.16
   1   5   5  217.88    8.09
  -1  -5  -6  891.76   16.81
   1   5   6  964.75   19.78
  -1  -5  -7   89.34    9.16
   1   5   7   93.74    9.74
   1   5   8   76.18   11.85
   1   6   0   46.61    4.97
  -1  -6   0   50.31    5.86
  -1  -6  -1 3580.82   58.52
   1   6   1 3642.55   56.65
   1   6   2   10.67    5.61
  -1  -6  -2    7.25    5.95
  -1  -6  -3   95.04    5.09
   1   6   3   92.64    6.40
  -1  -6  -4  101.96    7.19
   1   6   4   98.90    5.42
  -1  -6  -5  759.33   16.18
   1   6   5  746.59   13.69
  -1  -6  -6  762.32   14.43
   1   6   6  758.08   16.01
   1   6   7   32.08    9.13
  -1  -6  -7   37.75    9.77
   1   7   0 1182.86   25.38
  -1  -7   0 1118.76   25.04
   1   7   1  593.82   15.71
  -1  -7  -1  577.81   12.67
  -1  -7  -2  199.20    7.96
   1   7   2  210.65    7.76
  -1  -7  -3   54.99    4.60
   1   7   3   53.53    4.53
  -1  -7  -4 1651.17   28.06
   1   7   4 1725.94   29.61
  -1  -7  -5   28.60    7.45
   1   7   5   22.55    5.37
  -1  -7  -6   37.03    7.97
   1   7   6   38.11    8.00
   1   7   7    2.02    7.24
  -1  -7  -7   -3.44    8.92
  -1  -8   0 2133.74   79.63
   1   8   0 2082.62   59.18
  -1  -8  -1 2258.58   39.78
   1   8   1 2404.77   41.05
  -1  -8  -2 3402.58   58.28
   1   8   2 3440.74   52.96
  -1  -8  -3   38.91    6.33
   1   8   3   44.97    5.91
  -1  -8  -4   90.87    5.92
   1   8   4   95.79    6.89
  -1  -8  -5  542.91   12.85
   1   8   5  518.13   12.41
  -1  -8  -6   33.39    8.84
   1   8   6   36.29    6.63
   1   8   7  152.66   10.96
  -1  -8  -7  144.74   10.35
  -1  -9   0 4952.01   76.89
   1   9   0 5184.30   88.63
   1   9   1   42.72    5.39
  -1  -9  -1   44.71    6.08
  -1  -9  -2  655.03   13.09
   1   9   2  693.99   14.84
  -1  -9  -3  192.49    7.60
   1   9   3  176.63    7.39
  -1  -9  -4   62.14    6.82
   1   9   4   70.07    5.23
  -1  -9  -5  213.66    9.81
   1   9   5  202.34    8.45
   1   9   6  626.48   13.44
  -1  -9  -6  598.49   14.45
   1   9   7   48.42    8.77
  -1  -9  -7   35.87   10.38
  -1 -10   0  276.37    9.40
   1  10   0  269.00    8.62
   1  10   1  470.76   11.61
  -1 -10  -1  474.82   11.48
   1  10   2  218.57    6.53
  -1 -10  -2  221.08    7.28
  -1 -10  -3  457.23   12.00
   1  10   3  450.31   12.44
   1  10   4  209.76    7.69
  -1 -10  -4  197.77    6.56
   1  10   5  691.74   17.35
  -1 -10  -5  710.96   14.01
   1  10   6  120.94    9.18
  -1 -10  -6  113.43   10.02
   1  10   7   19.28   10.86
  -1 -10  -7   30.52   11.72
   1  11   0 1489.32   28.54
  -1 -11   0 1563.63   30.90
   1  11   1  195.84    8.15
  -1 -11  -1  189.68    7.82
  -1 -11  -2  340.88    9.22
   1  11   2  361.34    9.13
   1  11   3  225.06    6.90
  -1 -11  -3  223.59    8.54
   1  11   4  465.65   11.38
  -1 -11  -4  436.86   12.04
   1  11   5   54.29    8.51
  -1 -11  -5   53.02    8.53
   1  11   6  140.42    7.84
  -1 -11  -6  131.67    8.07
   1  11   7    4.92   10.83
  -1 -11  -7   -2.31   11.02
  -1 -12   0  611.92   16.37
  -1 -12  -1 3937.70   65.40
   1  12   1 3851.96   62.80
   1  12   2   74.97    5.73
  -1 -12  -2   85.69    7.43
  -1 -12  -3   26.44    5.17
   1  12   3   22.35    6.79
   1  12   4  157.91    6.28
  -1 -12  -4  151.48    6.69
   1  12   5   46.45    7.96
  -1 -12  -5   41.87    8.22
   1  12   6   86.06    9.21
  -1 -12  -6   87.30   10.04
   1  12   7  257.62   12.01
  -1 -12  -7  246.84   13.46
  -1 -13   0  388.29   11.98
   1  13   1  113.34    6.92
  -1 -13  -1  119.17    7.48
   1  13   2  234.11    9.32
  -1 -13  -2  218.54    8.35
  -1 -13  -3   25.71    7.35
   1  13   3   36.24    4.87
  -1 -13  -4  248.83   10.32
   1  13   4  262.64   11.48
   1  13   5  115.04    6.70
  -1 -13  -5   96.66    7.25
   1  13   6  366.47   12.30
  -1 -13  -6  377.64   13.12
  -1 -14   0    2.54    6.73
  -1 -14  -1   16.19    4.89
   1  14   1   20.06    6.08
   1  14   2   31.40    6.44
  -1 -14  -2   55.10    7.09
  -1 -14  -3 1236.12   26.81
   1  14   3 1240.63   25.31
  -1 -14  -4   26.04    7.73
   1  14   4   29.26    7.67
  -1 -14  -5  360.66   10.07
   1  14   5  356.52   13.91
  -1 -14  -6    7.16    9.88
   1  14   6    8.22    8.00
  -1 -15   0  513.06   13.23
   1  15   1    0.77    6.52
  -1 -15  -1    0.18    6.78
   1  15   2  641.67   12.71
  -1 -15  -2  626.51   13.15
  -1 -15  -3   29.19    7.75
   1  15   3   24.04    7.23
  -1 -15  -4  351.67   11.55
   1  15   4  400.39   11.89
  -1 -15  -5  227.31   10.43
   1  15   5  236.67   10.03
  -1 -15  -6  170.54    9.51
   1  15   6  210.88   12.95
  -1 -16   0  137.10    8.31
   1  16   1 1420.20   26.74
  -1 -16  -1 1352.08   24.48
   1  16   2  108.04    5.86
  -1 -16  -2   92.07    7.94
  -1 -16  -3  257.59   10.08
   1  16   3  286.35   10.74
  -1 -16  -4   80.08    9.06
   1  16   4   85.14    8.30
  -1 -16  -5  112.97   10.61
   1  16   5  113.05   10.29
  -1 -16  -6   58.60   11.49
   1  16   6   51.69   10.64
  -1 -17   0  183.44    8.39
  -1 -17  -1   69.51    7.82
  -1 -17  -2  272.74    9.80
   1  17   2  289.80    8.06
  -1 -17  -3  320.03   10.64
   1  17   3  400.84   13.25
  -1 -17  -4  629.45   16.57
   1  17   4  678.14   16.17
  -1 -17  -5   94.43   10.28
   1  17   5   92.11    9.87
  -1 -18   0  399.09   12.13
  -1 -18  -1   47.97    7.71
   1  18   2   61.37    8.37
  -1 -18  -2   53.87    6.37
  -1 -18  -3  440.95   13.36
   1  18   3  435.30   15.06
   1  18   4   -0.57    8.69
  -1 -18  -4   -3.04    9.29
   1  18   5   79.12    8.55
  -1 -18  -5   86.33   12.24
  -1 -19   0  180.80    9.07
  -1 -19  -1    1.09    7.81
   1  19   2  778.53   18.59
  -1 -19  -2  685.94   15.77
   1  19   3   -1.93    8.66
  -1 -19  -3   -3.03    9.74
  -1 -19  -4   80.40   10.28
   1  19   4   85.73    9.92
   1  19   5    1.45   11.76
  -1 -19  -5    3.34    9.31
  -1 -20   0  354.75   12.38
  -1 -20  -1   81.96    9.64
  -1 -20  -2  179.16   10.59
  -1 -20  -3  121.75   11.06
   1  20   3  143.03    9.40
  -1 -20  -4   23.12   10.49
   1  20   4   23.29    9.89
  -1 -21   0   21.87    9.74
  -1 -21  -1   10.88    8.84
  -1 -21  -2  145.07   10.65
  -1 -21  -3  255.25   12.61
   1  21   3  275.04   12.40
   1  21   4  328.47   12.28
  -1 -21  -4  296.43   13.76
  -1 -22   0  191.65   11.05
  -1 -22  -1  161.71   10.84
  -1 -22  -2  358.44   12.82
  -1 -22  -3  490.77   16.37
   1  22   3  484.20   18.44
  -1 -23   0  224.98   12.14
  -1 -23  -1    1.32   10.81
  -1 -23  -2  161.67   12.84
  -1 -23  -3   33.18   11.88
  -1 -24   0   62.61   11.88
  -1 -24  -1    4.84   11.63
  -1 -24  -2   82.88   11.65
  -1 -25   0   74.14   13.49
   2 -23   1   66.51   11.21
   2 -22   1  153.98   11.40
   2 -22   2   73.02   10.83
   2 -21   1  261.00   12.21
   2 -21   2   -1.53    8.14
   2 -21   3  143.77   11.92
   2 -20   1  306.23   12.02
   2 -20   2   49.17    8.90
   2 -20   3  213.94   11.80
   2 -19   1   70.51    8.94
   2 -19   3    6.93    9.74
   2 -19   4   -2.46   12.48
   2 -18   1  201.19   10.25
   2 -18   3   34.46   10.06
   2 -18   4   -1.71   10.72
   2 -17   1  268.75    9.99
   2 -17   3  548.27   16.32
   2 -17   4   81.48   10.02
   2 -17   5   38.19   11.84
   2 -16   3   53.61    8.62
   2 -16   4  564.94   17.15
   2 -16   5   -1.35   11.00
   2 -15   3  278.51   10.86
   2 -15   4  122.12    9.98
   2 -15   5  102.08   10.72
   2 -14   3    5.08    7.52
   2 -14   4  295.65   11.47
   2 -14   5  144.91   10.97
   2 -13   3  384.58   17.06
   2 -13   4   10.21    7.66
   2 -13   5   42.21    9.88
   2 -13   6   87.06   11.24
   2 -12   2   52.39    6.76
   2 -12   3    8.31    6.74
   2 -12   4  758.74   18.71
   2 -12   5   44.15    9.29
   2 -12   6  294.39   12.92
   2 -11   2   33.00    6.27
   2 -11   3  505.06   14.78
   2 -11   4  238.47    9.88
   2 -11   5   46.29    9.57
   2 -11   6   97.11    8.73
   2 -10   2  526.05   14.46
   2 -10   3  506.66   11.85
   2 -10   4  126.39    6.58
   2 -10   5    6.57    6.21
   2 -10   6   17.49   10.38
   2  -9   2   40.46    5.92
   2  -9   3  619.35   20.95
   2  -9   4   11.34    7.55
   2  -9   5  648.55   15.76
   2  -9   6   -1.62   10.89
   2  -8   2   44.22    6.07
   2  -8   3  328.68   10.51
   2  -8   4  296.87   11.18
   2  -8   5   10.72    6.00
   2  -8   6   75.39    7.96
   2  -7   2   47.29    5.74
   2  -7   3  941.79   20.82
   2  -7   4    4.38    6.86
   2  -7   5   34.45    5.81
   2  -7   6   32.09   10.32
   2  -7   7  317.41   13.69
   2  -6   2 1333.45   32.66
   2  -6   3  596.94   14.92
   2  -6   4  400.24   11.93
   2  -6   5    6.81    7.64
   2  -6   6  227.92   10.91
   2  -6   7   25.05   12.35
   2  -5   1 1170.72   23.69
   2  -5   2  100.81    7.34
   2  -5   3   46.85    6.41
   2  -5   4   10.92    6.46
   2  -5   5  986.40   27.67
   2  -5   6   63.95    9.03
   2  -5   7   45.03    8.83
   2  -4   1 2367.87   58.20
   2  -4   2 7269.65  158.02
   2  -4   3  421.50   10.53
   2  -4   4  105.63    7.47
   2  -4   5    9.52    5.84
   2  -4   6  315.97    9.25
   2  -4   7   56.84   11.42
   2  -3   1 4876.62  183.07
   2  -3   2  284.81    8.94
   2  -3   3  289.54    9.48
  -2   3  -4   44.58    6.39
   2  -3   4   46.24    5.18
   2  -3   5  176.25    8.78
  -2   3  -5  172.14    8.51
   2  -3   6  340.00   10.03
   2  -3   7   82.46   11.70
   2  -2   1   38.25    5.62
   2  -2   2   27.36    5.51
   2  -2   3   51.58    4.71
  -2   2  -3   44.99    4.45
  -2   2  -4  416.92   12.10
   2  -2   4  411.28   10.37
   2  -2   5    1.97    7.20
  -2   2  -5   -4.99    7.26
   2  -2   6  669.98   15.27
  -2   2  -6  684.81   18.19
  -2   2  -7   91.98   11.22
   2  -2   7   97.09   11.56
   2  -1   1 3079.32   75.43
   2  -1   2  274.12    9.01
  -2   1  -2  272.65    9.37
   2  -1   3  179.93    7.57
  -2   1  -3  182.08    7.75
  -2   1  -4  206.55    8.33
   2  -1   4  216.09    7.90
   2  -1   5  572.56   14.11
  -2   1  -5  576.43   13.37
   2  -1   6    3.27    8.90
  -2   1  -6    2.23    8.42
   2  -1   7  235.35   11.61
  -2   1  -7  268.19   13.12
   2   0   0  583.59   16.71
  -2   0  -1    2.98    5.39
   2   0   1    1.96    4.98
   2   0   2 1924.33   35.85
  -2   0  -2 1908.78   37.25
   2   0   3   -2.76    4.22
  -2   0  -3    0.19    4.17
   2   0   4   12.05    6.17
  -2   0  -4   10.18    6.46
   2   0   5   -2.42    5.40
  -2   0  -5    5.31    7.07
   2   0   6  144.62    9.60
  -2   0  -6  143.00    7.49
   2   0   7   -2.50   10.30
  -2   0  -7   -2.42    9.97
   2   1   0   75.00    5.79
   2   1   1 3162.93   56.37
  -2  -1  -1 3190.46   63.28
   2   1   2  273.90    9.06
  -2  -1  -2  252.25    7.92
   2   1   3  167.32    6.34
  -2  -1  -3  189.19    7.43
   2   1   4  202.57    6.83
  -2  -1  -4  203.52    8.86
   2   1   5  574.52   14.51
  -2  -1  -5  564.14   14.15
   2   1   6    5.55    6.22
  -2  -1  -6    3.15    6.45
   2   1   7  254.04   11.77
  -2  -1  -7  286.56   12.47
  -2  -2   0 2289.79   40.44
   2   2   0 2307.85   59.79
   2   2   1   47.05    4.60
  -2  -2  -1   46.80    5.87
   2   2   2   20.00    5.68
  -2  -2  -2   26.85    6.02
   2   2   3   43.74    4.61
  -2  -2  -3   46.69    4.51
   2   2   4  383.68   11.13
  -2  -2  -4  404.96   14.22
   2   2   5    3.58    7.46
  -2  -2  -5   -1.17    7.28
   2   2   6  706.87   16.12
  -2  -2  -6  684.31   17.69
  -2  -2  -7   98.94   12.16
   2   2   7   90.38   12.35
   2   3   0   85.28    6.65
  -2  -3   0   89.21    7.02
   2   3   1 4756.83   78.94
  -2  -3  -1 4769.28   98.51
   2   3   2  294.73    8.99
  -2  -3  -2  296.47    9.19
   2   3   3  278.23    9.15
  -2  -3  -3  292.91    8.95
   2   3   4   56.67    6.61
  -2  -3  -4   45.51    5.03
   2   3   5  180.91    9.06
  -2  -3  -5  166.13    7.04
   2   3   6  376.92    9.66
  -2  -3  -6  378.27   17.16
  -2  -3  -7   81.41   11.69
   2   3   7   73.16   11.08
   2   4   0  435.39   12.64
  -2  -4   0  426.58   12.95
   2   4   1 2446.96   50.34
  -2  -4  -1 2438.89   68.79
   2   4   2 7361.14  127.09
  -2  -4  -2 7437.30  151.15
   2   4   3  434.98   10.79
  -2  -4  -3  456.94   15.04
   2   4   4  111.19    7.55
  -2  -4  -4  111.29    7.26
   2   4   5    6.55    7.36
  -2  -4  -5   10.48    7.11
  -2  -4  -6  303.21   13.63
   2   4   6  323.61   11.47
  -2  -4  -7   50.66   10.63
   2   4   7   54.73   10.34
  -2  -5   0  108.80    6.82
   2   5   0  107.56    7.35
   2   5   1 1182.69   23.31
  -2  -5  -1 1201.79   22.02
   2   5   2  110.75    6.69
  -2  -5  -2   97.43    6.85
   2   5   3   49.59    6.26
  -2  -5  -3   41.17    6.50
   2   5   4   14.94    6.58
  -2  -5  -4    9.46    6.67
  -2  -5  -5  957.71   20.29
   2   5   5  937.90   17.72
  -2  -5  -6   63.34    9.17
   2   5   6   69.78    7.46
   2   5   7   43.99    8.95
  -2  -5  -7   53.85    9.71
  -2  -6   0 1075.22   27.95
   2   6   0 1102.41   25.55
  -2  -6  -1 2375.75   43.84
   2   6   1 2437.00   42.84
  -2  -6  -2 1336.89   25.18
   2   6   2 1321.59   23.31
  -2  -6  -3  630.60   15.92
   2   6   3  599.17   11.91
  -2  -6  -4  444.64   11.15
   2   6   4  416.75   10.82
  -2  -6  -5    4.22    8.48
   2   6   5    2.97    7.72
  -2  -6  -6  228.00    8.73
   2   6   6  234.35   11.04
   2   6   7   24.39   11.96
  -2  -6  -7   20.30   11.82
   2   7   0    1.70    5.06
  -2  -7   0    3.94    6.77
  -2  -7  -1  427.66   12.01
   2   7   1  442.05   12.98
  -2  -7  -2   43.39    6.42
   2   7   2   48.11    6.29
  -2  -7  -3  918.18   18.24
   2   7   3  923.61   19.32
  -2  -7  -4    1.60    6.84
   2   7   4    3.71    6.29
  -2  -7  -5   42.93    8.58
   2   7   5   40.31    8.24
   2   7   6   27.18    9.21
  -2  -7  -6   35.14    9.19
   2   7   7  319.01   13.27
  -2  -7  -7  285.24   11.36
  -2  -8   0 1161.47   22.65
   2   8   0 1164.32   22.71
  -2  -8  -1   11.37    5.93
   2   8   1   13.78    5.65
  -2  -8  -2   47.94    6.69
   2   8   2   48.35    6.20
  -2  -8  -3  329.53   11.07
   2   8   3  343.64    9.81
  -2  -8  -4  313.09   10.35
   2   8   4  314.54    9.81
  -2  -8  -5    5.03    8.12
   2   8   5    5.87    8.71
   2   8   6   74.45    7.72
  -2  -8  -6   69.72   10.90
  -2  -9   0   42.93    7.20
   2   9   0   42.19    6.22
   2   9   1  193.96    7.87
  -2  -9  -1  184.22    7.84
  -2  -9  -2   45.66    6.88
   2   9   2   50.57    6.42
  -2  -9  -3  579.60   13.33
   2   9   3  616.00   13.16
  -2  -9  -4    2.91    5.51
   2   9   4    9.26    7.03
   2   9   5  629.68   14.10
  -2  -9  -5  624.01   13.92
   2   9   6    8.66   10.03
  -2  -9  -6   10.75    9.54
  -2 -10   0  138.79    8.49
   2  10   0  143.23    8.56
   2  10   1  451.73   11.59
  -2 -10  -1  444.04   12.11
   2  10   2  501.73   10.96
  -2 -10  -2  497.47   11.07
  -2 -10  -3  501.35   13.28
   2  10   3  543.49   11.80
   2  10   4  132.26    8.49
  -2 -10  -4  124.59    8.83
   2  10   5    5.40    9.03
  -2 -10  -5   -0.66    8.48
   2  10   6   14.56   10.69
  -2 -10  -6   17.06    9.58
  -2 -11   0   74.59    7.31
   2  11   0   73.85    7.20
  -2 -11  -1  676.32   15.11
   2  11   1  738.50   21.27
   2  11   2   31.35    6.72
  -2 -11  -2   35.98    7.10
   2  11   3  507.91   11.36
  -2 -11  -3  481.91   10.82
   2  11   4  235.21    9.31
  -2 -11  -4  221.13    9.83
   2  11   5   59.21   10.07
  -2 -11  -5   41.10    8.86
   2  11   6   77.52    7.81
  -2 -11  -6   79.12   11.09
  -2 -12   0 1774.88   30.89
   2  12   0 1790.23   48.89
  -2 -12  -1  219.30    8.69
   2  12   1  221.56    8.02
   2  12   2   56.38    6.55
  -2 -12  -2   57.79    6.79
   2  12   3    7.69    7.25
  -2 -12  -3   11.39    7.83
   2  12   4  835.75   18.02
  -2 -12  -4  782.79   16.73
   2  12   5   39.61    9.13
  -2 -12  -5   50.88    9.43
   2  12   6  279.22   12.57
  -2 -12  -6  283.53   12.95
   2  13   0  929.21   20.14
  -2 -13   0  974.53   23.81
  -2 -13  -1  250.32    9.28
   2  13   1  272.67    9.55
  -2 -13  -2   65.32    7.74
   2  13   2   76.29    5.83
   2  13   3  404.73    9.56
  -2 -13  -3  383.09   10.78
   2  13   4    2.18    8.29
  -2 -13  -4    4.91    6.68
   2  13   5   42.95    9.76
  -2 -13  -5   48.37   10.52
   2  13   6   92.51   12.32
  -2 -13  -6   80.31   11.18
   2  14   0  190.98    8.87
  -2 -14   0  179.20    9.43
  -2 -14  -1   94.12    7.78
   2  14   1   99.28    7.46
  -2 -14  -2 1835.00   43.54
   2  14   2 1814.31   36.01
  -2 -14  -3    2.26    8.50
   2  14   3    5.67    8.17
   2  14   4  327.30   10.88
  -2 -14  -4  289.11   12.04
   2  14   5  160.11    9.86
  -2 -14  -5  147.41   11.48
  -2 -15   0  114.33    8.74
  -2 -15  -1  205.34    9.96
   2  15   1  225.26    9.87
  -2 -15  -2  104.00    8.40
   2  15   2  115.46    8.31
  -2 -15  -3  270.20   10.27
   2  15   3  279.27    9.16
  -2 -15  -4  129.40   10.14
   2  15   4  149.28   10.19
  -2 -15  -5   95.72   10.68
   2  15   5  105.77   10.85
  -2 -16   0 1462.49   27.82
   2  16   1  397.25   10.93
  -2 -16  -1  425.71   11.90
   2  16   2   -0.05    7.25
  -2 -16  -2    3.47    8.38
  -2 -16  -3   46.23    9.38
   2  16   3   61.71    9.28
  -2 -16  -4  529.66   13.41
   2  16   4  608.22   16.83
  -2 -16  -5   -2.01    8.85
   2  16   5    5.86    8.56
  -2 -17   0  120.93    9.25
  -2 -17  -1  257.21   10.49
   2  17   1  300.46   11.00
  -2 -17  -2   91.64    8.96
   2  17   2   94.47    8.50
   2  17   3  591.70   16.00
  -2 -17  -3  504.80   13.10
  -2 -17  -4   76.07   10.74
   2  17   4   94.29    8.63
  -2 -17  -5   45.04   12.43
   2  17   5   45.70   11.25
  -2 -18   0   16.42    8.58
  -2 -18  -1  183.27   10.96
   2  18   1  205.75    9.03
  -2 -18  -2  473.45   13.46
   2  18   2  531.66   14.41
   2  18   3   33.79    8.94
  -2 -18  -3   31.54   10.43
   2  18   4    3.35    8.16
  -2 -18  -4    5.90   11.56
  -2 -19   0    1.52    9.10
  -2 -19  -1   76.48    9.75
  -2 -19  -2   -2.47    9.25
   2  19   2    0.39    8.77
  -2 -19  -3    6.35   10.10
   2  19   3    5.55    8.95
   2  19   4    2.11   10.21
  -2 -19  -4    5.65   12.70
  -2 -20   0   76.56   10.14
  -2 -20  -1  309.63   12.07
  -2 -20  -2   45.52    9.92
   2  20   2   48.36    9.71
  -2 -20  -3  228.44   12.85
   2  20   3  226.63   11.79
  -2 -21   0   -0.56    9.75
  -2 -21  -1  232.67   11.33
  -2 -21  -2    3.16   10.49
   2  21   2    3.10   10.02
  -2 -21  -3  154.20   13.39
   2  21   3  153.18   11.36
  -2 -22   0  519.53   15.73
  -2 -22  -1  132.25   11.23
  -2 -22  -2   81.39   11.69
  -2 -23   0   -4.20   12.05
  -2 -23  -1   73.61   12.60
  -2 -24   0  114.77   14.47
   3 -21   1   35.32   10.33
   3 -20   1  205.52   11.14
   3 -20   2   81.86   10.89
   3 -20   2   84.84   11.34
   3 -19   1    3.59    9.89
   3 -19   2   63.20   10.68
   3 -19   3    6.15    8.74
   3 -18   1  352.15   11.86
   3 -18   2  165.45   10.95
   3 -18   3   27.89   11.11
   3 -17   2   24.48    8.85
   3 -17   3   -0.37    9.70
   3 -16   2   96.72    7.40
   3 -16   3  564.31   17.52
   3 -16   4    0.28    8.53
   3 -15   2  196.46   10.19
   3 -15   3    3.34    8.58
   3 -15   4  258.45   12.90
   3 -14   2    8.09    5.49
   3 -14   3   21.43    8.68
   3 -14   4    9.15   10.82
   3 -13   2  756.30   20.67
   3 -13   3   13.29    8.67
   3 -13   4  218.21   10.83
   3 -13   5   84.38   12.51
   3 -12   2  139.24    8.25
   3 -12   3  712.97   28.31
   3 -12   4    9.58    8.68
   3 -12   5   68.58   11.48
   3 -11   2  200.59    7.57
   3 -11   3   19.03    8.13
   3 -11   4  106.78   10.05
   3 -11   5    9.76   11.15
   3 -10   2   20.82    5.13
   3 -10   3   16.17    7.34
   3 -10   4   18.06    8.47
   3 -10   5  207.87   10.13
   3  -9   1   29.70    4.68
   3  -9   2  339.00   15.20
   3  -9   3  198.94    9.36
   3  -9   4   65.79    8.23
   3  -9   5   97.80   10.32
   3  -8   1  126.42    6.73
   3  -8   2  589.10   16.66
   3  -8   3  986.72   22.51
   3  -8   4  293.48   10.20
   3  -8   5  113.83    9.61
   3  -7   1  166.55    7.93
   3  -7   2 1012.78   21.54
   3  -7   3  353.74   11.27
   3  -7   4   20.52    8.13
   3  -7   5    9.13    9.15
   3  -7   6  487.74   19.44
   3  -6   1  361.62   11.39
   3  -6   2  799.51   26.52
   3  -6   3  745.95   18.27
   3  -6   4  178.42    8.94
   3  -6   5  109.21    7.48
   3  -6   6    9.06   11.05
   3  -5   1  332.54    9.64
   3  -5   2 2097.51   54.27
   3  -5   3  101.63    5.67
   3  -5   4  220.20    9.91
   3  -5   5   21.52    8.99
   3  -5   6   40.65   10.71
   3  -4   1  950.63   24.28
   3  -4   2  299.77    9.54
   3  -4   3   25.50    7.07
   3  -4   4  114.82    8.20
   3  -4   5  168.09   10.33
   3  -4   6   18.17   11.29
   3  -3   1   86.52    7.16
   3  -3   2  556.83   18.11
   3  -3   3   19.16    6.50
   3  -3   4   50.92    7.75
   3  -3   5   93.92    7.32
   3  -3   6  205.95   12.65
   3  -2   1   41.79    5.65
   3  -2   2   24.05    6.21
   3  -2   3 1438.45   35.12
   3  -2   4    1.52    7.91
   3  -2   5   55.63    7.15
   3  -2   6   15.91   11.33
   3  -1   1  316.82    9.25
   3  -1   2  200.98    8.54
   3  -1   3   45.21    5.33
   3  -1   4  576.07   12.54
   3  -1   5   32.42    9.44
   3  -1   6   92.94   11.77
   3   0   0    1.30    5.42
   3   0   1 2756.97   49.92
   3   0   2    3.22    4.35
  -3   0  -3  172.39    7.56
   3   0   3  176.82    7.87
  -3   0  -4    0.35    5.64
   3   0   4    0.51    8.03
  -3   0  -5  489.14   12.75
   3   0   5  512.39   13.32
   3   0   6   -7.66   11.54
   3   1   0   86.00    6.66
   3   1   1  313.15    9.32
  -3  -1  -2  198.65    9.24
   3   1   2  208.69    7.32
   3   1   3   47.69    7.05
  -3  -1  -3   43.56    7.21
   3   1   4  598.52   15.05
  -3  -1  -4  569.43   15.65
   3   1   5   33.94    8.77
  -3  -1  -5   31.74    8.99
   3   1   6   90.02   10.26
  -3  -1  -6   92.24   11.29
   3   2   0   26.61    5.73
   3   2   1   48.00    6.50
   3   2   2   25.43    6.58
  -3  -2  -2   16.16    6.21
   3   2   3 1419.59   24.20
  -3  -2  -3 1495.02   30.57
   3   2   4    3.04    7.80
  -3  -2  -4   -2.94    7.49
   3   2   5   62.38    8.89
  -3  -2  -5   57.84    6.81
   3   2   6   13.97    8.31
  -3  -2  -6   23.62   10.92
   3   3   0 1396.50   27.18
   3   3   1   89.82    7.16
  -3  -3  -1   95.83    7.13
   3   3   2  537.30   12.05
  -3  -3  -2  540.25   13.35
   3   3   3   24.93    6.98
  -3  -3  -3   25.16    5.07
   3   3   4   49.03    8.13
  -3  -3  -4   48.66    5.90
   3   3   5   88.11    9.47
  -3  -3  -5   95.45    7.64
   3   3   6  225.55   11.72
  -3  -3  -6  195.25   11.42
   3   4   0    2.98    7.02
   3   4   1  986.52   21.55
  -3  -4  -1  978.92   21.65
   3   4   2  297.17    9.31
  -3  -4  -2  294.12   10.19
   3   4   3   28.99    7.24
  -3  -4  -3   30.93    7.02
   3   4   4  124.67    8.13
  -3  -4  -4  122.21    8.19
   3   4   5  169.05    9.84
  -3  -4  -5  160.30    9.45
  -3  -4  -6   15.33    8.84
   3   4   6   17.64   12.42
   3   5   0  634.21   15.45
  -3  -5   0  638.33   17.60
   3   5   1  332.44    9.93
  -3  -5  -1  312.26   10.41
   3   5   2 2106.84   37.30
  -3  -5  -2 2071.08   34.79
   3   5   3  106.12    7.50
  -3  -5  -3   91.82    7.40
   3   5   4  221.12    8.01
  -3  -5  -4  203.52    9.41
  -3  -5  -5   23.72    8.85
   3   5   5   21.49    7.50
   3   5   6   40.71   11.08
  -3  -5  -6   34.61   11.80
   3   6   0  316.65    9.88
  -3  -6   0  289.88   10.08
   3   6   1  384.77   11.01
  -3  -6  -1  397.05   16.62
   3   6   2  830.66   18.68
  -3  -6  -2  780.42   18.72
   3   6   3  755.31   14.91
  -3  -6  -3  750.25   18.15
  -3  -6  -4  181.26   10.55
   3   6   4  199.08   10.47
  -3  -6  -5   99.23   10.16
   3   6   5  106.53    9.59
   3   6   6   19.44   11.05
  -3  -6  -6   15.83   10.26
   3   7   0 1488.05   26.78
  -3  -7   0 1439.36   26.92
  -3  -7  -1  161.11    8.07
   3   7   1  158.30    7.53
  -3  -7  -2 1021.77   20.88
   3   7   2 1031.37   20.60
  -3  -7  -3  338.21   10.43
   3   7   3  336.55    9.92
  -3  -7  -4   26.91    8.67
   3   7   4   21.58    8.69
  -3  -7  -5    7.97   10.66
   3   7   5    2.43    9.34
   3   7   6  517.05   15.01
  -3  -7  -6  465.22   17.14
   3   8   0  103.02    7.20
  -3  -8   0  106.90    7.59
   3   8   1  120.00    7.25
  -3  -8  -1  109.33    7.13
  -3  -8  -2  573.45   14.87
   3   8   2  632.29   14.32
  -3  -8  -3  971.68   20.64
   3   8   3 1010.63   20.21
  -3  -8  -4  261.75   11.01
   3   8   4  295.45    9.13
   3   8   5  118.49   11.00
  -3  -8  -5  108.45    9.77
   3   8   6    2.06   12.88
  -3  -8  -6   -0.93   11.56
   3   9   0  382.26   12.31
  -3  -9   0  364.95   12.45
   3   9   1   29.06    8.04
  -3  -9  -1   22.96    6.85
   3   9   2  331.34   10.00
  -3  -9  -2  313.88   10.43
  -3  -9  -3  219.33    9.64
   3   9   3  242.48    8.70
   3   9   4   80.34    9.29
  -3  -9  -4   61.08    6.85
   3   9   5   96.20   10.68
  -3  -9  -5   92.96   10.85
  -3 -10   0   56.58    7.04
   3  10   0   61.55    7.29
   3  10   1 1001.66   24.09
  -3 -10  -1  952.64   21.76
   3  10   2   20.30    6.87
  -3 -10  -2   16.79    7.07
   3  10   3   18.34    7.38
  -3 -10  -3   14.54    7.54
   3  10   4   23.20    8.83
  -3 -10  -4   20.35    9.00
   3  10   5  193.17   11.62
  -3 -10  -5  191.86   11.09
   3  11   0  132.28    8.35
  -3 -11   0  134.33    9.55
   3  11   1  214.11    8.44
  -3 -11  -1  205.32   10.52
   3  11   2  196.90    8.90
  -3 -11  -2  201.58    9.11
   3  11   3   20.24    7.64
  -3 -11  -3   18.82    7.90
   3  11   4  114.57    7.76
  -3 -11  -4  107.77    9.97
   3  11   5    5.31   11.43
  -3 -11  -5    9.28   10.59
   3  12   0    6.81    6.84
  -3 -12   0    8.76    7.23
  -3 -12  -1  251.91   10.08
   3  12   1  266.29   11.88
   3  12   2  146.65    8.32
  -3 -12  -2  127.15    9.04
   3  12   3  690.60   14.66
  -3 -12  -3  654.59   14.84
   3  12   4    3.44    9.21
  -3 -12  -4    8.19    9.81
   3  12   5   60.55   10.83
  -3 -12  -5   58.18   11.70
  -3 -13   0  794.48   18.18
   3  13   0  849.02   20.72
  -3 -13  -1   14.76    7.80
   3  13   1   18.74    8.18
   3  13   2  797.34   16.20
  -3 -13  -2  708.37   20.24
   3  13   3   11.79    9.00
  -3 -13  -3    9.01    6.56
   3  13   4  273.48   12.14
  -3 -13  -4  212.57   10.83
   3  13   5   75.19   12.92
  -3 -13  -5   94.49   13.58
   3  14   0   36.13    7.48
  -3 -14   0   31.93    9.13
   3  14   1 1235.47   24.80
  -3 -14  -1 1124.56   22.82
  -3 -14  -2    7.08    8.64
   3  14   2   12.62    8.07
   3  14   3   25.23    6.70
  -3 -14  -3   14.87    9.65
   3  14   4   15.34   10.21
  -3 -14  -4   17.33   10.24
  -3 -15   0  406.32   13.92
   3  15   0  498.06   14.14
   3  15   1   31.56    7.58
  -3 -15  -1   24.54    8.43
  -3 -15  -2  181.85    9.85
   3  15   2  212.46    9.74
  -3 -15  -3   -1.08   10.16
   3  15   3    2.26    8.89
  -3 -15  -4  244.89   12.27
   3  15   4  262.72   11.56
  -3 -16   0   30.11   10.10
  -3 -16  -1   13.31    9.54
   3  16   1   15.46    9.01
   3  16   2  103.28   10.46
  -3 -16  -2   92.41   11.33
  -3 -16  -3  596.80   16.52
   3  16   3  621.23   17.38
  -3 -16  -4    8.83   10.96
   3  16   4    8.27   12.15
  -3 -17   0  596.08   17.53
   3  17   1   92.03    9.40
  -3 -17  -1   80.66   10.29
   3  17   2   15.90    9.03
  -3 -17  -2   20.99   11.62
   3  17   3    2.41   11.03
  -3 -17  -3    3.34   11.30
  -3 -18   0   84.81   10.13
   3  18   1  365.17   12.22
  -3 -18  -1  318.48   14.42
  -3 -18  -2  158.94   12.23
   3  18   2  180.64   10.71
   3  18   3   23.93   12.40
  -3 -18  -3   28.81   13.21
  -3 -19   0   47.73   11.81
  -3 -19  -1    2.57   11.20
   3  19   1   10.24   10.73
   3  19   2   54.21   10.56
  -3 -19  -2   39.07   11.79
  -3 -19  -3    7.16   12.82
   3  19   3    5.24   11.78
  -3 -20   0   12.22   10.91
  -3 -20  -1  187.72   12.63
  -3 -20  -2   86.89   11.85
   3  20   2   99.47   10.97
  -3 -21   0  644.44   18.25
  -3 -21  -1   32.85   13.31
  -3 -22   0    6.74   13.46
   4 -19   1  362.02   16.98
   4 -19   1  361.87   14.93
   4 -18   1   66.42   11.25
   4 -18   1   53.90   10.45
   4 -17   1   16.10    9.73
   4 -17   2  123.17   11.42
   4 -16   1   20.36    7.57
   4 -16   2  394.42   14.82
   4 -15   1  262.63   11.26
   4 -15   2   14.62    7.95
   4 -15   3   96.48   12.26
   4 -14   1   22.11    6.67
   4 -14   2   -2.20    9.21
   4 -14   3    8.65   10.63
   4 -13   1  469.31   15.11
   4 -13   2   51.42    9.62
   4 -13   3    6.59    8.02
   4 -12   1  234.34   11.12
   4 -12   2  381.55   13.69
   4 -12   3   -2.38    7.67
   4 -12   4   21.95    9.20
   4 -11   1  466.43   13.70
   4 -11   2   77.07    9.02
   4 -11   3   60.43    7.91
   4 -11   4   60.09    9.04
   4 -10   1   22.04    7.62
   4 -10   2   47.78    9.05
   4 -10   3  108.10    9.68
   4 -10   4  614.15   17.33
   4  -9   1  795.44   19.69
   4  -9   2  103.17    9.03
   4  -9   3  237.64   12.62
   4  -9   4   18.42   11.39
   4  -8   1   76.53    7.71
   4  -8   2  375.43   12.80
   4  -8   3  459.88   14.43
   4  -8   4   88.69    8.30
   4  -7   1    7.81    7.10
   4  -7   2    0.01    7.72
   4  -7   3  385.73   10.80
   4  -7   4   11.75   10.94
   4  -6   1  315.96   12.33
   4  -6   2  264.88   10.41
   4  -6   3  184.84    9.55
   4  -6   4    1.66   10.26
   4  -6   5   65.63   12.71
   4  -5   1  522.29   21.54
   4  -5   2   23.80    7.68
   4  -5   3  172.52    9.89
   4  -5   4   78.58    9.78
   4  -5   5   15.91   11.39
   4  -4   1  165.66    8.20
   4  -4   2  100.01    6.13
   4  -4   3    6.46    6.24
   4  -4   4  259.84   11.79
   4  -4   5    9.82    8.87
   4  -3   1   47.66    5.36
   4  -3   2    5.04    7.51
   4  -3   3  417.25   13.83
   4  -3   4    0.00    9.54
   4  -3   5  110.92   11.09
   4  -2   1   35.65    7.06
   4  -2   2 1240.89   34.08
   4  -2   3  159.32    9.26
   4  -2   4    8.31    9.98
   4  -2   5   32.10   11.01
   4  -1   1  142.24    7.90
   4  -1   2  108.44    8.33
   4  -1   3  690.85   21.14
   4  -1   4   37.38    9.44
   4  -1   5    5.42    8.76
   4   0   0   60.89    6.82
   4   0   1    2.19    6.90
   4   0   2  102.47    8.42
   4   0   3    1.22    8.21
   4   0   4  774.75   17.38
   4   0   5   -2.13   10.41
   4   1   0  101.55    7.16
   4   1   1  136.12    7.96
   4   1   2  105.50    7.78
   4   1   3  702.10   15.72
   4   1   4   37.12    7.52
   4   1   5    7.54   11.75
   4   2   0  200.83    8.86
   4   2   1   38.09    6.84
   4   2   2 1270.00   30.04
   4   2   3  150.52    9.49
   4   2   4   15.69    9.72
   4   2   5   40.05   11.29
   4   3   0  161.38    8.76
   4   3   1   48.77    7.32
   4   3   2    3.22    7.81
   4   3   3  422.02   12.13
   4   3   4    6.27   10.24
   4   3   5  127.80   13.19
   4   4   0  666.68   14.31
   4   4   1  177.87    8.73
   4   4   2  103.10    8.16
  -4  -4  -3    6.67    6.19
   4   4   3   11.10    6.35
  -4  -4  -4  248.56   11.40
   4   4   4  265.56   11.77
   4   4   5   13.67   11.24
   4   5   0  316.40   10.89
   4   5   1  480.33   12.53
   4   5   2   21.48    7.44
  -4  -5  -2   19.41    7.83
   4   5   3  164.75    9.70
  -4  -5  -3  156.87    7.81
   4   5   4   75.34   10.63
  -4  -5  -4   71.62    9.41
   4   5   5   15.85   13.11
  -4  -5  -5   16.53   11.72
   4   6   0  964.83   20.94
   4   6   1  308.05   10.08
   4   6   2  250.37    9.53
  -4  -6  -2  262.18   10.87
   4   6   3  199.03    8.04
  -4  -6  -3  175.04    7.84
  -4  -6  -4    2.55    7.34
   4   6   4    8.97   10.49
   4   6   5   60.56   11.93
  -4  -6  -5   63.09    9.80
   4   7   0    4.25    8.52
   4   7   1    5.76    7.56
  -4  -7  -1    3.66    7.18
  -4  -7  -2    3.09    7.90
   4   7   2    1.99    8.27
  -4  -7  -3  365.84   12.29
   4   7   3  416.63   12.47
   4   7   4    6.90   10.95
  -4  -7  -4    3.06   10.22
   4   8   0  309.25   11.74
   4   8   1   77.88    8.82
  -4  -8  -1   69.25    8.79
   4   8   2  357.75   11.12
  -4  -8  -2  340.14   11.47
   4   8   3  442.83   13.06
  -4  -8  -3  436.46   13.58
   4   8   4  100.85   11.34
  -4  -8  -4   88.23   10.89
   4   9   0  513.16   13.89
   4   9   1  787.13   16.86
  -4  -9  -1  756.35   18.13
   4   9   2  108.01    9.11
  -4  -9  -2  103.07    9.46
   4   9   3  219.58   10.13
  -4  -9  -3  209.64   11.08
   4   9   4   25.43   10.66
  -4  -9  -4   18.98   11.39
   4  10   0  251.23   11.29
  -4 -10   0  238.60   11.83
   4  10   1   11.74    9.07
  -4 -10  -1   12.96    8.26
   4  10   2   39.63    8.82
  -4 -10  -2   32.01    9.02
   4  10   3  117.60   10.23
  -4 -10  -3   97.59    9.88
   4  10   4  619.38   15.50
  -4 -10  -4  555.58   16.13
   4  11   0   37.02    8.31
  -4 -11   0   32.99    8.48
   4  11   1  473.49   13.83
  -4 -11  -1  420.62   14.37
   4  11   2   82.42    9.07
  -4 -11  -2   69.61    9.72
   4  11   3   68.57   10.27
  -4 -11  -3   70.47   10.75
   4  11   4   70.57   12.27
  -4 -11  -4   64.26   12.49
   4  12   0  418.43   13.78
  -4 -12   0  408.14   19.20
   4  12   1  249.99   11.82
  -4 -12  -1  219.81   11.52
   4  12   2  396.06   13.07
  -4 -12  -2  377.72   17.79
   4  12   3   -2.32    9.84
  -4 -12  -3    0.67   10.09
   4  12   4   14.12   11.67
   4  13   0  229.31   12.05
  -4 -13   0  199.90   11.65
  -4 -13  -1  425.24   17.39
   4  13   1  474.50   18.83
   4  13   2   74.59   10.36
  -4 -13  -2   52.42   10.17
   4  13   3    1.86   11.66
  -4 -13  -3   -1.76   10.64
   4  14   0  268.33   12.62
  -4 -14   0  249.52   15.41
   4  14   1   18.70    9.45
  -4 -14  -1   18.43    9.79
  -4 -14  -2   -1.24   10.67
   4  14   2    4.00   10.79
   4  14   3    8.94   11.55
  -4 -14  -3   -0.07   11.57
   4  15   0   56.45   11.40
  -4 -15   0   45.87   10.99
   4  15   1  273.81   13.76
  -4 -15  -1  215.53   13.28
   4  15   2   17.02    9.35
  -4 -15  -2   18.96   11.06
  -4 -15  -3   89.83   12.68
   4  15   3   94.56   13.07
  -4 -16   0  281.29   14.41
   4  16   0  350.73   14.27
  -4 -16  -1   16.50   10.77
   4  16   1   21.58   10.19
   4  16   2  457.49   19.11
  -4 -16  -2  358.95   14.89
  -4 -17   0   89.18   12.70
   4  17   1   25.80   11.75
  -4 -17  -1   15.14   12.70
   4  17   2  127.04   12.89
  -4 -17  -2  103.77   12.84
  -4 -18   0   42.24   13.28
   4  18   1   77.03   13.50
  -4 -18  -1   54.51   13.82
  -4 -19   0    8.35   13.64
  -4 -19  -1  296.14   16.89
   4  19   1  389.85   17.22
  -4 -20   0  121.43   15.49
   5 -14   1  103.44   11.70
   5 -13   1   75.43   11.76
   5 -12   1  119.22   10.82
   5 -12   2   18.34   12.01
   5 -11   1   58.92   10.44
   5 -11   2  243.45   13.30
   5 -10   1  149.21   10.91
   5 -10   2   86.78   11.36
   5  -9   1    1.34    7.42
   5  -9   2  176.12    9.23
   5  -8   1   48.82    9.70
   5  -8   2   52.41   10.33
   5  -8   3  220.53   12.49
   5  -7   1  151.85    9.75
   5  -7   2  206.09   11.09
   5  -7   3   49.02   11.91
   5  -6   1   13.79    8.44
   5  -6   2   82.41    7.88
   5  -6   3  157.41   12.90
   5  -5   1  112.36    9.29
   5  -5   2   40.39    7.41
   5  -5   3   20.10   10.55
   5  -4   1  344.76   14.29
   5  -4   2   15.94    9.36
   5  -4   3  276.81   12.82
   5  -3   1  300.84   10.85
   5  -3   2  177.90   11.45
   5  -3   3    3.70   11.43
   5  -2   1  260.94   10.61
   5  -2   2   43.29    9.09
   5  -2   3    4.39   11.25
   5  -1   1    4.92    8.40
   5  -1   2  322.28   12.29
   5  -1   3   22.07   10.28
   5   0   0   -1.62    7.73
   5   0   1  252.62   10.84
   5   0   2    7.15    9.68
   5   0   3  287.87   12.49
   5   1   0  329.64   11.94
   5   1   1    1.44    8.11
   5   1   2  325.46   12.30
   5   1   3   17.56   11.25
   5   2   0   -0.71    8.40
   5   2   1  298.35   10.72
   5   2   2   32.56    9.11
   5   2   3    0.49   10.22
   5   3   0  220.82    9.89
   5   3   1  307.94   10.72
   5   3   2  181.72   11.76
   5   3   3    1.99   10.45
   5   4   0  216.58   10.29
   5   4   1  307.86   11.47
   5   4   2   20.18    9.39
   5   4   3  288.21   13.75
   5   5   0 1010.55   21.92
   5   5   1  119.61    9.26
   5   5   2   36.66    9.15
   5   5   3   23.70   11.67
   5   6   0    6.93    8.43
   5   6   1   14.42    9.46
   5   6   2   94.60    9.81
   5   6   3  184.95   12.56
   5   7   0    6.93    9.96
   5   7   1  147.32   10.35
   5   7   2  222.07   11.52
   5   7   3   43.10   11.52
   5   8   0  205.60   10.76
   5   8   1   49.46    9.66
   5   8   2   54.40   10.07
   5   8   3  253.14   13.46
   5   9   0  909.68   23.01
   5   9   1    0.85    9.74
   5   9   2  191.74   13.59
   5  10   0   -0.21   11.45
   5  10   1  156.21   11.13
   5  10   2   75.75   11.69
   5  11   0  100.01   12.47
   5  11   1   63.69   11.36
   5  11   2  249.73   13.15
   5  12   0   31.16   12.12
   5  12   1  129.32   13.20
   5  12   2   11.05   13.87
   5  13   0   32.01   13.84
   5  13   1   74.26   12.67
   5  14   0   59.13   14.85
   5  14   1  104.07   12.74
   5  15   0  121.63   15.88
   6  -6   1   29.92   11.29
   6  -5   1   25.13   11.43
   6  -4   1   32.29   12.17
   6  -3   1  219.87   12.61
   6  -2   1   23.19   11.66
   6  -1   1  113.32   12.46
   6   0   0 1179.50   25.80
   6   0   1    2.74   12.05
   6   1   0   44.84   11.30
   6   1   1  103.62   12.01
   6   2   0  112.86   11.44
   6   2   1   19.02   11.23
   6   3   0   60.05   13.06
   6   3   1  213.22   13.86
   6   4   0  422.18   15.58
   6   4   1   27.78   13.11
   6   5   0    9.05   13.51
   6   5   1   22.66   13.42
   6   6   0  133.69   13.01
   6   6   1   34.57   13.97
   6   7   0   11.81   11.82
   6   8   0  132.70   14.59
   6   9   0   94.28   15.93
   6  10   0  248.38   16.50
   0   0   0    0.00    0.00
_computing_structure_solution     'SHELXT 2014/5 (Sheldrick, 2014)'
;
_shelx_hkl_checksum              79986
_shelx_res_file
;
TITL nmt76_a.ins in P2(1)/n
    shelx.res
    created by SHELXL-2018/3 at 13:42:11 on 01-Aug-2019
CELL  0.71073   5.0481  18.6331   6.7533   90.000  109.517   90.000
ZERR     2.00   0.0004   0.0020   0.0006    0.000    0.007    0.000
LATT   1
SYMM  1/2 - X, 1/2 + Y, 1/2 - Z
SFAC  C    H    CO   N    O    S
UNIT  16 16 2 4 12 4
MERG   2
MORE -1
EQIV $2 x+1/2, -y+3/2, z-1/2
HTAB C2 S1_$2
HTAB C2 O2_$2
EQIV $3 x+1, y, z
HTAB C1 O3_$3
EQIV $4 x, y, z-1
HTAB O3 O2_$4
EQIV $5 -x, -y+1, -z+1
HTAB O3 O1_$5
HTAB C2 S1_$2
HTAB C2 O2_$2
HTAB C1 O3_$3
HTAB O3 O2_$4
HTAB O3 O1_$5
FMAP   2
PLAN   20
SIZE     0.170   0.170   0.500
ACTA    52.00
BOND   $H
CONF
LIST   6
L.S.  10
TEMP  -123.00
WGHT    0.034400
FVAR       0.91781
CO1   3    0.500000    0.500000    0.500000    10.50000    0.01306    0.01334 =
         0.01342   -0.00072    0.00703   -0.00155
S1    6    0.687563    0.713022    0.820507    11.00000    0.02500    0.01638 =
         0.02084   -0.00464    0.01505   -0.00498
O1    5    0.326977    0.522781    0.739023    11.00000    0.01600    0.01575 =
         0.01787   -0.00040    0.00926   -0.00206
O3    5    0.151562    0.548619    0.274452    11.00000    0.01548    0.02230 =
         0.01575    0.00238    0.00753   -0.00214
O2    5    0.332415    0.608820    0.976254    11.00000    0.02332    0.01836 =
         0.01850    0.00052    0.01358    0.00009
N1    4    0.662364    0.604378    0.587076    11.00000    0.01309    0.01516 =
         0.01444   -0.00003    0.00644   -0.00125
C4    1    0.398757    0.583254    0.829669    11.00000    0.01177    0.01574 =
         0.01360    0.00274    0.00451    0.00161
C3    1    0.581456    0.627846    0.741231    11.00000    0.01379    0.01411 =
         0.01388   -0.00022    0.00583   -0.00106
C2    1    0.848078    0.718263    0.635182    11.00000    0.02130    0.01781 =
         0.02217   -0.00081    0.01355   -0.00407
AFIX  44
H2    2    0.945864    0.758758    0.612136    11.00000   -1.20000
AFIX   0
C1    1    0.815089    0.655705    0.525175    11.00000    0.01699    0.01692 =
         0.01615    0.00119    0.00955   -0.00095
AFIX  44
H1    2    0.890230    0.648177    0.416139    11.00000   -1.20000
AFIX   0
H3A   2    0.187781    0.561796    0.179277    11.00000    0.03300
H3B   2   -0.007598    0.527897    0.239645    11.00000    0.03794
HKLF 4
REM  nmt76_a.ins in P2(1)/n
REM wR2 = 0.0537, GooF = S = 0.965, Restrained GooF = 0.965 for all data
REM R1 = 0.0215 for 1382 Fo > 4sig(Fo) and 0.0263 for all 1606 data
REM 98 parameters refined using 0 restraints
END
WGHT      0.0344      0.0000
REM Highest difference peak  0.364,  deepest hole -0.280,  1-sigma level  0.066
Q1    1   0.6140  0.6665  0.7881  11.00000  0.05    0.36
Q2    1   0.6651  0.5017  0.4996  11.00000  0.05    0.34
Q3    1   0.8161  0.7163  0.7595  11.00000  0.05    0.33
Q4    1   0.5057  0.6064  0.8002  11.00000  0.05    0.33
Q5    1   0.7215  0.6328  0.5556  11.00000  0.05    0.32
Q6    1   0.8425  0.6861  0.5800  11.00000  0.05    0.32
Q7    1   0.3589  0.5504  0.7819  11.00000  0.05    0.31
Q8    1   0.4841  0.5356  0.4398  11.00000  0.05    0.25
Q9    1   0.6189  0.5694  0.5452  11.00000  0.05    0.24
Q10   1   0.3738  0.5881  0.9254  11.00000  0.05    0.24
Q11   1   0.3258  0.4998  0.7853  11.00000  0.05    0.23
Q12   1   0.4641  0.6209  0.9570  11.00000  0.05    0.21
Q13   1   0.4407  0.5948  1.0544  11.00000  0.05    0.21
Q14   1   0.6414  0.6075  0.6635  11.00000  0.05    0.20
Q15   1   0.8352  0.7424  0.6001  11.00000  0.05    0.20
Q16   1   0.5025  0.5521  0.5206  11.00000  0.05    0.19
Q17   1   0.2661  0.5810  1.0217  11.00000  0.05    0.19
Q18   1   0.5947  0.6069  0.5832  11.00000  0.05    0.19
Q19   1   0.1706  0.5214  0.7154  11.00000  0.05    0.19
Q20   1   1.1600  0.6986  0.7464  11.00000  0.05    0.18
;
_shelx_res_checksum              49196
loop_
_space_group_symop_operation_xyz
'x, y, z'
'-x+1/2, y+1/2, -z+1/2'
'-x, -y, -z'
'x-1/2, -y-1/2, z-1/2'
loop_
_atom_site_type_symbol
_atom_site_label
_atom_site_fract_x
_atom_site_fract_y
_atom_site_fract_z
_atom_site_U_iso_or_equiv
_atom_site_adp_type
_atom_site_calc_flag
_atom_site_occupancy
Co Co1 0.500000 0.500000 0.500000 0.01262(8) Uani d 1
S S1 0.68756(8) 0.71302(2) 0.82051(5) 0.01889(9) Uani d 1
O O1 0.3270(2) 0.52278(5) 0.73902(14) 0.0156(2) Uani d 1
O O3 0.1516(2) 0.54862(6) 0.27445(14) 0.0173(2) Uani d 1
O O2 0.3324(2) 0.60882(6) 0.97625(14) 0.0184(2) Uani d 1
N N1 0.6624(2) 0.60438(6) 0.58708(15) 0.0138(2) Uani d 1
C C4 0.3988(3) 0.58325(7) 0.82967(18) 0.0136(3) Uani d 1
C C3 0.5815(3) 0.62785(7) 0.74123(18) 0.0136(2) Uani d 1
C C2 0.8481(3) 0.71826(8) 0.6352(2) 0.0189(3) Uani d 1
H H2 0.946(2) 0.7588(9) 0.6121(5) 0.023 Uiso calc 1
C C1 0.8151(3) 0.65571(7) 0.52517(19) 0.0157(3) Uani d 1
H H1 0.8902(14) 0.64818(16) 0.416(2) 0.019 Uiso calc 1
H H3A 0.188(5) 0.5618(11) 0.179(3) 0.033(5) Uiso d 1
H H3B -0.008(5) 0.5279(13) 0.240(3) 0.038(6) Uiso d 1
loop_
_atom_site_aniso_label
_atom_site_aniso_U_11
_atom_site_aniso_U_22
_atom_site_aniso_U_33
_atom_site_aniso_U_12
_atom_site_aniso_U_13
_atom_site_aniso_U_23
Co1 0.01306(13) 0.01334(13) 0.01342(12) -0.00155(10) 0.00703(9) -0.00072(8)
S1 0.02500(19) 0.01638(16) 0.02084(16) -0.00498(14) 0.01505(13) -0.00464(11)
O1 0.0160(5) 0.0157(4) 0.0179(4) -0.0021(4) 0.0093(4) -0.0004(3)
O3 0.0155(5) 0.0223(5) 0.0157(4) -0.0021(4) 0.0075(4) 0.0024(4)
O2 0.0233(5) 0.0184(5) 0.0185(4) 0.0001(4) 0.0136(4) 0.0005(4)
N1 0.0131(5) 0.0152(5) 0.0144(5) -0.0012(4) 0.0064(4) 0.0000(4)
C4 0.0118(6) 0.0157(6) 0.0136(5) 0.0016(5) 0.0045(4) 0.0027(4)
C3 0.0138(6) 0.0141(6) 0.0139(5) -0.0011(5) 0.0058(4) -0.0002(4)
C2 0.0213(7) 0.0178(7) 0.0222(6) -0.0041(6) 0.0135(5) -0.0008(5)
C1 0.0170(6) 0.0169(6) 0.0161(5) -0.0009(5) 0.0095(5) 0.0012(5)
loop_
_atom_type_symbol
_atom_type_description
_atom_type_scat_dispersion_real
_atom_type_scat_dispersion_imag
_atom_type_scat_source
C C 0.0033 0.0016 'International Tables Vol C Tables 4.2.6.8 and 6.1.1.4'
H H 0.0000 0.0000 'International Tables Vol C Tables 4.2.6.8 and 6.1.1.4'
Co Co 0.3494 0.9721 'International Tables Vol C Tables 4.2.6.8 and 6.1.1.4'
N N 0.0061 0.0033 'International Tables Vol C Tables 4.2.6.8 and 6.1.1.4'
O O 0.0106 0.0060 'International Tables Vol C Tables 4.2.6.8 and 6.1.1.4'
S S 0.1246 0.1234 'International Tables Vol C Tables 4.2.6.8 and 6.1.1.4'
loop_
_geom_angle_atom_site_label_1
_geom_angle_atom_site_label_2
_geom_angle_atom_site_label_3
_geom_angle_site_symmetry_1
_geom_angle_site_symmetry_3
_geom_angle
O3 Co1 O3 . 3_666 180.0
O3 Co1 N1 . 3_666 92.40(4)
O3 Co1 N1 3_666 3_666 87.59(4)
O3 Co1 N1 . . 87.60(4)
O3 Co1 N1 3_666 . 92.41(4)
N1 Co1 N1 3_666 . 180.00(6)
O3 Co1 O1 . 3_666 89.57(4)
O3 Co1 O1 3_666 3_666 90.43(4)
N1 Co1 O1 3_666 3_666 79.87(4)
N1 Co1 O1 . 3_666 100.13(4)
O3 Co1 O1 . . 90.43(4)
O3 Co1 O1 3_666 . 89.57(4)
N1 Co1 O1 3_666 . 100.13(4)
N1 Co1 O1 . . 79.87(4)
O1 Co1 O1 3_666 . 180.00(4)
C3 S1 C2 . . 89.96(7)
C4 O1 Co1 . . 114.78(9)
Co1 O3 H3A . . 111.7(16)
Co1 O3 H3B . . 119.2(15)
H3A O3 H3B . . 112(2)
C3 N1 C1 . . 111.28(11)
C3 N1 Co1 . . 109.39(9)
C1 N1 Co1 . . 139.25(9)
O2 C4 O1 . . 127.78(13)
O2 C4 C3 . . 117.97(12)
O1 C4 C3 . . 114.24(11)
N1 C3 C4 . . 121.64(12)
N1 C3 S1 . . 114.26(10)
C4 C3 S1 . . 124.03(10)
C1 C2 S1 . . 110.47(11)
C1 C2 H2 . . 124.8
S1 C2 H2 . . 124.8
C2 C1 N1 . . 114.03(12)
C2 C1 H1 . . 123.0
N1 C1 H1 . . 123.0
loop_
_geom_bond_atom_site_label_1
_geom_bond_atom_site_label_2
_geom_bond_site_symmetry_2
_geom_bond_distance
Co1 O3 . 2.1082(10)
Co1 O3 3_666 2.1082(10)
Co1 N1 3_666 2.1161(12)
Co1 N1 . 2.1162(12)
Co1 O1 3_666 2.1191(10)
Co1 O1 . 2.1191(10)
S1 C3 . 1.7032(14)
S1 C2 . 1.7059(15)
O1 C4 . 1.2757(16)
O3 H3A . 0.77(2)
O3 H3B . 0.85(3)
O2 C4 . 1.2412(16)
N1 C3 . 1.3138(17)
N1 C1 . 1.3781(18)
C4 C3 . 1.5052(19)
C2 C1 . 1.3622(19)
C2 H2 . 0.94(2)
C1 H1 . 0.945(17)
loop_
_geom_hbond_atom_site_label_D
_geom_hbond_atom_site_label_H
_geom_hbond_atom_site_label_A
_geom_hbond_site_symmetry_A
_geom_hbond_distance_DH
_geom_hbond_distance_HA
_geom_hbond_distance_DA
_geom_hbond_angle_DHA
_geom_hbond_publ_flag
C2 H2 S1 4_675 0.94 2.69 3.3950(15) 131.9 yes
C2 H2 O2 4_675 0.94 2.63 3.3886(18) 138.1 yes
C1 H1 O3 1_655 0.94 2.63 3.4140(18) 140.2 yes
O3 H3A O2 1_554 0.77(2) 1.96(2) 2.7158(14) 168(2) yes
O3 H3B O1 3_566 0.85(3) 1.91(3) 2.7326(15) 161(2) yes
loop_
_geom_torsion_atom_site_label_1
_geom_torsion_atom_site_label_2
_geom_torsion_atom_site_label_3
_geom_torsion_atom_site_label_4
_geom_torsion
Co1 O1 C4 O2 -178.41(11)
Co1 O1 C4 C3 2.76(13)
C1 N1 C3 C4 176.82(11)
Co1 N1 C3 C4 -0.53(15)
C1 N1 C3 S1 -0.37(15)
Co1 N1 C3 S1 -177.73(6)
O2 C4 C3 N1 179.51(12)
O1 C4 C3 N1 -1.54(18)
O2 C4 C3 S1 -3.58(17)
O1 C4 C3 S1 175.38(9)
C2 S1 C3 N1 0.48(11)
C2 S1 C3 C4 -176.63(11)
C3 S1 C2 C1 -0.45(11)
S1 C2 C1 N1 0.35(16)
C3 N1 C1 C2 0.01(17)
Co1 N1 C1 C2 176.18(10)

_cod_database_fobs_code 2021754
