#------------------------------------------------------------------------------
#$Date: 2019-08-29 07:13:12 +0300 (Thu, 29 Aug 2019) $
#$Revision: 217821 $
#$URL: file:///home/coder/svn-repositories/cod/cif/2/02/17/2021756.cif $
#------------------------------------------------------------------------------
#
# This file is available in the Crystallography Open Database (COD),
# http://www.crystallography.net/. The original data for this entry
# were provided by IUCr Journals, http://journals.iucr.org/.
#
# The file may be used within the scientific community so long as
# proper attribution is given to the journal article from which the
# data were obtained.
#
data_2021756
loop_
_publ_author_name
'Meundaeng, Natthaya'
'Prior, Timothy John'
'Rujiwatra, Apinpus'
_publ_section_title
;
 Crystal structures and Hirshfeld surface analysis of transition-metal
 complexes of 1,3-azolecarboxylic acids
;
_journal_coeditor_code           FN3320
_journal_issue                   9
_journal_name_full               'Acta Crystallographica Section C'
_journal_page_first
;
;
_journal_paper_doi               10.1107/S2053229619011525
_journal_volume                  75
_journal_year                    2019
_chemical_formula_iupac          '[Cd (C4 H2 NO2 S)2 (H2 O)2]'
_chemical_formula_moiety         'C8 H8 Cd N2 O6 S2'
_chemical_formula_sum            'C8 H8 Cd N2 O6 S2'
_chemical_formula_weight         404.68
_chemical_name_systematic
;
Diaquabis(thiazole-2-carboxylato-\k^2^<i>N</i>,<i>O</i>)cadmium(II)
;
_space_group_crystal_system      monoclinic
_space_group_IT_number           14
_space_group_name_Hall           '-P 2yn'
_space_group_name_H-M_alt        'P 1 21/n 1'
_symmetry_space_group_name_Hall  '-P 2yn'
_symmetry_space_group_name_H-M   'P 1 21/n 1'
_atom_sites_solution_hydrogens   difmap
_audit_creation_method           SHELXL-2018/3
_cell_angle_alpha                90
_cell_angle_beta                 109.281(7)
_cell_angle_gamma                90
_cell_formula_units_Z            2
_cell_length_a                   5.0198(5)
_cell_length_b                   19.052(2)
_cell_length_c                   6.8982(7)
_cell_measurement_reflns_used    5602
_cell_measurement_temperature    150(2)
_cell_measurement_theta_max      29.6
_cell_measurement_theta_min      2.15
_cell_volume                     622.72(11)
_computing_cell_refinement
;
X-AREA (Stoe & Cie, 2016)
;
_computing_data_collection
;
X-AREA (Stoe & Cie, 2016)
;
_computing_data_reduction
;
SORTAV (Blessing, 1987, 1989)
;
_computing_structure_refinement
;
SHELXL2018 (Sheldrick, 2015b)
;
_computing_structure_solution
;
SHELXT2014 (Sheldrick, 2015a)
;
_diffrn_ambient_temperature      150(2)
_diffrn_detector_area_resol_mean 6.67
_diffrn_measured_fraction_theta_full 0.998
_diffrn_measured_fraction_theta_max 0.996
_diffrn_measurement_device_type  'Stoe IPDS2'
_diffrn_measurement_method       '\w scans'
_diffrn_radiation_type           MoK\a
_diffrn_radiation_wavelength     0.71073
_diffrn_reflns_av_R_equivalents  0.0319
_diffrn_reflns_av_unetI/netI     0.0255
_diffrn_reflns_limit_h_max       5
_diffrn_reflns_limit_h_min       -6
_diffrn_reflns_limit_k_max       22
_diffrn_reflns_limit_k_min       -25
_diffrn_reflns_limit_l_max       9
_diffrn_reflns_limit_l_min       -9
_diffrn_reflns_number            4992
_diffrn_reflns_theta_full        25.242
_diffrn_reflns_theta_max         29.152
_diffrn_reflns_theta_min         2.138
_diffrn_source                   'fine-focus sealed tube'
_exptl_absorpt_coefficient_mu    2.112
_exptl_absorpt_correction_T_max  0.914
_exptl_absorpt_correction_T_min  0.850
_exptl_absorpt_correction_type   multi-scan
_exptl_absorpt_process_details
;
(SORTAV; Blessing, 1995)
;
_exptl_crystal_colour            colourless
_exptl_crystal_density_diffrn    2.158
_exptl_crystal_description       block
_exptl_crystal_F_000             396
_exptl_crystal_size_max          0.400
_exptl_crystal_size_mid          0.270
_exptl_crystal_size_min          0.080
_refine_diff_density_max         0.885
_refine_diff_density_min         -0.837
_refine_ls_extinction_method     none
_refine_ls_goodness_of_fit_ref   0.998
_refine_ls_hydrogen_treatment    refall
_refine_ls_matrix_type           full
_refine_ls_number_parameters     98
_refine_ls_number_reflns         1673
_refine_ls_number_restraints     0
_refine_ls_restrained_S_all      0.998
_refine_ls_R_factor_all          0.0225
_refine_ls_R_factor_gt           0.0191
_refine_ls_shift/su_max          0.001
_refine_ls_shift/su_mean         0.000
_refine_ls_structure_factor_coef Fsqd
_refine_ls_weighting_details
'w=1/[\s^2^(Fo^2^)+(0.0313P)^2^] where P=(Fo^2^+2Fc^2^)/3'
_refine_ls_weighting_scheme      calc
_refine_ls_wR_factor_gt          0.0462
_refine_ls_wR_factor_ref         0.0469
_reflns_number_gt                1458
_reflns_number_total             1673
_reflns_threshold_expression     'I > 2\s(I)'
_cod_data_source_file            fn3320sup1.cif
_cod_data_source_block           Cd-2tza
_cod_original_cell_volume        622.71(11)
_cod_database_code               2021756
_shelx_space_group_comment
;
The symmetry employed for this shelxl refinement is uniquely defined
by the following loop, which should always be used as a source of
symmetry information in preference to the above space-group names.
They are only intended as comments.
;
_shelx_estimated_absorpt_t_min   0.485
_shelx_estimated_absorpt_t_max   0.849
_shelx_hkl_file
;
  -6 -12   2  483.63   12.53
  -6 -12   2  488.95   13.89
  -6 -12   3   -5.14   12.73
  -6 -12   3    8.61    8.09
  -6 -12   4  302.29   12.48
  -6 -11   1  203.98   10.94
  -6 -11   1  212.65   13.34
  -6 -11   2    2.01   10.92
  -6 -11   2    1.25    7.71
  -6 -11   3  192.80   11.03
  -6 -11   3  211.80   12.05
  -6 -11   4   20.36    8.04
  -6 -10   1   72.48   10.77
  -6 -10   1   77.63   11.14
  -6 -10   2  149.18   10.19
  -6 -10   2  149.97   12.15
  -6 -10   3   -1.10    7.37
  -6 -10   3   -2.03    8.71
  -6 -10   4  528.21   12.01
  -6 -10   5   29.14   10.74
  -6  -9   1  386.04   11.84
  -6  -9   1  401.76   12.96
  -6  -9   2   22.28    9.92
  -6  -9   2   14.02   11.27
  -6  -9   3  396.74   10.04
  -6  -9   3  447.28   12.19
  -6  -9   4   -1.53   10.10
  -6  -9   5    0.37   10.45
  -6  -8   1   13.92    9.23
  -6  -8   1    7.71   10.38
  -6  -8   2  544.36   11.24
  -6  -8   2  601.45   15.65
  -6  -8   3   28.30    9.61
  -6  -8   4  240.35   11.09
  -6  -8   5   14.45   10.25
  -6  -8   6  336.51   12.34
  -6  -7   1   47.48    9.94
  -6  -7   1   48.02   11.23
  -6  -7   2   12.76   10.92
  -6  -7   2   16.02    8.61
  -6  -7   3  382.34   11.75
  -6  -7   4   40.65    9.79
  -6  -7   5  801.41   16.90
  -6  -7   6   16.59   10.73
  -6  -6   1  118.94    7.66
  -6  -6   1  115.55   11.06
  -6  -6   2  367.98   11.89
  -6  -6   2  421.95   13.27
  -6  -6   3  313.95   10.38
  -6  -6   4  384.83   11.95
  -6  -6   5    3.96    9.42
  -6  -6   6  276.34   11.96
  -6  -5   1  457.65   11.06
  -6  -5   1  537.44   14.69
  -6  -5   2   15.79    8.95
  -6  -5   2   13.48   10.44
  -6  -5   3  896.60   16.77
  -6  -5   4   47.41    9.32
  -6  -5   5  141.11   10.11
  -6  -5   6  128.16    8.37
  -6  -4   1   10.42    7.64
  -6  -4   1   16.14    9.18
  -6  -4   2   21.14    9.56
  -6  -4   2   20.67    8.40
  -6  -4   3    4.45    8.28
  -6  -4   4  628.69   14.36
  -6  -4   5   59.65    8.95
  -6  -4   6  445.04   11.33
  -6  -3   1  184.40   11.30
  -6  -3   1  190.35   10.34
  -6  -3   2    0.44    8.40
  -6  -3   2   -1.61    7.63
  -6  -3   3  319.71   10.81
  -6  -3   3  333.68   10.78
  -6  -3   4   31.53    9.09
  -6  -3   5  963.65   18.42
  -6  -3   6    1.90   10.34
  -6  -2   1   19.40    9.52
  -6  -2   1   37.64    8.26
  -6  -2   2  685.78   15.50
  -6  -2   2  683.87   15.88
  -6  -2   3   18.96    9.89
  -6  -2   3   12.77    9.03
  -6  -2   4  440.96   10.57
  -6  -2   5   34.39    9.60
  -6  -2   6  103.99    8.34
  -6  -1   1  802.52   22.29
  -6  -1   1  739.78   15.05
  -6  -1   2   21.91    7.11
  -6  -1   2   25.38    8.96
  -6  -1   3  276.02   10.29
  -6  -1   3  286.15   12.13
  -6  -1   4  185.80    9.97
  -6  -1   5  140.70    7.75
  -6  -1   6  215.47   11.53
  -6  -1   7  326.45   12.16
  -6   0   1    1.97    7.36
  -6   0   1    3.34    9.30
  -6   0   2  312.75   11.34
  -6   0   2  307.61   11.93
  -6   0   3    0.42    9.41
  -6   0   3    2.12    6.37
  -6   0   4  586.46   13.63
  -6   0   5    8.54    9.62
  -6   0   6  674.73   14.99
  -6   0   7    1.04   11.00
  -6   1   0   74.49   10.60
  -6   1   0   73.61    9.76
  -6   1   1  750.62   15.07
  -6   1   1  723.17   15.78
  -6   1   2   27.29    6.71
  -6   1   2   22.03    9.98
  -6   1   3  270.77   10.24
  -6   1   3  291.71   11.48
  -6   1   4  195.46   10.16
  -6   1   5  163.68    9.63
  -6   1   6  228.18   11.00
  -6   1   7  319.65   11.60
  -6   2   0  203.38   11.57
  -6   2   0  198.04   10.97
  -6   2   1   27.24    7.03
  -6   2   1   28.41    9.31
  -6   2   2  646.64   14.03
  -6   2   2  667.74   14.93
  -6   2   3   20.87   10.27
  -6   2   3   15.97    6.82
  -6   2   4  481.37   12.70
  -6   2   5   33.36    7.36
  -6   2   6  128.64   10.78
  -6   2   7   39.05    8.75
  -6   3   0   81.30   11.24
  -6   3   0   93.02   11.03
  -6   3   1  170.37   10.46
  -6   3   1  190.40   10.36
  -6   3   2   -1.32    8.42
  -6   3   2    5.93    7.21
  -6   3   3  363.11   12.78
  -6   3   3  345.80   11.42
  -6   3   4   27.57    8.57
  -6   3   5  952.34   16.64
  -6   3   6    5.07   10.25
  -6   4   0  468.53   12.21
  -6   4   0  472.19   15.05
  -6   4   1    7.83    8.93
  -6   4   1   12.37    7.49
  -6   4   2   16.41    9.71
  -6   4   2   22.15    9.11
  -6   4   3   -0.26    8.89
  -6   4   3   -0.06    9.86
  -6   4   4  636.35   14.78
  -6   4   5   53.53    9.23
  -6   4   6  471.12   12.75
  -6   5   0    2.32   10.06
  -6   5   0    4.58    9.87
  -6   5   1  481.85   14.04
  -6   5   1  507.21   13.72
  -6   5   2   19.97   10.72
  -6   5   2    9.91    8.47
  -6   5   3  963.35   17.80
  -6   5   3  987.91   20.63
  -6   5   4   47.15    8.60
  -6   5   5  146.77   10.39
  -6   5   6  136.58    8.60
  -6   6   0  373.12   13.65
  -6   6   0  402.45   12.63
  -6   6   1  119.29    9.68
  -6   6   1  130.55   11.32
  -6   6   2  374.76   11.28
  -6   6   2  404.88   12.75
  -6   6   3  343.95   11.80
  -6   6   3  335.29   12.41
  -6   6   4  430.30   15.21
  -6   6   4  387.71   11.44
  -6   6   5    0.46   10.25
  -6   6   6  263.99   11.84
  -6   7   0   33.69    9.91
  -6   7   0   52.06   10.35
  -6   7   1   60.71    7.78
  -6   7   1   58.02   11.31
  -6   7   2   19.94    9.76
  -6   7   2   20.45   10.26
  -6   7   3  410.95   14.24
  -6   7   3  413.42   12.29
  -6   7   4   49.03   10.55
  -6   7   4   50.08   10.07
  -6   7   5  857.20   16.52
  -6   7   6   19.20   10.23
  -6   8   0  378.22   13.73
  -6   8   0  370.73   14.39
  -6   8   1    9.53   11.29
  -6   8   1    5.29    9.58
  -6   8   2  653.55   15.32
  -6   8   2  600.07   17.05
  -6   8   3   31.57    9.90
  -6   8   3   23.45   10.21
  -6   8   4  268.36   11.35
  -6   8   4  272.75   13.17
  -6   8   5   19.82   10.05
  -6   8   6  360.95   12.77
  -6   9   0   35.27   11.30
  -6   9   0   38.30   12.02
  -6   9   1  432.57   13.48
  -6   9   1  431.75   14.73
  -6   9   2   20.59   11.09
  -6   9   2   25.23    9.50
  -6   9   3  472.79   15.41
  -6   9   3  439.66   13.65
  -6   9   4    6.24   11.15
  -6   9   4    5.98   10.63
  -6   9   5    4.29    9.59
  -6  10   0  314.06   13.26
  -6  10   1   76.44   11.74
  -6  10   1   84.95   11.05
  -6  10   2  161.39   11.94
  -6  10   2  162.17   13.49
  -6  10   3   -0.94   10.35
  -6  10   3    0.27   10.91
  -6  10   4  600.02   15.37
  -6  10   4  623.01   18.89
  -6  10   5   33.57   11.05
  -6  10   5   36.44   12.70
  -6  11   1  214.23   13.03
  -6  11   1  218.97   12.15
  -6  11   2    2.39   13.47
  -6  11   2   -2.18   10.99
  -6  11   3  207.45   13.20
  -6  11   3  204.53   13.55
  -6  11   4   21.95   12.43
  -6  11   4   23.47   11.03
  -6  12   2  485.22   16.35
  -6  12   2  482.49   18.17
  -6  12   3    6.54   13.99
  -6  12   3    4.74   11.39
  -6  12   4  321.79   15.67
  -6  12   4  350.01   17.23
  -5 -17   1  139.07   11.78
  -5 -17   1  130.10   10.30
  -5 -17   2  351.09   11.78
  -5 -17   2  342.71   12.29
  -5 -17   3    4.84    7.89
  -5 -17   4  335.64   11.87
  -5 -16   1  491.09   13.91
  -5 -16   1  539.96   14.18
  -5 -16   2   -1.85   11.71
  -5 -16   2   -0.24    9.01
  -5 -16   3  286.44   11.01
  -5 -16   4   41.39    9.40
  -5 -16   5  332.13    9.89
  -5 -15   1   54.35    9.83
  -5 -15   1   53.55   10.15
  -5 -15   2  620.76   13.35
  -5 -15   2  548.68   11.12
  -5 -15   3   48.54    8.54
  -5 -15   4  277.82   11.61
  -5 -15   5   28.71   10.58
  -5 -14   1  114.27   10.97
  -5 -14   1  119.55    9.03
  -5 -14   2    4.06   10.79
  -5 -14   2   10.37    8.48
  -5 -14   3 1048.15   19.30
  -5 -14   4    2.14    7.19
  -5 -14   5  427.45   10.25
  -5 -14   6   -5.65    8.30
  -5 -13   1    1.92    7.44
  -5 -13   1    5.92    6.69
  -5 -13   2  444.45   13.17
  -5 -13   2  458.49   11.75
  -5 -13   3   65.47    9.43
  -5 -13   4  415.79   13.06
  -5 -13   5  362.26   10.91
  -5 -13   6  404.11   11.27
  -5 -12   1  553.14   12.45
  -5 -12   1  637.29   14.57
  -5 -12   2   52.62   10.05
  -5 -12   2   43.69    6.45
  -5 -12   3   65.12    6.49
  -5 -12   4   26.71    8.32
  -5 -12   5  364.78   11.26
  -5 -12   6   74.93   10.55
  -5 -11   1  347.05   10.88
  -5 -11   1  349.07   11.85
  -5 -11   2  782.95   14.41
  -5 -11   2  837.24   16.41
  -5 -11   3    1.58    8.58
  -5 -11   4  632.44   12.61
  -5 -11   5    7.57    8.35
  -5 -11   6  121.45   10.68
  -5 -11   7   44.10   11.40
  -5 -10   1  466.07   10.37
  -5 -10   1  506.76   11.15
  -5 -10   2   79.17    6.26
  -5 -10   3  735.64   13.15
  -5 -10   4    1.04    8.31
  -5 -10   5  473.84   10.19
  -5 -10   6   42.17    9.98
  -5 -10   7  363.23   12.60
  -5  -9   1    1.30    6.83
  -5  -9   1    1.29    7.93
  -5  -9   2  484.27   12.29
  -5  -9   3    1.09    5.83
  -5  -9   4  109.48    8.63
  -5  -9   5   19.66    6.22
  -5  -9   6 1526.52   28.96
  -5  -9   7   13.07   10.63
  -5  -8   1  804.86   14.53
  -5  -8   1  784.11   13.11
  -5  -8   2  189.72    7.00
  -5  -8   3  294.95    9.40
  -5  -8   4   25.00    7.55
  -5  -8   5  706.36   12.43
  -5  -8   6    9.87    9.37
  -5  -8   7  444.91   12.67
   5   8  -7  410.51   15.31
  -5  -7   1    0.56    6.25
  -5  -7   1    6.06    7.77
  -5  -7   2 1169.59   22.19
  -5  -7   3   63.35    7.69
  -5  -7   4  500.64   10.58
  -5  -7   5    3.64    6.15
  -5  -7   6  165.38   10.17
   5   7  -7   24.09    7.60
  -5  -7   7   32.20    9.27
  -5  -6   1  710.66   12.84
  -5  -6   1  716.54   13.30
  -5  -6   2   64.59    7.87
  -5  -6   3  498.33   10.17
  -5  -6   4  146.22    6.39
  -5  -6   5  477.15    9.70
  -5  -6   6  206.06   10.07
   5   6  -7  338.19   11.10
  -5  -6   7  282.73    8.92
   5   6  -8   28.20   10.76
  -5  -6   8   29.44    8.45
  -5  -5   1    6.79    7.99
  -5  -5   1    8.92    7.41
  -5  -5   2  200.52    8.30
  -5  -5   3   15.85    5.45
  -5  -5   4  448.42    9.75
  -5  -5   5    6.83    5.93
  -5  -5   6 1269.06   23.23
  -5  -5   7   23.73    8.91
   5   5  -7   27.75    9.68
  -5  -5   8  261.55   12.25
   5   5  -8  284.99   11.53
  -5  -4   1  399.71    9.91
  -5  -4   1  393.21   11.11
  -5  -4   2  279.19    7.70
  -5  -4   3 1648.05   25.77
  -5  -4   4  143.95    8.17
  -5  -4   5  719.78   13.50
  -5  -4   6   30.99    8.15
   5   4  -7  127.50    7.52
  -5  -4   7  116.11    9.52
   5   4  -8  166.06    8.60
  -5  -4   8  143.90   10.30
  -5  -3   1   97.32    7.34
  -5  -3   1   92.46    6.39
  -5  -3   2  789.13   14.05
  -5  -3   3   74.18    7.25
  -5  -3   4 2079.15   33.55
  -5  -3   5  147.72    8.12
  -5  -3   6   72.55    8.90
  -5  -3   7   45.20    6.94
   5   3  -7   53.12    8.67
  -5  -3   8  714.63   14.04
   5   3  -8  758.28   15.11
  -5  -2   1 1447.29   25.83
  -5  -2   1 1325.66   19.09
  -5  -2   2   -0.72    5.46
  -5  -2   2    1.60    5.03
  -5  -2   3  169.71    7.97
  -5  -2   4  112.97    6.08
  -5  -2   5  777.34   12.75
  -5  -2   6   34.19    6.13
  -5  -2   7 1155.25   19.76
   5   2  -7 1168.32   17.47
   5   2  -8  121.76   10.09
  -5  -2   8  118.15    8.23
  -5  -1   1  204.98    6.66
  -5  -1   1  208.32    7.25
  -5  -1   2  288.97    9.87
  -5  -1   2  260.80    7.42
  -5  -1   3   48.28    6.98
  -5  -1   4  755.57   15.05
  -5  -1   5  285.70    9.34
  -5  -1   6  286.50    9.42
  -5  -1   7  107.58    9.95
   5   1  -7  122.18    9.27
  -5  -1   8  632.33   14.39
   5   1  -8  585.24   11.61
  -5   0   1  273.43    9.40
  -5   0   1  239.44    6.81
  -5   0   2   -5.36    6.93
  -5   0   2   -1.11    5.50
  -5   0   3  617.97   11.60
  -5   0   4   -0.10    5.66
  -5   0   5  650.11   12.74
  -5   0   6    0.78    8.49
  -5   0   7  152.82    7.29
   5   0  -7  153.52    8.62
   5   0  -8   -1.11    7.55
  -5   0   8    2.12   10.04
  -5   1   0  814.57   14.28
  -5   1   1  221.34    9.64
  -5   1   1  200.77    8.28
  -5   1   2  333.64   10.18
  -5   1   2  302.86   10.30
  -5   1   3   49.62    7.52
  -5   1   4  811.90   18.47
  -5   1   5  294.51    9.19
  -5   1   6  305.44   10.51
   5  -1  -7  109.47    8.59
  -5   1   7  107.31    7.41
   5  -1  -8  638.03   12.17
  -5   1   8  613.83   12.60
  -5   2   0    0.45    5.99
  -5   2   1 1427.32   22.92
  -5   2   1 1485.89   22.20
  -5   2   2    3.10    8.33
  -5   2   2    1.69    5.30
  -5   2   3  163.39    8.04
  -5   2   4  123.11    8.25
  -5   2   5  747.26   14.32
  -5   2   6   43.50    8.65
  -5   2   7 1119.27   17.58
   5  -2  -7 1110.62   16.85
  -5   2   8  116.62    8.94
   5  -2  -8  128.18    8.20
  -5   3   0  596.93   12.75
  -5   3   1  106.12    8.79
  -5   3   1   80.96    7.74
  -5   3   2  824.58   16.19
  -5   3   2  866.22   15.34
  -5   3   3   71.10    5.78
  -5   3   4 2009.66   33.62
  -5   3   5  145.69    6.93
  -5   3   6   58.91    8.82
   5  -3  -7   53.26    9.22
  -5   3   7   41.40    7.22
   5  -3  -8  657.36   12.71
  -5   3   8  661.67   14.22
  -5   4   0   64.34    8.41
  -5   4   1  408.10   11.03
  -5   4   1  419.45   12.27
  -5   4   2  326.30   10.55
  -5   4   2  302.69    9.42
  -5   4   3 1710.00   26.41
  -5   4   4  140.30    8.23
  -5   4   5  723.58   16.09
  -5   4   6   30.54    8.78
  -5   4   7  122.72    9.30
   5  -4  -7  143.14   10.14
  -5   4   8  159.44   11.34
   5  -4  -8  138.97    8.59
  -5   5   0 1466.74   30.91
  -5   5   1    4.66    7.54
  -5   5   1    1.49    7.01
  -5   5   2  237.81    9.16
  -5   5   2  204.61    7.56
  -5   5   3    9.98    5.33
  -5   5   4  493.23   11.48
  -5   5   5    9.86    8.22
  -5   5   6 1223.43   18.35
   5  -5  -7   19.08    7.09
  -5   5   7   19.47    9.97
   5  -5  -8  271.32   12.21
  -5   5   8  260.02   12.85
  -5   6   0    2.73    8.64
  -5   6   1  812.43   15.36
  -5   6   1  698.94   14.24
  -5   6   2   68.74    7.93
  -5   6   2   73.77    8.47
  -5   6   3  516.55   12.45
  -5   6   3  536.43   12.92
  -5   6   4  147.91    8.28
  -5   6   5  538.91   13.57
  -5   6   6  197.84    9.78
  -5   6   7  258.10    9.43
   5  -6  -7  294.22   11.22
   5  -6  -8   34.31   11.26
  -5   6   8   30.44    8.64
  -5   7   0   46.75    9.02
  -5   7   1    5.68    7.95
  -5   7   1    2.76    8.34
  -5   7   2 1152.46   20.42
  -5   7   2 1105.94   19.31
  -5   7   3   54.95    7.82
  -5   7   3   60.36    9.12
  -5   7   4  548.49   13.07
  -5   7   5    4.39    5.97
  -5   7   6  167.69    9.85
   5  -7  -7   29.58    7.42
  -5   7   7   35.30   10.67
  -5   8   0   31.26    9.20
  -5   8   0   30.82    8.81
  -5   8   1  901.85   17.82
  -5   8   1  821.10   17.51
  -5   8   2  228.36   11.63
  -5   8   2  199.20    8.74
  -5   8   3  296.59   11.22
  -5   8   3  305.39   10.26
  -5   8   4   34.91    7.84
  -5   8   5  702.19   14.79
  -5   8   6   -0.88    9.81
  -5   8   7  479.46   13.31
   5  -8  -7  512.95   14.19
  -5   9   0  921.19   20.08
  -5   9   0  959.86   18.74
  -5   9   1    0.07    7.90
  -5   9   1    1.44    8.83
  -5   9   2  506.72   13.74
  -5   9   2  544.25   13.96
  -5   9   3    1.10    8.73
  -5   9   3   -7.90    9.17
  -5   9   4  109.23    8.78
  -5   9   5   21.18    9.16
  -5   9   6 1663.71   25.86
  -5   9   7   17.10   11.43
  -5  10   0   -1.53    8.77
  -5  10   0   -0.07    9.42
  -5  10   1  519.46   13.38
  -5  10   1  517.85   14.41
  -5  10   2   87.78    8.91
  -5  10   2   86.07    9.74
  -5  10   3  784.93   15.78
  -5  10   3  776.45   18.54
  -5  10   4   -0.17    9.72
  -5  10   5  451.40   12.46
  -5  10   6   38.71    9.71
  -5  10   7  348.15   14.02
  -5  11   0  119.73   10.65
  -5  11   0  119.57   10.35
  -5  11   1  361.19   12.82
  -5  11   1  386.80   13.09
  -5  11   2  872.23   21.99
  -5  11   2  871.90   22.19
  -5  11   3   -1.09    9.97
  -5  11   3    4.12   10.18
  -5  11   4  687.54   17.57
  -5  11   4  658.57   14.73
  -5  11   5    8.78    9.93
  -5  11   6  127.42   11.54
  -5  11   7   48.41   12.15
  -5  12   0    6.36    9.24
  -5  12   0   10.48   11.02
  -5  12   1  664.21   16.74
  -5  12   1  607.55   15.40
  -5  12   2   51.83   10.13
  -5  12   2   52.57   10.27
  -5  12   3   73.31   11.79
  -5  12   3   75.59   10.98
  -5  12   4   29.25   12.37
  -5  12   4   25.83    8.99
  -5  12   5  326.98   13.04
  -5  12   6   66.08   12.96
  -5  13   0  237.25   13.10
  -5  13   0  247.77   11.72
  -5  13   1    1.24   10.81
  -5  13   1    4.48   10.31
  -5  13   2  452.79   17.16
  -5  13   2  487.05   17.61
  -5  13   3   56.73   13.74
  -5  13   3   54.35   11.84
  -5  13   4  423.78   15.75
  -5  13   4  437.82   17.88
  -5  13   5  400.16   15.63
  -5  13   6  419.86   16.31
  -5  14   0   70.11   11.66
  -5  14   0   70.90   12.41
  -5  14   1  112.26   13.39
  -5  14   1  110.59   13.74
  -5  14   2   13.00   16.02
  -5  14   2   20.09   15.26
  -5  14   4    0.89   16.36
  -5  14   4   -0.04   17.41
  -5  14   5  422.61   19.80
  -5  14   5  408.25   18.37
  -5  14   6    4.99   13.81
  -5  15   0  323.08   17.63
  -5  15   0  313.96   16.75
  -4 -21   1  560.96   13.98
  -4 -21   1  532.84   16.09
  -4 -21   2   42.10   11.91
  -4 -21   2   49.29   11.10
  -4 -20   1   10.39   10.13
  -4 -20   1    0.44   10.74
  -4 -20   2  214.19   12.36
  -4 -20   2  199.86   10.98
  -4 -20   3   17.02   10.31
  -4 -20   4  398.17   12.82
  -4 -19   1    9.77    8.02
  -4 -19   1   24.58    9.63
  -4 -19   2   35.22   10.50
  -4 -19   2   49.73    9.64
  -4 -19   3  991.93   22.40
  -4 -19   4    0.78    9.90
  -4 -19   5  601.62   16.08
  -4 -18   1   22.20    9.28
  -4 -18   1   30.86   10.15
  -4 -18   2  472.50   12.40
  -4 -18   2  474.93   12.99
  -4 -18   3   23.17    8.96
  -4 -18   4  133.61    9.41
  -4 -18   5   14.68    7.73
  -4 -17   1  630.62   12.82
  -4 -17   1  705.43   16.57
  -4 -17   2  214.99    9.51
  -4 -17   3  825.54   16.46
  -4 -17   4   15.38    6.74
  -4 -17   5  108.20   10.50
  -4 -17   6   13.56   11.16
  -4 -16   1   40.66    9.01
  -4 -16   1   42.13    7.84
  -4 -16   2  108.48    8.44
  -4 -16   3  159.93    6.74
  -4 -16   4  531.62   13.03
  -4 -16   5    4.64    8.82
  -4 -16   6  551.26   11.65
  -4 -15   1  338.07   10.04
  -4 -15   1  386.89    9.72
  -4 -15   2   43.09    7.88
  -4 -15   3  685.13   13.73
  -4 -15   4    4.84    5.99
  -4 -15   5  349.86   11.25
  -4 -15   6  178.92   10.64
  -4 -14   1  161.16    8.27
  -4 -14   1  191.34    9.94
  -4 -14   2 1888.63   27.86
  -4 -14   3    7.23    7.53
  -4 -14   4  199.07    9.08
  -4 -14   5   -3.12    6.16
  -4 -14   6  389.55   11.41
   4  14  -7    8.68    7.94
  -4 -14   7    9.87    9.48
  -4 -13   1  323.57    9.50
  -4 -13   1  298.12    8.49
  -4 -13   2   90.09    5.86
  -4 -13   3  841.43   13.93
  -4 -13   4   -0.44    5.43
  -4 -13   5  394.58   10.31
  -4 -13   6  252.41    8.54
   4  13  -6  265.76   10.80
  -4 -13   7  303.59    8.88
   4  13  -7  288.50    8.64
  -4 -12   1   43.57    8.64
  -4 -12   1   37.22    7.48
  -4 -12   2  347.10   10.60
  -4 -12   3    6.59    7.36
  -4 -12   4 2148.41   40.26
  -4 -12   5   -1.50    7.66
  -4 -12   6  547.94   12.99
   4  12  -6  621.30   14.03
  -4 -12   7   44.31    7.38
   4  12  -7   56.11    7.78
  -4 -11   1  781.30   14.27
  -4 -11   1  873.66   17.10
  -4 -11   2   22.16    6.50
  -4 -11   3  565.39   11.59
  -4 -11   4  114.42    6.16
  -4 -11   5  365.76    8.25
  -4 -11   6  133.05    9.44
   4  11  -6  120.04    8.39
  -4 -11   7 1115.61   16.53
   4  11  -7 1160.29   17.84
  -4 -11   8   71.19   10.58
   4  11  -8   61.02   11.26
  -4 -10   1   18.80    5.63
  -4 -10   1   14.38    5.24
  -4 -10   2  622.79   10.93
  -4 -10   3  377.57    9.70
  -4 -10   4  333.25    8.84
  -4 -10   5   56.91    5.62
   4  10  -6  216.87    7.06
  -4 -10   6  235.15    9.38
   4  10  -7   13.44    9.15
  -4 -10   7   13.81    6.92
  -4 -10   8  688.76   14.28
   4  10  -8  756.20   15.37
  -4  -9   1  298.22    9.72
  -4  -9   1  277.69    8.82
  -4  -9   2  136.19    7.20
  -4  -9   3  893.21   14.96
  -4  -9   4    8.03    7.02
  -4  -9   5 1810.84   24.15
   4   9  -5 1803.15   46.40
  -4  -9   6    1.43    8.40
   4   9  -6    5.69    7.34
   4   9  -7  128.85    8.76
  -4  -9   7  125.62    7.18
   4   9  -8   44.04    7.68
  -4  -9   8   45.24    8.06
  -4  -8   1   29.88    5.14
  -4  -8   1   29.01    7.59
  -4  -8   2  246.94    7.06
  -4  -8   3  468.78    9.43
  -4  -8   4  949.96   20.25
  -4  -8   5   12.52    6.77
   4   8  -5   19.13    5.45
   4   8  -6  555.11   11.39
  -4  -8   6  506.73   12.10
   4   8  -7   93.53    6.92
  -4  -8   7   94.22    6.93
  -4  -8   8  272.25    9.18
   4   8  -8  282.85   10.74
  -4  -7   1 2518.80   32.68
  -4  -7   1 2764.74   45.87
  -4  -7   2   27.71    6.14
  -4  -7   3  604.46   12.13
  -4  -7   4   -2.77    7.09
  -4  -7   5  632.82   10.57
   4   7  -5  672.96   12.13
   4   7  -6   61.81    5.67
  -4  -7   6   59.28    5.95
   4   7  -7 1000.10   17.41
  -4  -7   7 1048.39   16.14
   4   7  -8   24.74    9.60
  -4  -7   8   24.54   10.41
  -4  -6   1   29.11    6.18
  -4  -6   1   31.92    7.20
  -4  -6   2  891.41   15.69
  -4  -6   3  178.30    7.50
  -4  -6   4 1762.59   34.90
   4   6  -5   -0.37    5.26
  -4  -6   5    2.86    5.25
   4   6  -6 1035.78   17.76
  -4  -6   6 1070.87   18.74
  -4  -6   7  330.01   10.09
   4   6  -7  304.90    9.44
   4   6  -8  413.05   10.54
  -4  -6   8  434.01   12.35
  -4  -5   1  384.18   10.55
  -4  -5   1  354.09    8.94
  -4  -5   2   18.52    4.75
  -4  -5   3 1487.13   23.34
  -4  -5   4    7.46    6.73
   4   5  -5 1210.52   16.84
  -4  -5   5 1155.40   16.74
   4   5  -6  154.91    7.66
  -4  -5   6  149.16    8.47
  -4  -5   7    4.08    6.15
   4   5  -7   10.08    6.02
   4   5  -8   58.84    9.27
  -4  -5   8   60.49    7.31
  -4  -4   1  221.90    6.53
  -4  -4   1  221.33    8.64
  -4  -4   2 2429.07   36.65
  -4  -4   3  291.96    8.57
  -4  -4   4  737.65   15.71
   4   4  -5  155.78    5.63
  -4  -4   5  171.89    8.11
  -4  -4   6  568.04   10.24
   4   4  -6  570.72   11.52
   4   4  -7    7.98    7.92
  -4  -4   7    2.70    8.47
   4   4  -8  879.52   13.88
  -4  -4   8  888.40   16.08
  -4  -3   1 2137.35   29.58
  -4  -3   1 2114.56   35.04
  -4  -3   2  309.58    7.69
  -4  -3   3  590.70   11.91
  -4  -3   4  318.13    8.40
  -4  -3   5  194.25    6.57
   4   3  -5  185.13    7.93
   4   3  -6   62.92    6.99
  -4  -3   6   59.61    7.70
   4   3  -7  694.71   13.70
  -4  -3   7  660.34   11.45
  -4  -3   8   18.15    7.27
   4   3  -8   17.13    9.22
   4   3  -9  199.11   11.62
  -4  -2   1   25.59    7.07
  -4  -2   1   22.00    6.71
  -4  -2   2  580.76   11.11
  -4  -2   3   29.59    4.81
  -4  -2   4 1619.32   30.90
   4   2  -5    2.75    5.16
  -4  -2   5    3.21    6.98
   4   2  -6  801.91   14.51
  -4  -2   6  895.49   14.86
   4   2  -7   36.48    7.56
  -4  -2   7   31.40    8.22
   4   2  -8   64.95    6.78
  -4  -2   8   68.51    9.57
  -4  -2   9  147.60   11.08
   4   2  -9  142.83    8.53
  -4  -1   1 1226.00   21.69
  -4  -1   1 1419.18   21.64
  -4  -1   2  209.60    6.53
  -4  -1   3  687.57   13.26
  -4  -1   4  385.32    8.71
  -4  -1   5 2594.88   45.99
   4   1  -5 2639.12   36.35
   4   1  -6  369.91    8.22
  -4  -1   6  365.24    9.39
  -4  -1   7  703.40   12.57
   4   1  -7  733.91   13.05
   4   1  -8   70.51    9.13
  -4  -1   8   66.97    9.88
  -4  -1   9  515.11   12.56
   4   1  -9  534.60   13.37
  -4   0   1    1.89    6.99
  -4   0   1   -0.52    6.47
  -4   0   2 3137.54   47.48
  -4   0   3    0.11    5.79
  -4   0   4   58.20    6.33
   4   0  -5    1.43    6.02
  -4   0   5    3.38    4.93
  -4   0   6  821.84   13.16
   4   0  -6  765.09   13.81
   4   0  -7    1.76    5.46
  -4   0   7   -1.87    5.46
  -4   0   8 1302.76   23.14
   4   0  -8 1230.90   20.11
  -4   0   9   -0.59   10.44
   4   0  -9    0.35   10.40
  -4   1   0  109.32    8.22
  -4   1   1 1333.18   23.40
  -4   1   1 1351.79   22.00
  -4   1   2  225.20    7.76
  -4   1   3  723.42   14.64
  -4   1   4  396.92    9.51
   4  -1  -5 2512.69   35.23
  -4   1   5 2607.24   38.65
  -4   1   6  371.13   10.02
   4  -1  -6  419.77   10.11
   4  -1  -7  767.60   13.24
  -4   1   7  745.66   12.39
  -4   1   8   67.68    7.38
   4  -1  -8   69.02    6.59
  -4   1   9  505.92   13.84
   4  -1  -9  487.57   10.85
  -4   2   0  511.49   11.47
  -4   2   1   34.11    6.60
  -4   2   1   30.57    6.69
  -4   2   2  555.32   12.64
  -4   2   3   26.42    5.96
  -4   2   4 1619.74   22.92
   4  -2  -5    1.33    6.51
  -4   2   5    3.90    5.18
   4  -2  -6 1049.49   17.42
  -4   2   6  934.36   14.99
   4  -2  -7   36.06    7.82
  -4   2   7   29.91    6.29
   4  -2  -8   67.94    6.95
  -4   2   8   63.49    7.27
   4  -2  -9  143.54    8.40
  -4   2   9  146.15   12.28
  -4   3   0  133.84    5.88
  -4   3   1 2161.81   36.85
  -4   3   1 2137.74   30.35
  -4   3   2  291.35    7.25
  -4   3   3  587.64   12.34
  -4   3   4  313.01    8.51
   4  -3  -5  173.23    7.60
  -4   3   5  190.55    8.36
  -4   3   6   64.29    7.48
   4  -3  -6   64.42    7.62
  -4   3   7  688.45   13.47
   4  -3  -7  722.17   16.59
  -4   3   8   18.32    9.26
   4  -3  -8   24.03    8.41
   4  -3  -9  183.12   10.29
  -4   4   0 1574.90   31.83
  -4   4   1  200.15    8.38
  -4   4   1  224.82    8.04
  -4   4   2 2067.08   41.72
  -4   4   3  307.72    8.90
  -4   4   4  725.20   12.71
   4  -4  -5  173.65    6.50
  -4   4   5  161.30    7.62
   4  -4  -6  629.21   12.63
  -4   4   6  554.62   10.88
  -4   4   7    2.10    8.98
   4  -4  -7    2.26    7.97
  -4   4   8  849.26   17.54
   4  -4  -8  925.22   16.30
  -4   5   0   77.74    7.57
  -4   5   1  348.39    9.16
  -4   5   1  381.51    9.25
  -4   5   2   18.65    4.59
  -4   5   3 1555.81   31.61
  -4   5   4    6.88    6.38
   4  -5  -5 1088.00   18.06
  -4   5   5 1179.10   17.28
  -4   5   6  151.92    8.43
   4  -5  -6  147.15    7.44
  -4   5   7   11.37    6.49
   4  -5  -7    5.17    8.19
   4  -5  -8   60.35    8.83
  -4   5   8   57.58   10.75
  -4   6   0 1453.31   26.11
  -4   6   1   37.10    5.86
  -4   6   1   33.82    6.74
  -4   6   2  827.88   17.36
  -4   6   2  802.89   14.91
  -4   6   3  184.23    7.90
  -4   6   4 1699.60   27.36
  -4   6   5   -2.55    6.98
   4  -6  -5   -1.08    6.68
  -4   6   6 1082.23   17.91
   4  -6  -6 1137.17   19.13
   4  -6  -7  333.21    9.56
  -4   6   7  296.16   10.31
   4  -6  -8  468.09   11.87
  -4   6   8  398.33   12.41
  -4   7   0   83.91    7.68
  -4   7   1 2546.19   37.15
  -4   7   1 2711.45   44.00
  -4   7   2   29.91    7.61
  -4   7   2   30.56    6.60
  -4   7   3  622.39   12.73
  -4   7   4    8.08    6.39
   4  -7  -5  699.02   12.60
  -4   7   5  653.80   12.85
  -4   7   6   57.93    8.46
   4  -7  -6   57.21    7.62
  -4   7   7 1117.34   20.70
   4  -7  -7 1064.74   17.09
   4  -7  -8   21.84    7.35
  -4   7   8   24.20   10.70
  -4   8   0  634.19   14.61
  -4   8   1   31.02    8.26
  -4   8   1   39.15    6.94
  -4   8   2  272.83    9.48
  -4   8   2  263.55    9.89
  -4   8   3  493.16   11.28
  -4   8   4  929.96   17.07
  -4   8   5   17.68    7.47
   4  -8  -5   14.90    7.12
   4  -8  -6  455.95   11.15
  -4   8   6  482.62   11.67
  -4   8   7   95.20    9.21
   4  -8  -7  100.28    8.85
   4  -8  -8  274.43   11.31
  -4   8   8  269.41   12.23
  -4   9   0  285.96   10.33
  -4   9   1  290.58    9.73
  -4   9   1  298.51   10.68
  -4   9   2  136.61    8.93
  -4   9   2  133.60    9.99
  -4   9   3 1025.51   21.70
  -4   9   4    5.08    7.22
   4  -9  -5 2436.93   40.60
  -4   9   5 2176.24   30.74
  -4   9   6   -1.19    8.69
   4  -9  -6   -1.18    7.25
   4  -9  -7  139.36    9.06
  -4   9   7  134.35   10.32
   4  -9  -8   46.04    9.34
  -4   9   8   40.93   10.17
  -4  10   0  911.10   17.72
  -4  10   1   22.69    8.22
  -4  10   1   21.28    9.16
  -4  10   2  752.73   18.73
  -4  10   2  682.69   17.39
  -4  10   3  404.41   12.90
  -4  10   3  374.15   12.83
  -4  10   4  334.05   11.15
  -4  10   5   50.62    8.24
   4 -10  -6  279.30   10.06
  -4  10   6  236.95   10.52
   4 -10  -7   13.80    9.20
  -4  10   7   16.57   10.05
  -4  10   8  690.67   17.49
   4 -10  -8  633.52   17.09
  -4  11   0  145.13   10.35
  -4  11   0  117.78    9.41
  -4  11   1  839.47   17.69
  -4  11   1  863.29   20.24
  -4  11   2   20.35    8.16
  -4  11   2   21.63    8.68
  -4  11   3  607.74   15.36
  -4  11   3  572.86   15.81
  -4  11   4  113.48   10.26
  -4  11   5  376.93   11.50
  -4  11   6  116.77    9.87
   4 -11  -6  109.95   10.38
  -4  11   7 1170.60   20.54
   4 -11  -7 1376.86   23.71
   4 -11  -8   65.27   10.30
  -4  11   8   66.56   12.67
  -4  12   0  739.68   16.68
  -4  12   0  735.34   16.21
  -4  12   1   39.22    9.19
  -4  12   1   39.14   10.82
  -4  12   2  381.69   14.83
  -4  12   2  398.50   14.60
  -4  12   3    6.96    9.11
  -4  12   3    8.20   10.11
  -4  12   4 2184.36   38.89
  -4  12   5    2.92    9.88
   4 -12  -6  558.72   13.20
  -4  12   6  522.34   13.66
  -4  12   7   49.03   11.22
   4 -12  -7   52.59   10.04
  -4  13   0   57.89   10.19
  -4  13   0   56.26    9.67
  -4  13   1  322.95   14.56
  -4  13   1  311.24   14.44
  -4  13   2   97.47   14.53
  -4  13   2   84.67   15.82
  -4  13   3  893.36   26.21
  -4  13   3  918.14   25.79
  -4  13   4   -0.48   10.29
  -4  13   5  400.92   14.32
   4 -13  -6  227.88   11.40
  -4  13   6  246.25   11.90
  -4  13   7  307.18   13.23
   4 -13  -7  304.07   12.98
  -4  14   0  641.74   18.52
  -4  14   0  683.47   19.27
  -4  14   4  204.76   19.23
  -4  14   4  200.96   17.62
  -4  14   5    1.03   11.02
  -4  14   6  358.37   13.52
   4 -14  -7   15.55   11.02
  -4  14   7    9.38   12.02
  -4  15   0  115.64   17.36
  -4  15   0  120.79   16.70
  -4  15   5  338.57   20.03
  -4  15   6  176.93   14.30
  -4  16   6  545.48   22.13
  -3 -23   1   51.35   12.25
  -3 -23   1   69.66   10.82
  -3 -23   2  876.23   18.73
  -3 -23   2  835.57   21.28
  -3 -22   1  351.67   13.79
  -3 -22   1  352.36   11.17
  -3 -22   2  219.33   11.21
  -3 -22   2  184.83   12.15
  -3 -22   3  156.89    8.37
  -3 -22   4  267.61   12.27
  -3 -21   1    1.67   11.09
  -3 -21   1   -8.60    8.55
  -3 -21   2  105.71   10.02
  -3 -21   3   28.21    7.29
  -3 -21   4  609.06   15.07
  -3 -20   1  256.62   11.20
  -3 -20   1  270.09   10.19
  -3 -20   2   10.99    8.12
  -3 -20   3  727.06   13.14
  -3 -20   4    0.20    9.91
  -3 -20   5  306.26   11.90
  -3 -19   1    5.82    7.67
  -3 -19   1    4.58    7.34
  -3 -19   2  665.71   13.21
  -3 -19   3    3.39    6.28
  -3 -19   4  869.26   19.01
  -3 -19   5   -3.32    7.21
  -3 -19   6   71.89    8.18
  -3 -18   1  975.19   16.25
  -3 -18   1  978.04   17.26
  -3 -18   2   11.49    5.81
  -3 -18   3  467.57   10.67
  -3 -18   4   80.14    8.49
  -3 -18   5  857.04   15.43
  -3 -18   6   15.86   10.09
   3  18  -6   13.27   10.04
  -3 -17   1  117.78    8.10
  -3 -17   1  115.51    9.04
  -3 -17   2    3.13    5.56
  -3 -17   3   40.82    5.77
  -3 -17   4  778.97   14.82
  -3 -17   5   24.20    8.88
  -3 -17   6  635.11   12.76
   3  17  -6  682.42   12.42
  -3 -16   1  889.89   15.34
  -3 -16   1  860.73   18.01
  -3 -16   2   63.91    5.62
  -3 -16   3 1502.20   29.45
  -3 -16   4  187.44    8.52
   3  16  -5  318.33   11.05
  -3 -16   5  305.22   10.06
   3  16  -6    6.10    8.49
  -3 -16   6   -1.94    9.43
  -3 -16   7  244.39   11.66
   3  16  -7  243.47   11.51
  -3 -15   1  116.29    7.33
  -3 -15   2  592.02   11.19
  -3 -15   3  375.26   10.95
  -3 -15   4  936.13   14.25
   3  15  -5   88.50    8.63
  -3 -15   5   74.42    7.90
   3  15  -6  235.93    9.88
  -3 -15   6  222.09    7.51
   3  15  -7  172.30   10.94
  -3 -15   7  163.00    8.33
  -3 -14   1 1126.45   19.12
  -3 -14   2   37.59    4.82
  -3 -14   3   25.06    4.86
  -3 -14   4   13.98    7.09
   3  14  -5  936.48   14.58
  -3 -14   5  949.22   15.20
   3  14  -6   16.34    8.44
  -3 -14   6   20.65    7.69
   3  14  -7  490.03   10.87
  -3 -14   7  495.89   10.51
  -3 -13   1  158.23    7.38
  -3 -13   2 1679.33   26.59
  -3 -13   3   34.06    6.56
  -3 -13   4  923.19   14.05
   3  13  -5   49.16    7.84
  -3 -13   5   52.53    5.54
   3  13  -6  421.74   10.53
  -3 -13   6  420.97   11.11
  -3 -13   7  188.45    9.60
   3  13  -7  181.24    7.87
  -3 -13   8  708.20   16.74
   3  13  -8  729.92   14.96
  -3 -12   1  483.37   10.72
  -3 -12   2   61.96    6.53
  -3 -12   3 2593.37   41.86
   3  12  -4    5.99    7.01
  -3 -12   4   -3.03    6.67
   3  12  -5   80.00    7.06
  -3 -12   5   66.07    6.95
   3  12  -6   39.04    5.67
  -3 -12   6   40.73    8.24
  -3 -12   7  326.29   10.14
   3  12  -7  323.66    9.04
  -3 -12   8   28.92   10.98
   3  12  -8   33.89   10.42
  -3 -11   1  475.88   10.71
  -3 -11   2  780.72   13.13
  -3 -11   3    5.49    5.91
   3  11  -4 1161.68   17.10
  -3 -11   4 1150.70   16.98
   3  11  -5   10.59    6.63
  -3 -11   5   11.16    7.15
  -3 -11   6  958.56   16.32
   3  11  -6  912.79   14.90
   3  11  -7   78.93    6.46
  -3 -11   7   74.24    8.53
   3  11  -8  237.60   10.98
  -3 -11   8  227.91   11.69
  -3 -10   1  456.27    9.84
  -3 -10   2  374.32    8.28
  -3 -10   3 1074.56   18.09
   3  10  -4  586.31   10.52
  -3 -10   4  560.03    9.81
   3  10  -5 1691.93   25.19
  -3 -10   5 1743.89   26.79
   3  10  -6   66.25    5.68
  -3 -10   6   72.29    7.94
   3  10  -7 1313.54   26.03
  -3 -10   7 1353.26   19.94
  -3 -10   8    5.87   10.42
   3  10  -8    9.58    8.74
  -3  -9   1   25.64    4.64
  -3  -9   2 1974.87   30.28
  -3  -9   3   -2.60    6.01
  -3  -9   4  737.23   11.66
   3   9  -4  764.82   13.51
  -3  -9   5   87.01    7.26
   3   9  -5   95.56    5.42
   3   9  -6  253.47    6.87
  -3  -9   6  272.52    9.09
   3   9  -7  137.35    6.69
  -3  -9   7  148.62    8.50
  -3  -9   8  784.06   16.72
   3   9  -8  728.06   13.68
  -3  -8   1 1631.74   24.60
  -3  -8   2   51.68    4.43
  -3  -8   3 2566.35   39.39
   3   8  -4  778.35   13.48
  -3  -8   4  781.34   12.72
  -3  -8   5 1145.18   16.46
   3   8  -5 1140.90   18.05
  -3  -8   6    4.79    7.46
   3   8  -6    4.01    5.15
  -3  -8   7  829.68   13.16
   3   8  -7  830.60   13.38
  -3  -8   8  299.81   10.32
   3   8  -8  290.56    8.69
  -3  -7   1    2.18    5.61
  -3  -7   2  536.57   12.88
  -3  -7   3  428.52    9.03
  -3  -7   4 1226.30   17.15
   3   7  -4 1304.62   18.54
   3   7  -5    1.63    6.25
  -3  -7   5   -4.67    6.09
   3   7  -6 1802.28   26.33
  -3  -7   6 1821.03   23.54
  -3  -7   7   33.93    7.75
   3   7  -7   33.63    7.36
  -3  -7   8   41.76    7.05
   3   7  -8   38.98    6.82
   3   7  -9   10.90   11.02
  -3  -6   1 1922.76   25.92
  -3  -6   2   84.96    6.27
  -3  -6   3 2149.03   33.14
   3   6  -3 2158.09   55.19
  -3  -6   4  235.51    6.33
   3   6  -4  226.49    6.32
  -3  -6   5  370.12    7.60
   3   6  -5  384.51    8.80
  -3  -6   6   82.19    5.54
   3   6  -6   85.69    6.81
  -3  -6   7  399.61   10.31
   3   6  -7  376.13    9.90
  -3  -6   8   85.20    9.47
   3   6  -8   97.81    9.10
  -3  -6   9  492.16   13.13
   3   6  -9  494.31   11.22
  -3  -5   1  474.45    8.99
  -3  -5   2 4890.22   65.54
  -3  -5   3  363.80    8.04
   3   5  -3  386.52    9.34
   3   5  -4 1207.67   18.83
  -3  -5   4 1231.92   17.62
   3   5  -5   63.00    6.13
  -3  -5   5   58.47    6.55
   3   5  -6  560.00   11.14
  -3  -5   6  552.38   11.40
  -3  -5   7   41.62    5.80
   3   5  -7   50.24    7.48
   3   5  -8  983.59   18.42
  -3  -5   8  906.24   15.12
  -3  -5   9    2.13   10.06
   3   5  -9   -3.17    9.73
  -3  -4   1 1485.91   21.67
  -3  -4   2  731.00   12.23
  -3  -4   3  307.21    8.14
   3   4  -3  254.41    6.71
   3   4  -4  260.11    7.66
  -3  -4   4  258.08    7.70
  -3  -4   5  809.80   14.69
   3   4  -5  811.25   16.80
   3   4  -6   25.10    4.68
  -3  -4   6   21.83    5.22
  -3  -4   7  820.59   14.15
   3   4  -7  821.20   13.53
  -3  -4   8   39.22    8.95
   3   4  -8   33.56    6.46
  -3  -4   9  210.24   10.85
   3   4  -9  204.11   10.73
  -3  -3   1   42.18    6.03
  -3  -3   2 1398.37   20.77
   3   3  -3   52.50    5.74
  -3  -3   3   52.05    5.93
  -3  -3   4 1230.80   17.27
   3   3  -4 1267.12   19.78
  -3  -3   5  144.78    7.26
   3   3  -5  145.18    6.62
  -3  -3   6 2366.93   31.33
   3   3  -6 2481.17   34.58
  -3  -3   7  147.28    6.57
   3   3  -7  133.25    7.50
   3   3  -8  341.03    9.69
  -3  -3   8  333.25    9.04
   3   3  -9    8.84    7.32
  -3  -3   9   15.03    9.84
  -3  -2   1 1560.49   26.26
  -3  -2   2   73.69    4.68
   3   2  -3 3271.99   41.85
  -3  -2   3 2993.78   46.02
  -3  -2   4  142.38    6.24
   3   2  -4  165.35    6.56
   3   2  -5 1357.88   19.93
  -3  -2   5 1274.31   17.92
  -3  -2   6  261.79    8.32
   3   2  -6  259.62    8.11
  -3  -2   7  227.07    7.23
   3   2  -7  224.07    8.18
   3   2  -8  158.48    8.90
  -3  -2   8  159.77    9.39
   3   2  -9 1288.85   21.90
  -3  -2   9 1193.44   18.60
  -3  -1   1 1067.81   19.00
  -3  -1   2 2830.29   39.69
  -3  -1   3  297.10    8.28
   3   1  -3  292.95    7.57
   3   1  -4  911.84   14.83
  -3  -1   4  967.93   14.59
   3   1  -5  100.00    4.94
  -3  -1   5  102.36    5.31
  -3  -1   6  682.85   11.55
   3   1  -6  687.63   11.79
  -3  -1   7  184.08    8.86
   3   1  -7  177.61    6.24
   3   1  -8  440.64    9.61
  -3  -1   8  437.78   12.10
   3   1  -9   38.79    7.48
  -3  -1   9   31.09   10.58
  -3   0   1 5760.22   90.84
  -3   0   2   -0.29    5.72
  -3   0   3   92.12    6.27
   3   0  -3   90.18    6.05
   3   0  -4   -1.34    5.48
  -3   0   4   -3.51    6.07
  -3   0   5 6327.77   71.63
   3   0  -5 6781.46   92.85
   3   0  -6   -2.56    6.32
  -3   0   6   -0.97    6.31
   3   0  -7  605.79   12.27
  -3   0   7  625.39   13.43
   3   0  -8   -0.64    8.02
  -3   0   8    2.22    6.33
   3   0  -9  102.67   10.22
  -3   0   9  111.16   11.05
  -3   1   0  557.45   12.60
  -3   1   1 1113.12   19.99
  -3   1   2 2724.32   54.15
   3  -1  -3  341.15    8.34
  -3   1   3  310.06    9.35
   3  -1  -4  935.33   17.64
  -3   1   4  986.35   18.77
  -3   1   5  112.51    5.56
   3  -1  -5   97.41    5.09
   3  -1  -6  655.31   12.32
  -3   1   6  668.15   12.08
   3  -1  -7  191.79    6.57
  -3   1   7  185.35    8.45
   3  -1  -8  402.52   10.38
  -3   1   8  436.84    9.64
   3  -1  -9   33.06    7.30
  -3   1   9   26.21   10.02
  -3   2   0  161.04    6.36
  -3   2   1 1544.84   26.75
  -3   2   2   78.82    6.01
  -3   2   3 3173.48   49.80
   3  -2  -3 3204.50   41.77
   3  -2  -4  150.16    5.44
  -3   2   4  150.83    5.63
  -3   2   5 1287.82   18.21
   3  -2  -5 1339.65   20.73
  -3   2   6  260.69    8.40
   3  -2  -6  242.45    7.84
   3  -2  -7  230.84    8.54
  -3   2   7  232.72    8.99
  -3   2   8  162.30    7.50
   3  -2  -8  143.63    6.77
   3  -2  -9 1235.98   21.04
  -3   2   9 1186.06   18.84
  -3   3   0 2154.15   40.51
  -3   3   1   61.38    6.53
  -3   3   1   47.67    6.46
  -3   3   2 1434.42   22.96
  -3   3   3   55.84    4.55
   3  -3  -3   52.15    4.49
   3  -3  -4 1260.33   22.62
  -3   3   4 1347.60   18.98
  -3   3   5  138.96    5.62
   3  -3  -5  140.92    6.50
   3  -3  -6 2240.80   30.58
  -3   3   6 2312.55   35.50
   3  -3  -7  137.89    7.89
  -3   3   7  134.01    6.84
   3  -3  -8  351.87   10.53
  -3   3   8  353.16   10.44
   3  -3  -9    6.65   10.07
  -3   3   9   19.74    9.86
  -3   4   0   30.78    6.21
  -3   4   1 1424.78   22.47
  -3   4   1 1495.02   24.00
  -3   4   2  819.77   15.34
   3  -4  -3  273.22    7.96
  -3   4   3  304.46    8.43
  -3   4   4  240.14    7.74
   3  -4  -4  257.02    7.03
  -3   4   5  789.27   13.46
   3  -4  -5  705.89   12.69
  -3   4   6   28.13    7.24
   3  -4  -6   22.67    4.91
   3  -4  -7  782.53   14.51
  -3   4   7  794.29   13.98
   3  -4  -8   24.36    8.65
  -3   4   8   33.58    9.36
  -3   4   9  194.96   12.00
   3  -4  -9  200.65   10.90
  -3   5   0 1329.90   27.36
  -3   5   1  432.04   11.49
  -3   5   1  428.14   10.10
  -3   5   2 5733.38   83.82
   3  -5  -3  343.02    9.51
  -3   5   3  332.68    8.55
   3  -5  -4 1208.74   22.35
  -3   5   4 1216.71   17.45
  -3   5   5   60.08    6.71
   3  -5  -5   48.64    6.03
   3  -5  -6  528.14    9.83
  -3   5   6  475.63    9.64
  -3   5   7   45.18    8.44
   3  -5  -7   43.78    5.70
  -3   5   8  948.44   16.68
   3  -5  -8  962.64   17.66
   3  -5  -9   -2.12    9.47
  -3   5   9    6.88   11.07
  -3   6   0  255.22    9.18
  -3   6   1 1962.82   32.19
  -3   6   1 1835.95   30.10
  -3   6   2   97.10    6.87
  -3   6   3 2272.43   41.38
  -3   6   4  221.89    7.96
   3  -6  -4  243.75    8.09
   3  -6  -5  379.58    9.28
  -3   6   5  386.61    9.76
  -3   6   6   89.92    7.61
   3  -6  -6   93.40    5.42
  -3   6   7  387.07   10.73
   3  -6  -7  389.55    9.03
  -3   6   8   90.25    9.10
   3  -6  -8   98.78    8.46
   3  -6  -9  480.45   13.07
  -3   6   9  485.97   13.89
  -3   7   0 1781.77   30.52
  -3   7   1   -2.22    6.03
  -3   7   1   -0.32    6.52
  -3   7   2  534.98   12.70
  -3   7   3  417.48   10.11
  -3   7   4 1197.17   17.50
   3  -7  -4 1083.33   18.70
  -3   7   5   -0.78    6.25
   3  -7  -5   -0.31    5.92
   3  -7  -6 1875.36   26.38
  -3   7   6 1744.50   25.49
  -3   7   7   30.43    6.40
   3  -7  -7   33.12    5.75
   3  -7  -8   44.41    8.42
  -3   7   8   45.40   10.04
   3  -7  -9   13.30    9.91
  -3   8   0  226.71    9.00
  -3   8   1 1497.00   29.16
  -3   8   1 1621.87   28.73
  -3   8   2   46.04    7.24
  -3   8   3 2557.26   33.96
  -3   8   4  795.79   14.77
   3  -8  -4  749.27   14.57
  -3   8   5 1202.09   19.93
   3  -8  -5 1156.15   19.19
   3  -8  -6    6.12    6.29
  -3   8   6    8.74    5.44
   3  -8  -7  805.79   15.20
  -3   8   7  796.48   13.83
   3  -8  -8  294.91   10.36
  -3   8   8  285.75   12.22
  -3   9   0   17.42    7.93
  -3   9   1   30.65    8.28
  -3   9   1   36.40    6.38
  -3   9   2 1940.37   33.44
  -3   9   2 1948.95   29.27
  -3   9   3    1.28    6.33
  -3   9   4  727.42   13.79
   3  -9  -4  716.79   14.90
   3  -9  -5   99.94    6.97
  -3   9   5   97.23    7.71
   3  -9  -6  266.80    8.82
  -3   9   6  259.45    9.42
  -3   9   7  118.56    7.06
   3  -9  -7  139.09    8.57
   3  -9  -8  759.30   16.01
  -3   9   8  737.01   14.59
  -3  10   0   14.83    7.82
  -3  10   1  448.33   13.93
  -3  10   1  414.86   12.64
  -3  10   2  394.04   14.13
  -3  10   2  405.47   12.66
  -3  10   3 1109.58   22.17
   3 -10  -4  582.67   13.43
  -3  10   4  563.75   12.71
   3 -10  -5 1593.40   24.57
  -3  10   5 1656.66   30.92
   3 -10  -6   73.25    7.30
  -3  10   6   66.70    8.27
   3 -10  -7 1383.45   23.36
  -3  10   7 1316.09   22.16
   3 -10  -8    8.59    9.67
  -3  10   8    7.78    7.91
  -3  11   0 1277.14   23.56
  -3  11   1  510.27   16.17
  -3  11   1  509.29   16.85
  -3  11   2  830.35   23.81
  -3  11   2  865.73   21.96
  -3  11   3   -0.87    7.95
  -3  11   4 1058.99   19.76
   3 -11  -4 1103.90   20.52
   3 -11  -5    8.20    6.94
  -3  11   5    8.23    8.13
  -3  11   6  866.03   16.67
   3 -11  -6  978.38   18.95
   3 -11  -7   82.52    8.45
  -3  11   7   78.33    9.59
  -3  11   8  222.42   11.58
   3 -11  -8  243.39   10.40
  -3  12   0    0.22    7.74
  -3  12   0   -0.74    8.71
  -3  12   3 2664.20   47.19
  -3  12   4    5.12    9.15
   3 -12  -4    0.70    8.59
   3 -12  -5   84.68    7.81
  -3  12   5   62.49    9.85
  -3  12   6   38.02    9.72
   3 -12  -6   43.82    8.00
   3 -12  -7  339.13   11.02
  -3  12   7  305.18   11.48
   3 -12  -8   29.84   10.27
  -3  12   8   30.08   11.66
  -3  13   0 1991.80   35.19
  -3  13   0 2062.85   40.55
  -3  13   4  909.24   22.18
  -3  13   5   52.04    8.72
   3 -13  -5   44.68    7.78
   3 -13  -6  407.47   11.35
  -3  13   6  404.91   12.81
   3 -13  -7  192.01   10.13
  -3  13   7  184.85   11.93
   3 -13  -8  722.54   16.88
  -3  13   8  705.20   18.46
  -3  14   4   12.11   12.50
  -3  14   5  914.05   21.83
   3 -14  -5  989.35   20.64
   3 -14  -6   19.62    9.48
  -3  14   6   19.61   11.29
   3 -14  -7  486.87   13.97
  -3  14   7  490.91   15.21
  -3  15   5   71.35   11.92
   3 -15  -5   89.08   10.81
   3 -15  -6  272.91   11.15
  -3  15   6  223.33   13.67
  -3  15   7  157.29   13.64
   3 -15  -7  179.94   11.41
  -3  16   5  298.67   17.93
  -3  16   6    4.43   12.82
   3 -16  -6    3.56   10.64
  -3  16   7  219.78   13.80
   3 -16  -7  226.74   12.49
   3 -17  -6  663.67   19.84
  -3  17   6  640.66   20.49
   3 -18  -6   11.94   15.42
  -2 -24   1   28.76   11.67
  -2 -24   1   28.40   10.61
  -2 -24   2  261.00   14.80
  -2 -24   2  282.11   12.89
  -2 -24   3   48.73   10.94
  -2 -23   1  957.94   19.69
  -2 -23   1  868.45   20.62
  -2 -23   2   20.97    9.96
  -2 -23   3   44.85   10.17
  -2 -23   4   35.40   10.89
  -2 -22   1    3.27    9.91
  -2 -22   1    4.81    8.43
  -2 -22   2  472.79   12.26
  -2 -22   3   80.30    9.22
  -2 -22   4  425.76   12.27
  -2 -21   1  155.47   10.87
  -2 -21   1  161.92    9.21
  -2 -21   2   42.88    7.67
  -2 -21   3  989.56   16.01
  -2 -21   4   11.57    9.85
  -2 -21   5  564.46   13.76
  -2 -20   1   69.14    8.32
  -2 -20   1   71.11    7.30
  -2 -20   2  724.32   14.30
  -2 -20   3  340.20   10.52
  -2 -20   4  403.57   10.90
  -2 -20   5   70.62    8.65
   2  20  -6  312.28   11.87
  -2 -20   6  335.16   13.10
  -2 -19   1 1099.72   22.40
  -2 -19   1 1155.00   19.40
  -2 -19   2  134.82    8.27
  -2 -19   3  401.54   11.17
  -2 -19   4   -1.58    7.48
  -2 -19   5  154.23    9.36
   2  19  -5  170.49   10.60
   2  19  -6    1.36   10.54
  -2 -19   6   -0.05    7.90
  -2 -18   1   23.14    6.58
  -2 -18   2  255.33    8.54
  -2 -18   3   11.92    5.29
  -2 -18   4 1725.50   26.74
  -2 -18   5   84.67    8.95
   2  18  -5   87.21    6.98
  -2 -18   6  114.17   11.01
   2  18  -6   99.46    7.92
  -2 -17   1  654.17   13.04
  -2 -17   2   80.20    5.59
  -2 -17   3 1596.47   26.63
   2  17  -4   -0.64    8.14
  -2 -17   4    6.05    7.44
   2  17  -5  666.43   13.18
  -2 -17   5  650.08   11.79
  -2 -17   6    5.85    7.02
   2  17  -6    8.42    9.34
  -2 -17   7  179.31   11.34
   2  17  -7  197.28   11.53
  -2 -16   1   42.43    6.71
  -2 -16   2  969.31   20.51
  -2 -16   3    6.37    6.33
   2  16  -4  552.03   10.36
  -2 -16   4  569.80   11.64
   2  16  -5   32.17    5.92
  -2 -16   5   34.88    7.83
   2  16  -6  618.66   12.03
  -2 -16   6  638.36   13.37
   2  16  -7    5.52    7.56
  -2 -16   7    4.27    9.23
  -2 -15   1 2114.07   31.53
  -2 -15   2    9.56    4.59
  -2 -15   3  563.81   11.14
  -2 -15   4   95.98    7.33
   2  15  -4   83.23    8.01
  -2 -15   5  693.75   12.67
   2  15  -5  651.67   13.24
   2  15  -6  315.04   10.02
  -2 -15   6  300.82    9.63
   2  15  -7  679.65   16.39
  -2 -15   7  613.49   12.15
  -2 -14   1   24.48    5.98
  -2 -14   2  396.41    8.81
  -2 -14   3   89.62    6.46
  -2 -14   4 2643.50   42.95
   2  14  -4 2653.56   34.24
  -2 -14   5   11.66    7.31
   2  14  -5   20.24    5.59
  -2 -14   6  142.96    6.68
   2  14  -6  147.98    6.91
  -2 -14   7    2.61    8.47
   2  14  -7   -1.37    9.02
  -2 -13   1 1054.82   22.50
  -2 -13   2 1227.69   20.85
   2  13  -3  367.21    8.58
  -2 -13   3  385.72    9.08
   2  13  -4  248.69    8.24
  -2 -13   4  238.81    7.82
   2  13  -5  863.87   13.97
  -2 -13   5  888.75   14.06
  -2 -13   6   19.79    5.71
   2  13  -6   16.34    7.10
  -2 -13   7  452.91   11.40
   2  13  -7  429.49    9.65
  -2 -13   8   37.88    8.46
   2  13  -8   46.33    9.58
  -2 -12   1  300.68    8.71
  -2 -12   2 1901.37   28.10
   2  12  -3   76.02    6.43
  -2 -12   3   75.23    6.08
   2  12  -4   33.92    4.65
  -2 -12   4   32.45    4.69
  -2 -12   5  130.18    7.12
   2  12  -5  131.66    5.83
  -2 -12   6 1099.22   16.99
   2  12  -6 1075.04   17.62
  -2 -12   7    0.91    8.42
   2  12  -7    3.97    5.92
  -2 -12   8  812.09   14.37
   2  12  -8  776.69   14.19
  -2 -11   1  979.17   17.18
  -2 -11   2   65.94    5.74
  -2 -11   3 2008.97   28.39
   2  11  -3 1963.17   28.35
  -2 -11   4  175.57    5.78
   2  11  -4  209.63    7.57
  -2 -11   5 1309.05   18.20
   2  11  -5 1447.33   21.90
  -2 -11   6    5.66    6.88
   2  11  -6    2.23    5.13
  -2 -11   7  187.35    9.21
   2  11  -7  180.69    9.16
  -2 -11   8  212.65    8.55
   2  11  -8  215.81    8.42
  -2 -10   1  414.56    9.82
  -2 -10   2 2395.82   39.90
   2  10  -3  642.64   10.73
  -2 -10   3  658.53   11.23
   2  10  -4 2647.14   34.51
  -2 -10   4 2695.38   33.54
  -2 -10   5  192.68    7.15
   2  10  -5  196.13    7.63
  -2 -10   6  579.86   11.24
   2  10  -6  596.70   10.82
  -2 -10   7    1.93    8.03
   2  10  -7    1.78    7.86
   2  10  -8  169.33    7.61
  -2 -10   8  155.16    7.83
  -2  -9   1 5869.07   87.58
  -2  -9   2   19.16    5.58
  -2  -9   3  982.21   15.14
   2   9  -3  965.42   16.77
   2   9  -4   24.63    4.47
  -2  -9   4   31.22    6.01
  -2  -9   5 2083.02   26.81
   2   9  -5 2075.49   29.43
  -2  -9   6    6.10    5.26
   2   9  -6    2.27    6.78
   2   9  -7  774.33   14.70
  -2  -9   7  793.53   13.43
   2   9  -8   35.85    8.80
  -2  -9   8   34.12    9.11
  -2  -8   1  349.02    9.10
  -2  -8   2 2091.50   31.71
  -2  -8   3  958.90   15.24
   2   8  -3  886.12   15.24
  -2  -8   4 1577.14   20.62
   2   8  -4 1528.97   22.04
  -2  -8   5  764.50   12.47
   2   8  -5  807.50   13.77
   2   8  -6  996.86   16.91
  -2  -8   6  985.03   14.94
   2   8  -7    6.65    7.16
  -2  -8   7    3.39    5.74
   2   8  -8  371.76   10.56
  -2  -8   8  363.49   11.33
  -2  -7   1 2009.11   33.19
  -2  -7   2   -0.54    3.96
   2   7  -2    0.17    5.45
  -2  -7   3 2292.03   31.68
   2   7  -3 2161.41   31.62
   2   7  -4   86.57    5.81
  -2  -7   4   90.55    4.65
  -2  -7   5 1476.64   22.50
   2   7  -5 1545.82   21.95
  -2  -7   6  318.77    8.81
   2   7  -6  330.21    9.00
  -2  -7   7   87.88    7.68
   2   7  -7   90.92    5.77
  -2  -7   8   45.27    8.63
   2   7  -8   38.03    6.53
  -2  -7   9  801.55   15.87
   2   7  -9  773.06   15.07
  -2  -6   1   -1.65    3.93
  -2  -6   2 1841.71   28.54
   2   6  -2 1838.80   25.62
   2   6  -3    3.13    3.62
  -2  -6   3    2.54    3.82
   2   6  -4  759.90   12.51
  -2  -6   4  801.09   12.60
  -2  -6   5  140.00    6.64
   2   6  -5  130.34    6.63
   2   6  -6 1302.31   21.37
  -2  -6   6 1212.91   16.90
   2   6  -7  171.88    6.78
  -2  -6   7  170.51    6.57
   2   6  -8  428.76   11.06
  -2  -6   8  397.88    9.90
   2   6  -9  179.02   10.88
  -2  -6   9  177.51    9.18
  -2  -5   1 3869.70   56.22
   2   5  -2    1.80    5.37
  -2  -5   2   -1.47    5.72
   2   5  -3  506.25    9.69
  -2  -5   3  499.82    9.96
   2   5  -4  101.22    4.63
  -2  -5   4  100.87    4.97
  -2  -5   5  453.46    9.43
   2   5  -5  432.32    9.41
   2   5  -6    4.83    4.59
  -2  -5   6    0.19    6.98
   2   5  -7 1949.54   35.58
  -2  -5   7 1979.66   28.73
  -2  -5   8   19.80    8.90
   2   5  -8   22.26    6.18
   2   5  -9  249.38   11.55
  -2  -5   9  263.74   11.88
  -2  -4   1  328.46    8.04
   2   4  -2 2718.33   34.81
  -2  -4   2 2510.60   37.79
  -2  -4   3 1189.85   17.48
   2   4  -3 1240.84   19.59
  -2  -4   4 2970.14   47.43
   2   4  -4 2968.73   47.14
  -2  -4   5  723.43   12.36
   2   4  -5  690.65   12.44
  -2  -4   6 1334.43   21.39
   2   4  -6 1367.53   25.35
   2   4  -7   34.60    7.09
  -2  -4   7   34.09    5.81
   2   4  -8  199.52    8.60
  -2  -4   8  203.93    7.52
  -2  -4   9   40.70    7.94
   2   4  -9   33.40    9.40
  -2  -3   1  438.53    9.74
  -2  -3   2   72.33    5.04
   2   3  -2   76.11    4.64
   2   3  -3 6504.60   86.00
  -2  -3   3 6435.16   78.11
  -2  -3   4   86.40    5.88
   2   3  -4   79.06    5.75
  -2  -3   5 1030.87   13.92
   2   3  -5 1024.69   20.54
  -2  -3   6  727.14   14.11
   2   3  -6  736.01   13.53
   2   3  -7  728.19   14.34
  -2  -3   7  765.05   14.79
   2   3  -8   99.29    8.56
  -2  -3   8  108.33    8.50
   2   3  -9  403.45   10.37
  -2  -3   9  403.39   12.50
  -2  -2   1  736.75   12.68
   2   2  -2 7020.26   89.27
  -2  -2   2 7458.69  105.92
  -2  -2   3  346.21    7.55
   2   2  -3  366.15    8.81
   2   2  -4  186.41    6.56
  -2  -2   4  175.09    5.60
   2   2  -5   -4.36    4.06
  -2  -2   5    2.65    4.17
  -2  -2   6 2106.13   26.64
   2   2  -6 1971.43   32.28
   2   2  -7   60.16    6.78
  -2  -2   7   61.27    7.32
   2   2  -8  872.60   16.55
  -2  -2   8  905.21   18.48
   2   2  -9  134.83   10.37
  -2  -2   9  112.07   10.36
  -2  -1   1  832.34   14.00
   2   1  -2 1847.66   26.37
  -2  -1   2 1701.77   29.31
  -2  -1   3 4815.74   58.39
   2   1  -3 5085.86   71.55
   2   1  -4   88.49    5.75
  -2  -1   4   82.54    5.84
   2   1  -5 1188.07   19.67
  -2  -1   5 1259.27   17.62
  -2  -1   6    2.03    6.22
   2   1  -6    5.14    5.90
   2   1  -7  873.33   13.50
  -2  -1   7  963.10   14.91
   2   1  -8   62.66    6.11
  -2  -1   8   60.23    6.58
   2   1  -9  181.95    8.27
  -2  -1   9  179.38    8.47
  -2   0   1    7.53    4.06
   2   0  -2 1994.42   32.50
  -2   0   2 1977.73   29.10
  -2   0   3    1.05    5.58
   2   0  -3    1.56    3.50
  -2   0   4 4669.92   56.94
   2   0  -4 4573.85   69.19
  -2   0   5    0.27    5.80
   2   0  -5   13.09    5.29
  -2   0   6  252.58    8.16
   2   0  -6  239.19    7.32
   2   0  -7   -4.24    7.08
  -2   0   7   -0.80    5.45
   2   0  -8  191.21    8.90
  -2   0   8  198.27    7.44
   2   0  -9   -1.54    8.88
  -2   0   9  -12.86   10.98
  -2   1   0    4.16    5.44
  -2   1   1  927.49   16.07
  -2   1   2 1639.11   27.00
   2  -1  -2 1699.89   28.16
  -2   1   3 4967.41   82.64
   2  -1  -3 4874.12   68.33
  -2   1   4   97.03    4.92
   2  -1  -4   95.84    4.88
  -2   1   5 1244.19   20.69
   2  -1  -5 1252.11   18.37
  -2   1   6    0.31    6.40
   2  -1  -6   -3.31    4.43
   2  -1  -7  890.75   13.99
  -2   1   7  883.64   14.10
  -2   1   8   62.34    6.49
   2  -1  -8   62.22    6.19
   2  -1  -9  200.39    9.67
  -2   1   9  211.24   11.92
  -2   2   0 4570.37   77.29
  -2   2   1  854.62   16.25
   2  -2  -2 7142.37  108.10
  -2   2   2 7066.81  108.37
  -2   2   3  365.57    8.03
   2  -2  -3  336.26    9.05
   2  -2  -4  188.19    6.03
  -2   2   4  178.56    6.81
  -2   2   5    1.32    4.39
   2  -2  -5   -1.08    3.96
  -2   2   6 2081.79   27.70
   2  -2  -6 2095.90   27.00
  -2   2   7   55.96    7.08
   2  -2  -7   58.56    5.37
   2  -2  -8  886.22   14.42
  -2   2   8  881.24   14.29
   2  -2  -9  115.70   10.24
  -2   2   9  119.98   11.18
  -2   3   0   32.63    6.04
  -2   3   1  370.61    9.29
   2  -3  -2   69.87    6.04
  -2   3   2   78.99    5.12
   2  -3  -3 6579.86  102.86
  -2   3   3 6512.89   81.52
   2  -3  -4   76.71    5.62
  -2   3   4   77.37    6.14
  -2   3   5 1035.91   16.87
   2  -3  -5  919.25   14.02
  -2   3   6  745.81   13.22
   2  -3  -6  738.20   11.45
   2  -3  -7  727.77   12.11
  -2   3   7  751.53   13.35
  -2   3   8   83.74    6.72
   2  -3  -8   90.43    6.38
   2  -3  -9  388.20    9.68
  -2   3   9  402.93   12.69
  -2   4   0 1416.85   25.59
  -2   4   1  332.87    9.96
   2  -4  -2 2664.60   43.36
  -2   4   2 2554.46   36.80
  -2   4   3 1213.58   20.00
   2  -4  -3 1175.66   18.81
  -2   4   4 2518.90   32.82
   2  -4  -4 2864.54   44.17
  -2   4   5  720.79   13.12
   2  -4  -5  687.67   11.59
   2  -4  -6 1279.98   17.66
  -2   4   6 1341.76   19.69
  -2   4   7   30.63    7.18
   2  -4  -7   35.77    6.57
   2  -4  -8  197.81    8.86
  -2   4   8  208.42    9.84
   2  -4  -9   40.25   10.13
  -2   4   9   37.62   11.13
  -2   5   0   51.02    6.37
  -2   5   1 4424.08   68.93
  -2   5   2    4.80    5.15
   2  -5  -2   -0.46    4.97
  -2   5   3  509.81   10.89
   2  -5  -3  487.90   10.53
   2  -5  -4   96.26    6.09
  -2   5   4  103.93    6.85
  -2   5   5  446.42    9.78
   2  -5  -5  445.32    9.20
  -2   5   6   -1.14    6.76
   2  -5  -6    4.41    4.37
   2  -5  -7 1920.32   24.24
  -2   5   7 1995.68   27.84
   2  -5  -8   26.05    8.25
  -2   5   8   30.06    9.29
  -2   5   9  244.95   12.27
   2  -5  -9  259.19   11.13
  -2   6   0 2113.17   36.42
  -2   6   1    1.69    5.89
  -2   6   1    2.83    5.29
   2  -6  -2 2176.19   31.91
  -2   6   2 1895.91   28.00
  -2   6   3    4.07    5.54
   2  -6  -3    3.13    5.08
   2  -6  -4  790.34   15.30
  -2   6   4  758.15   13.49
   2  -6  -5  135.33    5.12
  -2   6   5  129.57    6.87
  -2   6   6 1333.96   20.53
   2  -6  -6 1325.99   22.07
   2  -6  -7  174.39    8.51
  -2   6   7  166.01    8.94
   2  -6  -8  414.77   10.14
  -2   6   8  398.85    9.57
  -2   6   9  172.16   11.17
   2  -6  -9  175.35   10.10
  -2   7   0    7.73    5.55
  -2   7   1 1858.80   34.61
  -2   7   1 2161.82   37.14
   2  -7  -2    2.56    4.94
  -2   7   2    4.13    6.38
  -2   7   3 2334.91   39.42
   2  -7  -3 2377.26   34.55
   2  -7  -4   90.49    4.88
  -2   7   4   92.88    6.57
   2  -7  -5 1573.50   21.31
  -2   7   5 1469.57   21.10
   2  -7  -6  331.58    9.34
  -2   7   6  326.31    9.55
   2  -7  -7   90.80    7.86
  -2   7   7   96.77    8.82
   2  -7  -8   35.01    6.40
  -2   7   8   33.08    9.90
   2  -7  -9  736.74   13.08
  -2   7   9  681.34   15.04
  -2   8   0 2142.25   35.51
  -2   8   1  331.18   14.71
  -2   8   1  372.06   14.92
  -2   8   2 2313.90   37.09
   2  -8  -3 1016.54   20.09
  -2   8   3  937.81   16.93
   2  -8  -4 1574.72   27.45
  -2   8   4 1526.10   28.49
   2  -8  -5  790.67   12.99
  -2   8   5  779.23   14.21
   2  -8  -6  990.52   17.70
  -2   8   6 1034.04   17.70
   2  -8  -7    4.05    7.70
  -2   8   7    7.76    7.83
   2  -8  -8  349.20    8.68
  -2   8   8  337.75   11.17
  -2   9   0   88.49    8.35
  -2   9   2   23.62    8.22
  -2   9   3 1003.26   18.72
   2  -9  -3 1106.56   20.42
   2  -9  -4   27.45    5.76
  -2   9   4   28.36    6.61
   2  -9  -5 2196.25   28.62
  -2   9   5 2224.18   32.71
   2  -9  -6    0.72    6.71
  -2   9   6    4.37    7.47
   2  -9  -7  804.31   15.74
  -2   9   7  770.07   15.06
   2  -9  -8   39.03    6.90
  -2   9   8   40.02   10.47
  -2  10   0  807.18   19.74
  -2  10   2 2148.52   48.58
   2 -10  -3  667.61   14.91
  -2  10   3  645.77   14.83
   2 -10  -4 2748.63   45.93
  -2  10   4 2550.01   34.19
   2 -10  -5  209.84    7.69
  -2  10   5  188.90    8.36
   2 -10  -6  596.43   12.88
  -2  10   6  530.11   12.01
   2 -10  -7    6.30    8.11
  -2  10   7    5.28    8.35
  -2  10   8  181.26   11.13
   2 -10  -8  166.47    7.72
  -2  11   0    1.62    8.92
  -2  11   3 1828.65   32.26
   2 -11  -3 1952.75   32.14
  -2  11   4  161.96    8.62
   2 -11  -4  170.25    7.84
  -2  11   5 1307.24   24.26
   2 -11  -5 1378.52   20.34
   2 -11  -6    3.18    7.10
  -2  11   6    4.83    8.10
  -2  11   7  192.73   10.62
   2 -11  -7  182.75    9.21
   2 -11  -8  214.54    9.70
  -2  11   8  189.44   11.65
   2 -12  -3   76.31    7.91
  -2  12   3   70.15    9.08
   2 -12  -4   27.33    7.37
  -2  12   4   27.66    7.52
   2 -12  -5  139.03    7.73
  -2  12   5  123.49    8.93
   2 -12  -6 1076.08   16.67
  -2  12   6 1053.48   20.60
   2 -12  -7   -4.31    7.86
  -2  12   7    3.64    9.94
   2 -12  -8  787.50   15.00
  -2  12   8  758.38   17.38
  -2  13   3  366.92   17.48
   2 -13  -3  404.52   15.88
   2 -13  -4  246.75    9.93
  -2  13   4  215.88   11.45
  -2  13   5  824.66   20.00
   2 -13  -5  846.36   15.16
   2 -13  -6   17.25    7.76
  -2  13   6   15.23    9.17
   2 -13  -7  440.34   11.67
  -2  13   7  421.95   13.82
  -2  13   8   40.10   11.68
   2 -13  -8   49.23    9.64
  -2  14   4 2487.22   48.79
   2 -14  -4 2709.34   44.91
  -2  14   5   15.37    9.94
   2 -14  -5    9.85    7.28
  -2  14   6  139.50   10.46
   2 -14  -6  150.62    8.96
  -2  14   7   14.47   10.81
   2 -14  -7    5.52    8.38
  -2  15   4   84.49   11.90
   2 -15  -4   87.44    8.92
   2 -15  -5  690.98   15.82
  -2  15   5  640.10   17.17
   2 -15  -6  329.68   11.45
  -2  15   6  280.26   11.93
  -2  15   7  633.46   16.24
   2 -15  -7  681.10   14.78
   2 -16  -4  559.49   17.06
  -2  16   5   35.55   11.63
   2 -16  -5   39.10    9.30
  -2  16   6  622.02   20.21
   2 -16  -6  641.73   15.36
  -2  16   7    4.92   12.68
   2 -16  -7    6.42   10.40
   2 -17  -5  679.45   17.41
  -2  17   5  660.61   18.62
  -2  17   6   11.00   11.04
   2 -17  -6   10.70    9.09
  -2  17   7  179.00   14.01
   2 -17  -7  188.47   11.84
   2 -18  -5   90.16   12.40
   2 -18  -6  105.87   11.87
  -2  18   6  101.61   12.80
   2 -19  -5  162.73   15.40
   2 -19  -6    0.80   11.92
   2 -20  -6  251.20   16.50
  -1 -25   1  194.91   15.46
  -1 -25   1  167.63   13.05
  -1 -25   2  504.89   18.56
  -1 -25   2  523.57   15.55
  -1 -24   1  510.83   14.78
  -1 -24   1  485.08   16.72
  -1 -24   2    1.19   11.63
  -1 -24   2   -0.16   11.85
  -1 -24   3  535.56   15.18
  -1 -23   1   -1.70   10.43
  -1 -23   1    1.19   10.74
  -1 -23   2   47.80    9.52
  -1 -23   3   51.81   10.21
  -1 -23   4  551.53   14.41
  -1 -22   1  559.43   15.20
  -1 -22   1  526.69   15.34
  -1 -22   2   -2.14    8.96
  -1 -22   3  352.48   11.17
  -1 -22   4  126.38   11.19
  -1 -22   5  679.81   16.05
   1  22  -5  671.35   17.40
  -1 -21   1   31.29    9.76
  -1 -21   1   31.59    9.42
  -1 -21   2 1276.78   22.43
  -1 -21   3   20.17    8.66
  -1 -21   4   82.59    9.96
   1  21  -5    5.92   10.19
  -1 -21   5    2.49    9.50
  -1 -20   1  878.91   15.93
  -1 -20   1  821.64   18.73
  -1 -20   2   21.74    7.67
  -1 -20   3  377.40   10.29
  -1 -20   4  242.01   10.36
   1  20  -4  234.88   10.60
   1  20  -5  821.67   16.07
  -1 -20   5  825.52   15.30
  -1 -20   6   95.08   10.56
   1  20  -6  102.09   11.47
  -1 -19   1    5.02    7.30
  -1 -19   2  777.21   14.05
  -1 -19   3   99.39    7.69
  -1 -19   4  818.53   15.41
   1  19  -4  804.07   14.64
  -1 -19   5    5.04    8.64
   1  19  -5   12.58    9.14
   1  19  -6  934.12   19.98
  -1 -19   6  924.93   17.88
  -1 -18   1 2264.41   39.40
  -1 -18   2   42.40    7.18
  -1 -18   3  676.67   12.52
  -1 -18   4  127.46    7.97
   1  18  -4  126.04    8.72
   1  18  -5  151.67    9.47
  -1 -18   5  151.55    9.19
   1  18  -6   53.75    9.93
  -1 -18   6   48.17    7.64
  -1 -17   1   12.76    6.20
  -1 -17   2 2726.01   47.71
  -1 -17   3   65.66    7.14
   1  17  -3   69.11    5.85
  -1 -17   4  596.55   11.80
   1  17  -4  596.68   12.79
   1  17  -5    1.54    8.19
  -1 -17   5    4.82    7.46
   1  17  -6  286.15    9.02
  -1 -17   6  291.15   10.99
  -1 -17   7   37.99   11.32
   1  17  -7   35.61   11.06
  -1 -16   1 1336.44   27.98
  -1 -16   2   23.15    6.17
   1  16  -3   55.65    5.04
  -1 -16   3   59.88    6.48
  -1 -16   4    8.75    6.96
   1  16  -4    5.37    7.30
  -1 -16   5 1694.12   23.34
   1  16  -5 1776.02   27.03
  -1 -16   6   35.07    8.59
   1  16  -6   36.08    8.43
  -1 -16   7   83.04    8.23
   1  16  -7   77.79    9.79
  -1 -15   1  172.04    7.27
  -1 -15   2  571.35   12.40
   1  15  -3   52.28    5.15
  -1 -15   3   55.19    4.89
  -1 -15   4  905.68   15.04
   1  15  -4  961.25   15.51
  -1 -15   5   47.26    8.03
   1  15  -5   47.63    7.03
   1  15  -6  584.87   12.84
  -1 -15   6  612.47   12.45
   1  15  -7  142.05   10.60
  -1 -15   7  141.76    8.04
  -1 -14   1 3415.75   53.60
  -1 -14   2  256.71    7.74
   1  14  -3 1459.18   22.82
  -1 -14   3 1534.32   23.89
  -1 -14   4   18.41    6.05
   1  14  -4   11.10    6.76
   1  14  -5  368.64    8.53
  -1 -14   5  409.61    9.68
  -1 -14   6   17.61    8.14
   1  14  -6   16.55    5.91
   1  14  -7  708.59   13.69
  -1 -14   7  724.51   16.43
  -1 -13   1  622.80   12.13
   1  13  -2  882.72   16.64
  -1 -13   2  869.84   14.00
   1  13  -3  677.34   12.10
  -1 -13   3  679.20   12.07
  -1 -13   4  847.39   13.10
   1  13  -4  876.26   15.15
  -1 -13   5  149.03    6.35
   1  13  -5  144.80    7.63
  -1 -13   6  810.88   15.71
   1  13  -6  796.48   15.02
   1  13  -7   16.44    8.94
  -1 -13   7   19.34    9.13
   1  13  -8  363.43   11.88
  -1 -13   8  372.19   12.55
  -1 -12   1  489.23   11.38
  -1 -12   2    4.94    4.00
   1  12  -2   11.27    3.97
   1  12  -3 1112.65   16.45
  -1 -12   3 1155.40   18.73
  -1 -12   4   14.30    6.15
   1  12  -4    8.61    5.98
   1  12  -5 3291.61   47.93
  -1 -12   5 3024.76   47.49
   1  12  -6   55.97    7.23
  -1 -12   6   54.99    8.16
   1  12  -7  379.84    9.42
  -1 -12   7  388.74   11.08
   1  12  -8   -2.75    7.80
  -1 -12   8    1.52   11.22
  -1 -11   1   70.74    5.75
   1  11  -2 3116.35   41.02
  -1 -11   2 3402.83   43.34
   1  11  -3  133.59    5.17
  -1 -11   3  134.56    6.54
  -1 -11   4  639.85   10.87
   1  11  -4  640.75   12.22
  -1 -11   5    0.63    4.83
   1  11  -5    0.75    4.54
   1  11  -6  630.70   14.52
  -1 -11   6  652.38   13.27
   1  11  -7   16.14    8.34
  -1 -11   7   20.92    8.59
   1  11  -8  628.57   15.77
  -1 -11   8  575.86   13.64
  -1 -10   1 2750.24   41.43
  -1 -10   2  175.72    6.67
   1  10  -2  169.90    5.76
  -1 -10   3 3034.00   39.29
   1  10  -3 2793.25   40.14
   1  10  -4 1061.54   17.22
  -1 -10   4 1071.59   15.04
   1  10  -5  141.35    7.11
  -1 -10   5  147.20    5.97
   1  10  -6  266.06    8.65
  -1 -10   6  263.97    8.68
   1  10  -7  274.20    9.13
  -1 -10   7  283.80    9.79
   1  10  -8   -0.74    9.34
  -1 -10   8   11.64   10.05
  -1  -9   1   20.61    5.56
   1   9  -2 1313.92   20.91
  -1  -9   2 1330.10   19.04
  -1  -9   3   73.19    5.97
   1   9  -3   71.62    4.46
   1   9  -4 3291.61   50.29
  -1  -9   4 3372.10   38.67
   1   9  -5   40.68    6.18
  -1  -9   5   40.50    4.96
   1   9  -6  465.51   10.95
  -1  -9   6  491.88    9.22
  -1  -9   7   78.07    6.30
   1   9  -7   68.35    6.03
   1   9  -8  253.91   10.69
  -1  -9   8  258.70   11.21
  -1  -8   1 1893.70   28.96
   1   8  -2  603.83   10.75
  -1  -8   2  607.65   11.35
  -1  -8   3 1863.36   28.04
   1   8  -3 1745.25   24.72
   1   8  -4  732.47   15.27
  -1  -8   4  713.97   11.76
  -1  -8   5  830.98   15.59
   1   8  -5  800.33   14.50
   1   8  -6    2.87    4.71
  -1  -8   6    2.15    5.20
  -1  -8   7  385.74    9.50
   1   8  -7  402.62    9.81
   1   8  -8   75.20    8.61
  -1  -8   8   88.32    7.69
  -1  -7   1  484.86   10.72
   1   7  -2 3350.29   48.11
  -1  -7   2 3362.79   42.83
   1   7  -3  253.81    6.57
  -1  -7   3  263.21    6.75
   1   7  -4 2613.66   40.21
  -1  -7   4 2488.83   34.01
  -1  -7   5    1.90    4.64
   1   7  -5    0.80    6.09
  -1  -7   6  361.15    9.10
   1   7  -6  352.93    8.66
  -1  -7   7   43.21    7.97
   1   7  -7   40.71    7.47
   1   7  -8 1309.91   18.18
  -1  -7   8 1337.83   20.47
   1   6  -1 1900.38   32.56
  -1  -6   1 1865.27   29.87
  -1  -6   2 1345.16   19.45
   1   6  -2 1292.57   21.01
   1   6  -3 2484.84   47.63
  -1  -6   3 2387.90   35.09
  -1  -6   4  732.42   11.67
   1   6  -4  718.54   11.62
  -1  -6   5 2004.40   25.60
   1   6  -5 1872.47   24.21
  -1  -6   6  779.46   12.53
   1   6  -6  848.80   13.07
   1   6  -7 1253.66   17.63
  -1  -6   7 1227.07   17.61
   1   6  -8    5.52    6.58
  -1  -6   8    8.52    9.59
   1   6  -9  275.37   11.17
  -1  -6   9  265.32    9.73
  -1  -5   1 1437.38   23.99
   1   5  -1 1464.80   21.97
  -1  -5   2  116.94    6.05
   1   5  -2  117.70    5.10
  -1  -5   3   18.52    5.29
   1   5  -3   16.72    5.08
  -1  -5   4 2950.72   39.32
   1   5  -4 2908.24   36.59
  -1  -5   5   37.37    4.54
   1   5  -5   36.51    5.94
  -1  -5   6 1633.01   23.27
   1   5  -6 1550.47   24.50
  -1  -5   7   10.91    7.89
   1   5  -7    5.47    7.39
   1   5  -8   69.79    8.30
  -1  -5   8   66.42    6.88
  -1  -5   9    3.97   11.70
   1   5  -9    6.19   10.95
   1   4  -1 4609.96   66.16
  -1  -4   1 4471.67   66.18
  -1  -4   2  442.22    9.82
   1   4  -2  421.15    8.88
  -1  -4   3 5831.31   79.12
   1   4  -3 5809.12   75.14
  -1  -4   4    4.49    5.58
   1   4  -4    1.95    3.56
   1   4  -5  374.99    9.61
  -1  -4   5  399.45    8.34
  -1  -4   6  142.11    7.19
   1   4  -6  144.33    5.86
  -1  -4   7 1576.14   22.55
   1   4  -7 1548.73   28.09
   1   4  -8   10.31    8.73
  -1  -4   8    2.32    9.50
   1   4  -9  445.25   12.61
  -1  -4   9  437.99   10.94
  -1  -3   1   -0.32    3.81
   1   3  -1    2.06    4.77
   1   3  -2 5360.37   79.98
  -1  -3   2 5504.36   84.17
  -1  -3   3   13.35    5.48
   1   3  -3    8.74    5.09
  -1  -3   4  441.20    9.45
   1   3  -4  383.03    9.49
  -1  -3   5    3.48    6.30
   1   3  -5    4.96    4.27
  -1  -3   6  906.22   14.14
   1   3  -6  906.39   16.63
  -1  -3   7  367.00    9.34
   1   3  -7  383.47   10.46
   1   3  -8  371.38   11.40
  -1  -3   8  365.53    9.33
   1   3  -9   47.33    7.73
  -1  -3   9   57.71   11.15
  -1  -2   1  884.40   17.36
   1   2  -1  883.96   17.35
   1   2  -2  128.63    5.61
  -1  -2   2  123.72    5.72
  -1  -2   3 1922.84   27.07
   1   2  -3 1846.28   24.30
  -1  -2   4 1083.05   19.23
   1   2  -4 1076.15   19.81
  -1  -2   5 3050.41   39.55
   1   2  -5 2969.55   42.81
  -1  -2   6    2.52    4.68
   1   2  -6    1.80    4.53
  -1  -2   7  410.24   10.08
   1   2  -7  405.68   10.23
   1   2  -8    5.96    8.49
  -1  -2   8   -0.08    6.51
   1   2  -9   51.57    7.97
  -1  -2   9   48.41    8.38
  -1  -1   1   50.86    4.71
   1   1  -1   55.18    4.57
   1   1  -2 6234.38   94.97
  -1  -1   2 6430.74   92.87
  -1  -1   3 1517.57   20.31
   1   1  -3 1662.73   30.29
  -1  -1   4 2284.84   28.84
   1   1  -4 2308.84   29.21
   1   1  -5   12.69    5.51
  -1  -1   5   21.52    4.28
  -1  -1   6 1682.36   22.79
   1   1  -6 1594.08   20.44
  -1  -1   7    8.34    7.77
   1   1  -7    2.50    7.29
  -1  -1   8  499.41   12.29
   1   1  -8  489.04   11.07
  -1  -1   9   24.61   10.87
   1   1  -9   17.40   10.55
  -1   0   1 7320.55  105.47
   1   0  -1 6351.52   93.31
  -1   0   2    1.51    3.99
   1   0  -2    1.85    3.16
  -1   0   3 7101.80   87.99
   1   0  -3 7232.89  102.11
  -1   0   4    2.21    5.65
   1   0  -4   -1.52    3.67
  -1   0   5   34.26    4.31
   1   0  -5   31.45    5.50
  -1   0   6    5.94    4.79
   1   0  -6    1.05    4.54
  -1   0   7  832.99   16.47
   1   0  -7  820.34   12.25
   1   0  -8   -2.11    7.95
  -1   0   8   -2.84    8.79
   1   0  -9  627.21   14.09
  -1   0   9  607.57   14.78
  -1   1   0 5898.46  101.05
   1  -1  -1   59.33    4.83
  -1   1   1   53.33    5.09
   1  -1  -2 6405.87   79.98
  -1   1   2 6450.38   76.44
  -1   1   3 1584.70   22.81
   1  -1  -3 1587.03   21.95
  -1   1   4 2420.72   37.43
   1  -1  -4 2322.39   30.68
  -1   1   5   20.13    5.80
   1  -1  -5   20.52    5.33
  -1   1   6 1611.59   22.75
   1  -1  -6 1590.60   21.31
  -1   1   7    1.05    7.41
   1  -1  -7    6.36    5.31
  -1   1   8  509.94   11.48
   1  -1  -8  481.01   11.01
   1  -1  -9   16.34    9.47
  -1   1   9   16.84    8.24
  -1   2   0  257.26   10.69
   1  -2  -1  825.75   17.54
  -1   2   1  874.41   19.44
  -1   2   2  123.01    5.59
   1  -2  -2  129.14    5.55
  -1   2   3 1901.57   25.76
   1  -2  -3 1894.69   26.41
  -1   2   4 1004.87   15.66
   1  -2  -4 1019.60   14.68
  -1   2   5 2511.25   32.94
   1  -2  -5 2872.43   34.07
  -1   2   6    4.79    6.34
   1  -2  -6    7.20    5.84
  -1   2   7  393.66   10.50
   1  -2  -7  423.17    9.83
  -1   2   8    6.72    8.50
   1  -2  -8    4.89    5.97
  -1   2   9   49.45    8.46
   1  -2  -9   53.75    9.77
   1  -3   0 1907.31   39.40
  -1   3   0 2050.94   36.42
   1  -3  -1    3.39    5.12
  -1   3   1    3.79    5.06
  -1   3   2 5604.40   72.55
   1  -3  -2 5735.25   96.55
  -1   3   3   13.59    5.57
   1  -3  -3    7.69    4.58
   1  -3  -4  429.98    9.46
  -1   3   4  420.89    8.69
   1  -3  -5   -0.29    5.74
  -1   3   5    6.93    5.96
  -1   3   6  971.26   16.14
   1  -3  -6  879.61   13.20
  -1   3   7  372.63    9.75
   1  -3  -7  382.53    8.11
  -1   3   8  347.48   10.43
   1  -3  -8  365.76   10.87
  -1   3   9   53.96    8.18
   1  -3  -9   46.79   10.39
  -1   4   0 4967.78   89.21
   1  -4   0 4949.82   78.10
   1  -4  -1 5424.72   79.03
  -1   4   1 4850.70   68.36
  -1   4   2  411.96   10.43
   1  -4  -2  437.75   10.38
   1  -4  -3 5886.65   80.23
  -1   4   3 5769.73   89.80
   1  -4  -4    3.39    5.05
  -1   4   4   -0.16    5.76
   1  -4  -5  403.85    9.02
  -1   4   5  414.41    9.53
   1  -4  -6  140.55    5.38
  -1   4   6  151.80    6.15
  -1   4   7 1634.87   23.74
   1  -4  -7 1579.08   23.91
  -1   4   8   10.42    9.42
   1  -4  -8    6.94    6.24
   1  -4  -9  452.89   11.08
  -1   4   9  414.97   11.45
  -1   5   0 1465.70   33.89
   1  -5   0 1444.25   32.43
   1  -5  -1 1559.94   36.61
  -1   5   1 1513.68   32.50
  -1   5   2  116.05    7.03
   1  -5  -2  123.14    6.70
   1  -5  -3    5.19    5.01
  -1   5   3   14.26    4.23
   1  -5  -4 2851.80   41.91
  -1   5   4 2966.75   40.04
   1  -5  -5   31.08    4.10
  -1   5   5   33.35    6.66
   1  -5  -6 1475.36   22.05
  -1   5   6 1593.50   23.07
  -1   5   7   17.56    5.67
   1  -5  -7    8.24    5.28
  -1   5   8   71.70    9.68
   1  -5  -8   72.94    8.89
  -1   5   9    3.13    8.97
   1  -5  -9    2.07   10.70
  -1   6   0   81.65    9.51
   1  -6   0   73.79   10.01
   1  -6  -1 2114.65   47.86
  -1   6   1 1881.31   43.12
  -1   6   2 1228.84   21.92
   1  -6  -2 1335.88   23.69
  -1   6   3 2365.89   41.96
   1  -6  -3 2419.72   36.96
   1  -6  -4  690.13   13.01
  -1   6   4  756.20   14.04
   1  -6  -5 1896.32   28.61
  -1   6   5 1875.70   24.58
   1  -6  -6  847.37   14.34
  -1   6   6  864.47   14.81
  -1   6   7 1304.46   20.60
   1  -6  -7 1307.34   17.83
   1  -6  -8    4.45    8.87
  -1   6   8   -3.71    9.29
  -1   6   9  229.61   10.30
   1  -6  -9  266.12   11.77
   1  -7   0 3537.84   72.99
   1  -7  -2 3478.19   45.45
  -1   7   2 3229.37   48.38
  -1   7   3  264.78    8.50
   1  -7  -3  254.16    7.95
   1  -7  -4 2511.42   33.72
  -1   7   4 2599.38   36.26
   1  -7  -5    1.04    3.94
  -1   7   5    0.25    6.17
   1  -7  -6  328.51    8.50
  -1   7   6  341.75    8.15
  -1   7   7   34.96    6.24
   1  -7  -7   40.65    7.15
  -1   7   8 1255.85   21.84
   1  -7  -8 1214.47   17.69
  -1   8   0 1496.04   37.98
   1  -8   0 1323.87   41.06
   1  -8  -2  620.71   13.65
  -1   8   2  592.21   15.26
   1  -8  -3 1900.78   25.18
  -1   8   3 1817.12   32.28
   1  -8  -4  740.56   12.23
  -1   8   4  699.22   12.76
   1  -8  -5  804.69   13.44
  -1   8   5  810.30   16.00
   1  -8  -6    4.64    4.64
  -1   8   6    3.83    5.52
   1  -8  -7  389.58    8.25
  -1   8   7  391.72   11.64
   1  -8  -8   81.56    7.13
  -1   8   8   78.57   10.64
   1  -9  -2 1325.76   22.97
  -1   9   2 1218.89   23.50
   1  -9  -3   69.08    5.75
  -1   9   3   94.29    7.22
   1  -9  -4 3229.79   38.31
  -1   9   4 3224.49   46.15
   1  -9  -5   38.60    6.16
  -1   9   5   41.14    6.87
   1  -9  -6  470.01    8.93
  -1   9   6  467.55   10.65
   1  -9  -7   66.12    7.38
  -1   9   7   65.46    9.25
   1  -9  -8  254.49    9.85
  -1   9   8  245.77    9.82
   1 -10  -2  170.67    8.73
  -1  10   2  162.05    9.92
  -1  10   3 2587.96   37.13
   1 -10  -3 2853.35   40.69
  -1  10   4 1019.28   18.89
   1 -10  -4 1056.33   15.65
   1 -10  -5  143.81    6.88
  -1  10   5  148.71    8.19
  -1  10   6  243.24    9.30
   1 -10  -6  259.15    8.09
   1 -10  -7  289.84   10.05
  -1  10   7  279.19   10.88
   1 -10  -8    5.09    8.90
  -1  10   8   -5.50   11.43
   1 -11  -2 3352.46   54.23
  -1  11   3  119.22    8.03
   1 -11  -3  125.39    6.79
  -1  11   4  576.94   12.21
   1 -11  -4  654.38   11.89
   1 -11  -5    7.00    6.04
  -1  11   5    1.57    7.40
  -1  11   6  594.08   15.31
   1 -11  -6  625.22   11.50
   1 -11  -7   21.44    8.57
  -1  11   7   16.77    7.39
  -1  11   8  553.19   13.97
   1 -11  -8  635.81   13.33
   1 -12  -2    5.85    7.24
   1 -12  -3 1140.23   19.48
  -1  12   3 1039.66   19.67
  -1  12   4   11.85    7.56
   1 -12  -4   15.89    5.95
  -1  12   5 2910.32   46.68
   1 -12  -5 3113.82   41.73
   1 -12  -6   55.07    7.02
  -1  12   6   51.69    9.05
   1 -12  -7  394.45   10.01
  -1  12   7  342.80   10.15
  -1  12   8    1.06    8.86
   1 -12  -8   -0.28    7.76
   1 -13  -2  911.76   20.78
   1 -13  -3  685.07   13.99
  -1  13   3  625.95   15.85
   1 -13  -4  868.49   14.46
  -1  13   4  803.74   22.07
   1 -13  -5  154.58    7.75
  -1  13   5  127.92    8.30
  -1  13   6  665.35   12.94
   1 -13  -6  767.57   13.50
   1 -13  -7   24.32    6.46
  -1  13   7   22.59    7.83
  -1  13   8  344.09   13.67
   1 -13  -8  406.58   12.28
   1 -14  -2  236.57   13.66
   1 -14  -2  271.77   13.18
   1 -14  -3 1490.10   22.56
   1 -14  -4   20.78    6.63
  -1  14   4   15.55    9.36
   1 -14  -5  376.33   10.32
  -1  14   5  364.55   13.81
  -1  14   6   12.76    9.59
   1 -14  -6   19.32    7.77
  -1  14   7  680.01   15.93
   1 -14  -7  695.20   13.84
   1 -15  -2  543.27   22.75
   1 -15  -2  609.65   23.91
   1 -15  -3   60.59    8.12
   1 -15  -4  974.44   17.32
  -1  15   4  911.87   19.49
   1 -15  -5   48.52    7.51
  -1  15   5   40.84    9.21
   1 -15  -6  604.36   13.07
  -1  15   6  509.08   14.96
   1 -15  -7  144.49   10.01
  -1  15   7  151.79   13.37
   1 -16  -3   63.17    8.46
   1 -16  -4   10.15    8.22
   1 -16  -5 1662.79   24.82
  -1  16   5 1548.66   26.54
   1 -16  -6   31.32    9.11
  -1  16   6   34.74    9.76
  -1  16   7   84.83   11.83
   1 -16  -7   90.33   10.66
   1 -17  -3   69.33    9.64
   1 -17  -4  577.11   13.07
   1 -17  -5   -1.39    7.86
  -1  17   5    1.60   11.63
  -1  17   6  253.71   12.22
   1 -17  -6  290.38   10.82
  -1  17   7   35.33   13.22
   1 -17  -7   34.71   10.17
   1 -18  -3  651.16   20.01
   1 -18  -3  745.51   20.50
   1 -18  -4  127.37   10.63
   1 -18  -5  159.28   10.20
  -1  18   6   42.25   12.45
   1 -18  -6   51.16   10.76
   1 -19  -3  110.47   15.83
   1 -19  -3  111.86   15.74
   1 -19  -4  825.79   19.39
   1 -19  -5   12.48    9.04
   1 -19  -6  854.51   18.10
   1 -20  -4  232.47   13.47
   1 -20  -5  896.61   21.88
   1 -20  -6   91.72   11.99
   1 -21  -4   75.70   14.13
   1 -21  -4   91.64   14.69
   1 -21  -5    1.96   12.38
   1 -22  -5  580.66   20.93
   0 -25   2  160.69   17.79
   0 -25   2  125.54   16.45
   0 -24   1   32.80   15.86
   0 -24   1   27.10   14.94
   0 -24   2  361.53   19.38
   0 -24   2  291.49   15.62
   0 -24   3   -0.05   11.40
   0 -23   1  245.38   18.44
   0 -23   1  218.80   13.68
   0 -23   2   17.49   11.01
   0 -23   3 1171.46   22.79
   0 -23   4   54.22   12.03
   0 -22   1  515.18   18.06
   0 -22   1  524.79   16.81
   0 -22   2  239.41   12.23
   0 -22   3   38.34   10.82
   0  22  -4  303.03   14.42
   0 -22   4  328.89   13.25
   0 -21   1  954.08   23.29
   0 -21   1 1004.08   20.40
   0 -21   2    8.55    8.28
   0 -21   3  217.03   10.52
   0  21  -4    1.24   10.46
   0 -21   4   -0.14    9.82
   0  21  -5  682.99   16.70
   0 -21   5  662.67   16.59
   0 -20   1   46.38   10.78
   0 -20   1   48.25    9.29
   0 -20   2 1089.78   20.60
   0 -20   3  143.36    9.38
   0  20  -4  364.80   12.10
   0 -20   4  386.70   12.00
   0 -20   5  169.39   10.77
   0  20  -5  156.64   11.03
   0 -19   1  771.48   15.62
   0 -19   2    1.47    7.41
   0 -19   3 1011.08   18.11
   0  19  -3  999.86   17.76
   0 -19   4    3.09    7.99
   0  19  -4    4.95    8.79
   0  19  -5  305.81   11.50
   0 -19   5  302.09   10.79
   0  19  -6   36.49   11.00
   0 -19   6   12.14   11.89
   0 -18   1  170.52    8.51
   0 -18   2 1214.80   22.29
   0 -18   3   75.63    8.17
   0  18  -3   68.05    7.47
   0  18  -4  368.65   10.57
   0 -18   4  370.97   10.48
   0  18  -5   98.83    9.29
   0 -18   5  104.34    9.68
   0 -18   6  827.16   17.25
   0  18  -6  777.54   16.59
   0 -17   1 1457.01   23.16
   0 -17   2    0.18    7.13
   0 -17   3   36.56    7.25
   0  17  -3   34.82    7.39
   0  17  -4  138.26    8.54
   0 -17   4  138.34    8.73
   0  17  -5  450.37   11.81
   0 -17   5  457.63   10.40
   0 -17   6   14.31    9.04
   0  17  -6    8.67    9.71
   0 -16   1  139.56    7.43
   0  16  -2 1477.58   23.55
   0 -16   2 1627.60   24.97
   0 -16   3  124.59    7.44
   0  16  -3  118.49    7.31
   0 -16   4 1823.94   30.66
   0  16  -4 1740.83   26.71
   0  16  -5   16.54    8.02
   0 -16   5   19.84    8.29
   0  16  -6   43.78    9.58
   0 -16   6   45.37    8.76
   0  16  -7    1.79    8.28
   0 -16   7    2.32    8.60
   0 -15   1  904.12   17.18
   0 -15   2  437.44   10.44
   0  15  -2  397.08   10.09
   0 -15   3 1202.99   19.85
   0  15  -3 1240.22   20.44
   0 -15   4  117.53    7.97
   0  15  -4  111.60    7.34
   0  15  -5  844.79   15.77
   0 -15   5  890.84   15.41
   0  15  -6   36.20    8.42
   0 -15   6   46.82    9.68
   0  15  -7  268.03   12.79
   0 -15   7  278.28   12.33
   0 -14   1  184.57    7.71
   0 -14   2  481.79   11.26
   0  14  -2  452.49   11.03
   0 -14   3   16.04    6.17
   0  14  -3   16.51    5.90
   0  14  -4  234.17    8.39
   0 -14   4  244.27    8.63
   0  14  -5    0.69    7.06
   0 -14   5   -0.50    5.37
   0  14  -6 1342.79   25.61
   0 -14   6 1373.10   21.32
   0  14  -7   -0.58    9.40
   0 -14   7    7.38   10.55
   0 -13   1 2414.36   41.15
   0 -13   2  241.37    7.86
   0  13  -2  228.84    7.93
   0  13  -3 2492.61   34.75
   0 -13   3 2528.23   32.59
   0 -13   4   76.82    5.53
   0  13  -4   69.74    7.03
   0  13  -5 1239.92   20.57
   0 -13   5 1294.43   19.32
   0  13  -6    1.40    7.41
   0 -13   6    0.56    7.51
   0  13  -7  351.34   11.13
   0 -13   7  345.88   11.84
   0  12  -1   67.00    6.47
   0 -12   1   58.27    6.02
   0 -12   2 3598.36   49.39
   0  12  -2 3577.85   49.71
   0  12  -3   47.61    5.69
   0 -12   3   42.94    6.18
   0  12  -4  877.68   15.45
   0 -12   4  910.66   14.58
   0  12  -5   87.67    7.10
   0 -12   5   85.52    7.15
   0  12  -6  329.94    9.84
   0 -12   6  343.40    9.96
   0  12  -7  190.36   10.25
   0 -12   7  190.60   10.64
   0  11  -1 2402.63   37.42
   0 -11   1 2552.54   34.57
   0 -11   2  128.71    6.42
   0  11  -2  136.02    6.50
   0  11  -3 1187.51   23.23
   0 -11   3 1232.23   17.90
   0  11  -4   47.38    5.70
   0 -11   4   46.80    4.64
   0  11  -5 1008.32   15.48
   0 -11   5 1012.87   15.28
   0  11  -6   37.62    5.85
   0 -11   6   40.90    7.71
   0  11  -7  365.37   10.13
   0 -11   7  387.36   11.62
   0  11  -8  109.21    8.54
   0 -11   8   95.42   10.71
   0  10  -1 2112.42   34.27
   0 -10   1 2221.20   30.85
   0  10  -2 3100.30   46.75
   0 -10   2 3074.35   42.63
   0 -10   3  237.93    7.63
   0  10  -3  242.87    7.50
   0 -10   4  142.22    6.89
   0  10  -4  140.25    6.45
   0 -10   5   34.62    4.94
   0  10  -5   33.49    6.63
   0  10  -6 1936.64   30.58
   0 -10   6 1972.05   27.52
   0  10  -7    4.39    7.86
   0 -10   7   11.66    9.15
   0  10  -8  346.15   11.36
   0 -10   8  348.93   12.74
   0   9  -1  704.91   15.85
   0  -9   1  720.99   13.79
   0  -9   2  202.68    7.63
   0   9  -2  217.54    7.88
   0  -9   3 1907.24   28.22
   0   9  -3 1874.03   25.01
   0  -9   4   39.82    6.24
   0   9  -4   36.40    5.96
   0  -9   5  198.03    7.69
   0   9  -5  198.02    7.83
   0  -9   6   69.17    7.73
   0   9  -6   60.86    7.20
   0   9  -7  274.15   10.47
   0  -9   7  268.68   10.26
   0   9  -8   81.53   10.70
   0  -9   8   84.24   11.23
   0   8  -1 1017.26   18.27
   0  -8   1 1071.78   18.09
   0   8  -2 4515.73   59.96
   0  -8   2 4588.66   58.64
   0  -8   3  272.63    7.83
   0   8  -3  283.98    8.46
   0  -8   4 1943.70   31.34
   0   8  -4 1911.18   28.87
   0  -8   5 1109.89   17.47
   0   8  -5 1076.57   17.20
   0  -8   6  645.54   13.01
   0   8  -6  658.50   12.62
   0  -8   7   95.43    6.87
   0   8  -7   92.97    6.78
   0   8  -8  490.87   13.94
   0  -8   8  484.40   12.52
   0  -7   1 6228.64   99.69
   0   7  -1 5992.17   96.11
   0  -7   2   90.50    5.06
   0   7  -2   84.30    5.37
   0  -7   3  653.37   11.83
   0   7  -3  671.23   12.24
   0  -7   4    8.34    6.07
   0   7  -4    6.10    5.70
   0  -7   5  984.69   15.28
   0   7  -5 1017.67   18.10
   0  -7   6    0.45    6.62
   0   7  -6   13.96    6.53
   0   7  -7 1099.51   17.72
   0  -7   7 1103.37   16.45
   0  -7   8   39.01    7.19
   0   7  -8   42.85    9.76
   0   6  -1  236.26    8.33
   0  -6   1  239.40    8.31
   0  -6   2 4088.65   52.17
   0   6  -2 3839.71   64.91
   0  -6   3    2.28    4.07
   0   6  -3    2.06    5.17
   0  -6   4 2848.87   38.71
   0   6  -4 2691.65   38.61
   0  -6   5  690.37   12.36
   0   6  -5  682.96   12.52
   0  -6   6  371.32    9.66
   0   6  -6  335.63    9.04
   0  -6   7  203.60    9.21
   0   6  -7  214.75    9.34
   0   6  -8  250.26   10.20
   0  -6   8  243.92   11.12
   0   5  -1 4216.03   59.12
   0  -5   1 4094.05   52.04
   0  -5   2  430.02   10.54
   0   5  -2  416.83   10.34
   0   5  -3 5847.23   67.16
   0  -5   3 5942.95   75.26
   0   5  -4   15.09    5.50
   0  -5   4   15.75    4.05
   0   5  -5 1549.58   19.58
   0  -5   5 1610.22   23.22
   0   5  -6   26.32    5.05
   0  -5   6   24.66    7.61
   0  -5   7  576.36   10.83
   0   5  -7  620.17   12.23
   0   5  -8   14.09    8.63
   0  -5   8    8.38    7.20
   0  -4   1 1360.86   22.67
   0   4  -1 1404.33   26.41
   0  -4   2  210.73    6.54
   0   4  -2  230.17    7.56
   0   4  -3   12.55    5.16
   0  -4   3   14.62    4.14
   0   4  -4  984.26   16.40
   0  -4   4  935.00   14.28
   0   4  -5   34.48    5.81
   0  -4   5   35.07    4.99
   0  -4   6 1388.64   21.01
   0   4  -6 1341.93   17.20
   0  -4   7   80.86    8.33
   0   4  -7   82.28    8.01
   0   4  -8  174.71    9.50
   0  -4   8  192.81   10.89
   0  -3   1 4300.23   54.22
   0   3  -1 4310.48   59.21
   0   3  -2  155.45    5.70
   0  -3   2  162.29    6.13
   0   3  -3 1787.96   22.85
   0  -3   3 1855.69   27.12
   0   3  -4    2.65    3.74
   0  -3   4    4.91    4.07
   0   3  -5 1968.10   29.12
   0  -3   5 1734.34   30.14
   0   3  -6   57.32    6.63
   0  -3   6   69.89    7.23
   0   3  -7 1080.31   15.54
   0  -3   7 1065.57   17.08
   0   3  -8   13.81    9.18
   0  -3   8   13.44    7.17
   0   2  -1 3020.11   44.75
   0  -2   1 3235.77   46.52
   0   2  -2 1923.45   27.46
   0  -2   2 1964.38   28.65
   0   2  -3  299.03    7.02
   0  -2   3  286.83    7.75
   0  -2   4 5144.36   67.71
   0   2  -4 4768.58   62.62
   0   2  -5   61.22    6.15
   0  -2   5   71.26    5.26
   0   2  -6   46.29    6.63
   0  -2   6   44.85    7.13
   0  -2   7   12.34    5.72
   0   2  -7    9.11    7.65
   0  -2   8  800.41   17.06
   0   2  -8  746.85   14.84
   0   1  -1 3435.28   49.28
   0  -1   1 3222.00   50.54
   0   1  -2  195.23    6.38
   0  -1   2  182.87    6.27
   0  -1   3 3184.20   44.05
   0   1  -3 3236.10   41.38
   0  -1   4  635.49   11.76
   0   1  -4  610.34   11.16
   0   1  -5  465.63    9.44
   0  -1   5  514.78    9.90
   0   1  -6   -4.13    6.52
   0  -1   6    3.89    6.79
   0   1  -7  285.28    8.75
   0  -1   7  304.16    9.33
   0  -1   8   53.09    7.27
   0   1  -8   41.98    8.53
   0   0  -1    1.70    4.92
   0   0   1   -6.51    5.69
   0   0  -2  292.01    7.58
   0   0   2  318.72    8.99
   0   0  -3   -0.43    3.68
   0   0   3    0.73    4.09
   0   0   4 2632.66   36.84
   0   0  -4 2751.67   35.02
   0   0  -5    1.76    5.34
   0   0   5    2.22    4.60
   0   0  -6 1535.58   19.48
   0   0   6 1580.29   23.01
   0   0  -7    1.48    6.87
   0   0   7    1.99    7.87
   0   0   8  864.35   15.06
   0   0  -8  836.98   12.80
   0  -1  -1 3384.41   49.94
   0   1   1 3240.83   50.84
   0  -1  -2  183.50    6.08
   0   1   2  191.50    6.61
   0  -1  -3 3297.34   46.96
   0   1   3 3225.00   45.22
   0  -1  -4  610.64   12.05
   0   1   4  608.25   11.92
   0  -1  -5  475.97    8.92
   0   1   5  502.89   10.27
   0  -1  -6    3.06    6.18
   0   1   6    2.08    7.03
   0  -1  -7  297.92    7.66
   0   1   7  301.72   10.13
   0   1   8   54.40    9.44
   0  -1  -8   61.78    9.43
   0  -2   0 3739.07   68.42
   0  -2  -1 2855.26   45.65
   0   2   1 2792.79   45.07
   0  -2  -2 1808.82   27.71
   0   2   2 1831.02   25.78
   0  -2  -3  293.72    8.48
   0   2   3  303.69    7.37
   0  -2  -4 5165.05   61.41
   0   2   4 5148.14   67.55
   0  -2  -5   67.26    4.98
   0   2   5   63.53    6.43
   0  -2  -6   40.80    6.22
   0   2   6   47.29    7.14
   0  -2  -7    7.21    7.06
   0   2   7    7.08    8.08
   0  -2  -8  778.28   14.57
   0   2   8  805.32   16.97
   0  -3   0    1.60    5.56
   0  -3  -1 3447.76   55.70
   0   3   1 3454.81   66.05
   0  -3  -2  175.82    6.05
   0   3   2  156.03    7.17
   0  -3  -3 1811.06   25.66
   0   3   3 1777.87   26.34
   0  -3  -4   -3.31    5.08
   0   3   4    6.07    4.21
   0  -3  -5 1924.55   29.88
   0   3   5 1987.05   28.34
   0  -3  -6   60.51    5.05
   0   3   6   56.58    6.77
   0  -3  -7 1123.11   15.73
   0   3   7 1174.57   19.09
   0   3   8    6.55   10.12
   0  -3  -8   16.47    6.59
   0  -4   0 2930.74   53.44
   0   4   1 1266.97   24.04
   0  -4  -1 1279.99   25.51
   0  -4  -2  196.72    6.28
   0   4   2  215.58    8.29
   0  -4  -3   13.60    5.31
   0   4   3   11.26    4.26
   0   4   4  765.27   14.49
   0  -4  -4  976.78   15.66
   0  -4  -5   36.45    6.39
   0   4   5   42.36    6.41
   0   4   6 1419.54   21.17
   0  -4  -6 1345.54   19.61
   0   4   7   86.59    8.96
   0  -4  -7   91.62    6.15
   0   4   8  194.08   10.86
   0  -4  -8  183.03    9.67
   0  -5   0    3.46    5.05
   0   5   1 3623.34   54.34
   0  -5  -1 3591.42   63.66
   0   5   2  410.61   10.93
   0  -5  -2  409.02   10.04
   0  -5  -3 5815.67   77.42
   0   5   3 5610.93   87.73
   0   5   4   14.30    4.69
   0  -5  -4   13.99    5.58
   0  -5  -5 1576.47   21.01
   0   5   5 1644.67   24.59
   0  -5  -6   31.53    7.07
   0   5   6   25.28    7.51
   0  -5  -7  568.63   11.43
   0   5   7  589.63   11.89
   0  -5  -8   10.67    8.51
   0   5   8   20.52   10.35
   0  -6   0 1032.48   23.86
   0   6   1  211.86    9.34
   0  -6  -1  226.84    9.26
   0   6   2 3339.57   53.73
   0  -6  -2 3527.56   51.93
   0   6   3    2.43    6.15
   0  -6  -3    2.95    3.73
   0  -6  -4 2782.08   36.80
   0   6   4 2816.41   46.83
   0  -6  -5  662.97   10.68
   0   6   5  736.59   14.32
   0  -6  -6  357.91    7.91
   0   6   6  324.10    8.21
   0  -6  -7  186.72    6.60
   0   6   7  213.15    8.20
   0  -6  -8  219.59    8.01
   0   6   8  240.25   11.77
   0  -7   0   -0.55    5.20
   0  -7  -1 5273.00   85.43
   0  -7  -2   86.47    6.24
   0   7   2   77.99    6.87
   0   7   3  625.80   13.48
   0  -7  -3  702.27   12.06
   0  -7  -4    4.15    5.72
   0   7   4    8.22    6.52
   0  -7  -5 1027.06   16.74
   0   7   5  906.93   17.95
   0  -7  -6    7.51    6.91
   0   7   6    6.12    7.58
   0  -7  -7 1052.70   16.66
   0   7   7 1124.80   23.92
   0  -7  -8   39.93    9.89
   0   7   8   49.09    8.29
   0  -8   0 4186.18   64.46
   0  -8  -1  915.74   18.25
   0   8   2 4013.03   55.41
   0  -8  -2 3434.81   48.20
   0   8   3  243.74    8.92
   0  -8  -3  263.33    7.93
   0  -8  -4 1844.52   26.26
   0   8   4 1811.56   25.46
   0   8   5 1043.44   18.20
   0  -8  -5 1051.57   16.57
   0   8   6  605.36   12.09
   0  -8  -6  629.94   12.72
   0   8   7   91.84    7.30
   0  -8  -7   98.92    8.74
   0  -8  -8  478.69   12.61
   0   8   8  474.29   12.14
   0  -9   0    1.16    5.92
   0  -9  -1  655.29   15.48
   0   9   2  193.53    8.48
   0  -9  -2  198.25    7.73
   0   9   3 1786.33   28.91
   0  -9  -3 1966.78   28.94
   0   9   4   32.98    4.84
   0  -9  -4   30.19    6.01
   0  -9  -5  196.33    7.74
   0   9   5  171.60    8.17
   0   9   6   60.75    8.29
   0  -9  -6   59.30    5.77
   0   9   7  244.08   11.08
   0  -9  -7  255.26    9.13
   0   9   8   85.07   11.55
   0  -9  -8   75.34    9.64
   0 -10   0 4457.68   67.19
   0 -10  -1 2003.83   35.83
   0 -10  -2 2846.15   41.09
   0  10   2 2833.55   41.90
   0  10   3  228.91    9.17
   0 -10  -3  227.91    7.67
   0  10   4  132.84    7.53
   0 -10  -4  137.71    6.78
   0  10   5   35.09    5.72
   0 -10  -5   33.02    6.66
   0  10   6 1839.10   35.52
   0 -10  -6 1852.48   29.21
   0  10   7    8.60    7.52
   0 -10  -7    9.22    6.53
   0 -10  -8  330.65    9.60
   0  10   8  340.98   12.76
   0 -11   0    2.54    4.86
   0 -11  -1 2280.55   39.98
   0 -11  -2  147.25    7.19
   0  11   3 1060.74   18.69
   0 -11  -3 1146.58   18.16
   0  11   4   42.29    5.78
   0 -11  -4   46.09    5.98
   0  11   5  893.08   15.90
   0 -11  -5  967.24   16.52
   0 -11  -6   45.51    7.46
   0  11   6   37.52    9.02
   0  11   7  376.55   12.65
   0 -11  -7  376.91    9.16
   0 -11  -8   91.53    8.27
   0  11   8   97.00   12.09
   0 -12   0   11.82    6.08
   0 -12  -1   62.36    6.70
   0 -12  -2 3542.43   54.05
   0 -12  -3   47.07    5.83
   0  12   3   41.29    7.38
   0  12   4  812.88   15.13
   0 -12  -4  857.52   16.36
   0  12   5   97.49    9.42
   0 -12  -5   95.99    7.44
   0  12   6  293.84   11.91
   0 -12  -6  332.94    9.95
   0  12   7  178.71   11.66
   0 -12  -7  181.28    8.11
   0 -13   0    1.54    6.18
   0 -13   0   -1.18    6.26
   0 -13  -1 2142.05   33.22
   0 -13  -1 2138.63   32.32
   0 -13  -2  252.38    8.80
   0  13   3 2225.43   38.25
   0 -13  -3 2401.06   34.85
   0  13   4   63.10    7.89
   0 -13  -4   66.18    6.54
   0  13   5 1158.84   19.36
   0 -13  -5 1229.98   20.22
   0  13   6   -3.01   10.03
   0 -13  -6   -2.40    7.83
   0 -13  -7  335.24    9.36
   0  13   7  326.61   11.27
   0 -14   0 2406.36   39.25
   0 -14   0 2577.21   49.75
   0 -14  -1  183.31    9.76
   0 -14  -1  176.98    7.86
   0 -14  -2  453.00   11.26
   0 -14  -3   11.38    6.36
   0  14   4  224.93    7.98
   0 -14  -4  231.38    8.44
   0  14   5   -1.68    8.22
   0 -14  -5    0.89    7.12
   0  14   6 1188.90   22.87
   0 -14  -6 1243.19   21.23
   0 -14  -7    6.20    9.68
   0  14   7   -1.43   11.12
   0 -15   0   -2.09    8.12
   0 -15   0   -4.00    6.94
   0 -15  -1  972.26   19.13
   0 -15  -1  873.15   21.75
   0 -15  -2  443.00   11.34
   0 -15  -3 1199.39   19.98
   0  15   4  107.83    8.86
   0 -15  -4  114.35    7.47
   0  15   5  760.86   17.05
   0 -15  -5  854.50   15.89
   0  15   6   32.11   10.46
   0 -15  -6   44.46    8.90
   0  15   7  242.41   13.63
   0 -15  -7  263.09   11.95
   0 -16   0   93.80    8.95
   0 -16   0  107.38    8.28
   0 -16  -1  141.26    7.93
   0 -16  -1  140.97    9.62
   0 -16  -2 1416.02   23.72
   0 -16  -3  116.51    7.93
   0 -16  -4 1900.42   28.58
   0  16   5   14.70   10.04
   0 -16  -5   22.77    7.33
   0  16   6   40.69   11.10
   0 -16  -6   44.99    9.24
   0  16   7   -0.27   13.30
   0 -16  -7   -0.61    9.93
   0 -17   0   -0.07    7.38
   0 -17   0    0.47    7.09
   0 -17  -1 1501.27   26.71
   0 -17  -1 1470.73   27.72
   0 -17  -2    2.06    7.33
   0 -17  -2    3.16    7.29
   0 -17  -3   39.15    8.81
   0 -17  -4  136.04    8.66
   0 -17  -5  462.39   11.91
   0 -17  -6   15.23    9.42
   0  17   6    9.84   11.04
   0 -18   0 2806.61   52.59
   0 -18   0 2579.62   51.66
   0 -18  -1  172.74   10.47
   0 -18  -1  172.20    9.81
   0 -18  -2 1196.19   22.33
   0 -18  -2 1244.60   22.37
   0 -18  -3   76.61    8.07
   0 -18  -4  375.35   11.11
   0 -18  -5  104.06    9.70
   0 -18  -6  825.01   17.00
   0 -19   0   -1.24    9.95
   0 -19   0   -1.41    8.56
   0 -19  -1  789.37   18.43
   0 -19  -1  742.72   18.32
   0 -19  -2    3.81    8.59
   0 -19  -2    3.56    7.38
   0 -19  -3 1017.23   19.71
   0 -19  -4    3.94    8.73
   0 -19  -5  319.41   11.65
   0 -19  -6   35.26   11.24
   0 -20   0  355.03   13.91
   0 -20   0  361.03   12.37
   0 -20  -1   53.15   10.02
   0 -20  -1   48.31   10.08
   0 -20  -2 1079.15   25.93
   0 -20  -2 1169.68   22.68
   0 -20  -3  136.85    9.87
   0 -20  -3  139.77   10.62
   0 -20  -4  379.50   12.39
   0 -20  -5  164.90   10.52
   0 -21   0    1.61   10.60
   0 -21   0    0.05   10.24
   0 -21  -1 1043.06   22.02
   0 -21  -1 1018.80   22.56
   0 -21  -2   14.28   10.05
   0 -21  -2   13.15   10.02
   0 -21  -3  239.65   12.41
   0 -21  -3  220.33   12.66
   0 -21  -4    3.76   10.84
   0 -21  -5  692.70   16.97
   0 -22   0  233.93   13.49
   0 -22   0  247.96   15.31
   0 -22  -1  514.92   18.07
   0 -22  -1  538.38   18.30
   0 -22  -2  241.78   13.41
   0 -22  -2  228.23   13.72
   0 -22  -3   39.60   11.69
   0 -22  -3   35.73   11.47
   0 -22  -4  299.04   15.76
   0 -22  -4  322.72   13.92
   0 -23   0    1.36   14.22
   0 -23   0    2.51   14.48
   0 -23  -1  227.56   16.16
   0 -23  -1  226.06   16.26
   0 -23  -2   14.04   13.32
   0 -23  -2   16.94   12.72
   0 -23  -3 1205.13   25.88
   0 -23  -3  982.29   24.88
   0 -23  -4   52.91   13.53
   0 -23  -4   31.95   13.97
   0 -24  -2  324.75   19.51
   0 -24  -2  247.13   19.59
   0 -24  -3   -0.17   14.50
   0 -24  -3   -1.56   13.95
   1 -23   3   59.81   16.97
   1 -22   2  157.42   19.56
   1 -22   3 1015.26   26.64
  -1  22  -4    6.32   13.55
   1 -22   4    6.79   12.32
   1 -21   2  292.72   16.46
   1 -21   3   36.15   12.16
  -1  21  -4  581.58   15.90
   1 -21   4  667.26   18.71
   1 -20   2   53.18   11.91
   1 -20   3  405.75   13.34
  -1  20  -3  437.74   12.83
  -1  20  -4  203.18   11.17
   1 -20   4  208.12   11.67
  -1  20  -5  212.66   12.41
   1 -20   5  207.69   14.18
   1 -19   2 1594.91   32.08
  -1  19  -3   14.58    9.68
   1 -19   3   14.87   10.02
  -1  19  -4   12.66    9.81
   1 -19   4    9.31    9.67
  -1  19  -5    0.83    9.78
   1 -19   5    2.99   10.04
   1 -18   1   16.45   12.19
  -1  18  -2    8.45    9.32
   1 -18   2   12.02    7.61
  -1  18  -3  522.28   14.74
   1 -18   3  542.83   14.17
  -1  18  -4    9.44    9.67
   1 -18   4    7.86    8.48
  -1  18  -5  370.91   12.58
   1 -18   5  372.78   13.09
   1 -17   1    8.54   10.16
  -1  17  -2  912.25   18.78
   1 -17   2  888.97   18.34
  -1  17  -3  198.20    9.10
   1 -17   3  192.71   10.41
   1 -17   4  752.68   15.31
  -1  17  -4  785.69   15.76
  -1  17  -5   37.94    8.94
   1 -17   5   38.29    9.87
  -1  17  -6  457.18   13.09
   1 -17   6  442.27   14.01
   1 -16   1 1803.46   34.20
  -1  16  -2   78.26    7.62
   1 -16   2   84.37    9.09
   1 -16   3  916.61   16.75
  -1  16  -3  844.21   15.77
  -1  16  -4   30.83    8.20
   1 -16   4   32.78    8.34
  -1  16  -5   72.17    9.13
   1 -16   5   75.36    8.87
  -1  16  -6   22.65    9.75
   1 -16   6   23.04    9.77
   1 -15   1  131.50    9.23
  -1  15  -2 1938.82   31.71
   1 -15   2 1982.16   28.51
  -1  15  -3   63.94    8.12
   1 -15   3   57.17    7.13
  -1  15  -4  629.03   14.01
   1 -15   4  620.89   12.90
  -1  15  -5  104.18    8.52
   1 -15   5  112.58    8.86
  -1  15  -6  340.44   11.11
   1 -15   6  343.10   12.06
  -1  14  -1   82.90    8.58
   1 -14   1   84.35    8.08
   1 -14   2    0.83    6.56
  -1  14  -2   -1.16    7.38
  -1  14  -3 2324.29   39.13
   1 -14   3 2383.43   31.65
  -1  14  -4   32.85    5.38
   1 -14   4   38.96    7.36
   1 -14   5 1026.00   18.37
  -1  14  -5 1019.25   15.55
   1 -14   6   -2.39    9.78
  -1  14  -6   -1.72    7.10
   1 -13   1   63.59    6.76
  -1  13  -1   62.50    7.49
   1 -13   2 1184.79   20.79
  -1  13  -2 1224.07   26.14
  -1  13  -3  144.25    7.37
   1 -13   3  149.50    7.70
  -1  13  -4  420.80   10.76
   1 -13   4  433.00   10.38
  -1  13  -5    3.23    7.53
   1 -13   5    5.98    8.02
  -1  13  -6  435.10   10.74
   1 -13   6  447.73   13.07
   1 -13   7   15.78   12.05
  -1  13  -7   11.26    8.03
  -1  12  -1 3752.64   56.81
   1 -12   1 4113.41   54.85
  -1  12  -2   34.93    6.06
   1 -12   2   29.94    6.30
  -1  12  -3 1038.82   20.62
   1 -12   3 1012.87   16.02
  -1  12  -4   25.92    5.21
   1 -12   4   18.24    6.83
   1 -12   5  197.93    8.78
  -1  12  -5  194.80    8.82
   1 -12   6  161.59    9.40
  -1  12  -6  147.02    8.94
   1 -12   7  455.90   13.98
  -1  12  -7  412.28   13.84
  -1  11  -1   41.30    5.96
   1 -11   1   42.36    6.19
  -1  11  -2  861.18   16.77
   1 -11   2  861.72   16.20
   1 -11   3  190.38    7.36
  -1  11  -3  185.89    7.34
   1 -11   4  985.74   16.31
  -1  11  -4  993.45   18.41
  -1  11  -5    3.00    7.48
   1 -11   5    2.97    7.52
  -1  11  -6  701.23   13.26
   1 -11   6  729.42   15.47
   1 -11   7   28.45   10.96
  -1  11  -7   29.75    9.52
  -1  10  -1 1188.57   20.35
   1 -10   1 1096.53   20.41
   1 -10   2  389.44    9.69
  -1  10  -2  393.16    9.49
  -1  10  -3 1079.19   18.04
   1 -10   3 1126.57   16.99
   1 -10   4  162.87    7.57
  -1  10  -4  155.00    7.20
   1 -10   5 1420.80   22.91
  -1  10  -5 1462.98   20.97
  -1  10  -6   21.82    7.79
   1 -10   6   24.03    8.50
  -1  10  -7  126.75   10.21
   1 -10   7  139.27   11.02
  -1   9  -1  124.56    7.04
   1  -9   1  119.17    6.99
   1  -9   2 2356.74   31.35
  -1   9  -2 2308.57   29.82
  -1   9  -3  257.47    7.61
   1  -9   3  269.01    8.06
  -1   9  -4  800.56   13.42
   1  -9   4  819.24   13.52
   1  -9   5  158.37    8.03
  -1   9  -5  144.61    5.80
   1  -9   6  762.09   15.90
  -1   9  -6  743.58   13.95
  -1   9  -7   19.23    7.17
   1  -9   7   25.30   10.45
   1  -8   1 2773.56   44.32
  -1   8  -1 2968.30   44.72
   1  -8   2 1608.50   24.59
  -1   8  -2 1619.46   23.96
  -1   8  -3  711.69   11.98
   1  -8   3  760.41   13.38
  -1   8  -4    2.36    5.92
   1  -8   4    5.25    6.19
  -1   8  -5  601.47   10.14
   1  -8   5  633.16   11.35
   1  -8   6  139.10    8.54
  -1   8  -6  123.53    7.92
   1  -8   7  494.04   13.29
  -1   8  -7  448.92   11.93
  -1   7  -1  211.26    8.10
   1  -7   1  207.29    8.37
  -1   7  -2  342.00    9.00
   1  -7   2  349.72    9.34
   1  -7   3  145.84    6.97
  -1   7  -3  146.10    6.67
  -1   7  -4 2703.45   36.73
   1  -7   4 2748.18   40.53
   1  -7   5   22.23    7.14
  -1   7  -5   22.54    6.83
  -1   7  -6  252.28    8.36
   1  -7   6  261.66    7.71
   1  -7   7   81.15    7.24
  -1   7  -7   77.44    8.39
  -1   7  -8  191.96   12.14
   1  -7   8  201.61   10.11
  -1   6  -1 5617.55   70.30
   1  -6   1 5391.07   84.48
  -1   6  -2    2.40    3.89
   1  -6   2   12.88    5.68
  -1   6  -3  750.34   12.86
   1  -6   3  741.33   13.29
  -1   6  -4  162.56    7.07
   1  -6   4  171.03    7.47
  -1   6  -5  899.63   13.41
   1  -6   5  974.03   17.93
  -1   6  -6  804.47   13.76
   1  -6   6  882.38   16.40
  -1   6  -7  465.24   10.28
   1  -6   7  456.62   12.52
  -1   6  -8   68.18   10.76
   1  -6   8   76.30   11.75
  -1   5  -1   40.12    5.59
   1  -5   1   42.32    6.05
  -1   5  -2 4502.45   68.47
   1  -5   2 4323.19   60.19
  -1   5  -3   92.77    6.09
   1  -5   3   91.91    6.43
  -1   5  -4  831.83   13.48
   1  -5   4  788.36   13.19
  -1   5  -5   -0.39    4.76
   1  -5   5    1.33    6.88
  -1   5  -6  260.40    8.72
   1  -5   6  257.66    7.75
  -1   5  -7    5.80    6.09
   1  -5   7    4.00    8.46
   1  -5   8  426.38   14.52
  -1   5  -8  393.83   12.05
   1  -4   1 3886.85   61.14
  -1   4  -1 3732.97   53.05
  -1   4  -2  944.24   17.85
   1  -4   2  952.57   18.49
  -1   4  -3 2834.15   40.27
   1  -4   3 3103.11   43.53
  -1   4  -4   20.97    4.45
   1  -4   4   18.88    4.59
  -1   4  -5 2794.83   37.10
   1  -4   5 2734.13   41.89
  -1   4  -6   57.14    6.83
   1  -4   6   52.27    8.33
  -1   4  -7  106.81    6.64
   1  -4   7  123.77    9.02
   1  -4   8    1.18    8.54
  -1   4  -8   -6.74   10.77
  -1   3  -1 4933.55   62.33
   1  -3   1 5013.65   96.91
  -1   3  -2 2856.41   38.78
   1  -3   2 2776.14   40.43
  -1   3  -3  407.14    8.26
   1  -3   3  407.49   10.13
  -1   3  -4 2204.36   31.86
   1  -3   4 2697.55   41.75
  -1   3  -5   43.84    6.39
   1  -3   5   52.99    6.90
  -1   3  -6  647.19   10.97
   1  -3   6  666.83   13.00
  -1   3  -7   11.55    8.00
   1  -3   7    6.10    8.73
  -1   3  -8  159.83   10.78
   1  -3   8  165.60   12.21
   1  -2   1 9460.93  120.94
  -1   2  -1 9999.00  137.10
   1  -2   2  131.29    7.18
  -1   2  -2  115.54    6.31
  -1   2  -3 1530.92   25.76
   1  -2   3 1515.97   23.23
  -1   2  -4  143.69    6.60
   1  -2   4  134.33    6.88
  -1   2  -5  279.52    7.44
   1  -2   5  295.18    8.90
  -1   2  -6    4.83    5.46
   1  -2   6    4.18    7.46
  -1   2  -7 1048.85   14.47
   1  -2   7 1106.54   19.89
   1  -2   8   77.95    8.90
  -1   2  -8   77.10   10.56
   1  -1   1 1787.95   28.09
  -1   1  -1 1733.33   28.35
  -1   1  -2 1781.60   26.94
   1  -1   2 1681.83   27.53
  -1   1  -3  250.10    6.98
   1  -1   3  259.88    7.25
  -1   1  -4 1089.62   15.99
   1  -1   4 1167.04   19.99
  -1   1  -5   29.62    6.15
   1  -1   5   38.91    6.86
  -1   1  -6  744.43   12.01
   1  -1   6  737.97   15.38
  -1   1  -7   39.23    6.05
   1  -1   7   43.09    6.98
   1  -1   8  550.85   14.30
  -1   1  -8  525.40   12.86
  -1   0   0    1.19    4.11
   1   0   1  519.26   11.98
  -1   0  -1  480.83   12.66
   1   0   2   -2.84    4.35
  -1   0  -2   -0.15    3.83
  -1   0  -3 1951.76   27.95
   1   0   3 2096.07   32.92
  -1   0  -4    3.83    4.02
   1   0   4    3.77    4.36
  -1   0  -5  972.92   16.00
   1   0   5  974.28   18.32
  -1   0  -6    6.93    5.31
   1   0   6    0.05    8.06
   1   0   7  152.67    9.52
  -1   0  -7  136.97    6.88
  -1   0  -8    2.40    7.71
   1   0   8    5.16   11.49
  -1  -1  -1 1739.31   30.49
   1   1   1 1756.73   34.38
   1   1   2 1703.40   24.50
  -1  -1  -2 1739.28   25.88
  -1  -1  -3  260.51    7.70
   1   1   3  268.17    7.72
  -1  -1  -4 1127.00   17.43
   1   1   4 1105.91   18.78
  -1  -1  -5   36.30    6.63
   1   1   5   33.75    7.01
  -1  -1  -6  732.55   13.67
   1   1   6  730.88   15.80
   1   1   7   54.50    9.57
  -1  -1  -7   35.96    8.61
   1   1   8  524.91   11.75
  -1  -1  -8  531.01   12.82
  -1  -2  -1 9606.36  149.84
   1   2   1 9465.00  150.82
   1   2   2  111.83    5.66
  -1  -2  -2  117.33    5.18
   1   2   3 1680.88   27.86
  -1  -2  -3 1266.75   22.99
  -1  -2  -4  152.37    6.85
   1   2   4  160.15    7.63
  -1  -2  -5  272.55    8.07
   1   2   5  284.33    9.65
   1   2   6    3.54    7.78
  -1  -2  -6    5.27    6.98
   1   2   7 1107.91   20.35
  -1  -2  -7 1115.16   17.42
   1   2   8   71.09    8.86
  -1  -2  -8   64.30    9.49
  -1  -3  -1 4699.88   65.51
   1   3   1 4448.99   72.10
   1   3   2 2596.76   43.00
  -1  -3  -2 2726.35   43.51
   1   3   3  428.40    9.75
  -1  -3  -3  407.45    8.61
   1   3   4 2682.80   41.85
  -1  -3  -4 2756.30   36.28
   1   3   5   56.33    7.09
  -1  -3  -5   52.62    6.40
   1   3   6  670.42   14.13
  -1  -3  -6  637.61   12.36
   1   3   7    3.35    9.60
  -1  -3  -7    7.25    6.48
   1   3   8  161.04   11.91
  -1  -3  -8  142.28    9.68
  -1  -4  -1 3659.96   57.28
   1   4   1 3603.59   52.63
   1   4   2  979.54   20.06
  -1  -4  -2  983.15   16.56
   1   4   3 2775.46   51.90
  -1  -4  -3 2850.58   41.15
   1   4   4   22.89    6.43
  -1  -4  -4   14.21    5.85
   1   4   5 2664.52   34.44
  -1  -4  -5 2820.73   37.58
   1   4   6   59.80    8.39
  -1  -4  -6   55.95    5.56
  -1  -4  -7  116.14    9.20
   1   4   7  112.09    9.35
   1   4   8    0.89   11.66
  -1  -4  -8    2.66    9.63
  -1  -5  -1   33.85    5.84
   1   5   1   37.64    6.36
   1   5   2 4203.98   56.35
  -1  -5  -2 4120.96   66.10
   1   5   3   85.58    5.23
  -1  -5  -3   91.69    4.78
   1   5   4  754.42   15.73
  -1  -5  -4  771.39   13.24
   1   5   5    3.37    7.28
  -1  -5  -5   -1.00    6.64
  -1  -5  -6  264.17    8.99
   1   5   6  259.47    9.89
   1   5   7   16.97    9.46
  -1  -5  -7    4.37    6.28
   1   5   8  380.02   13.62
  -1  -5  -8  386.01   11.63
  -1  -6  -1 5225.08   93.65
   1   6   2    0.80    4.46
  -1  -6  -2   27.81    4.23
   1   6   3  693.78   14.38
  -1  -6  -3  740.51   12.36
   1   6   4  165.98    7.91
  -1  -6  -4  164.32    5.78
   1   6   5  940.92   14.72
  -1  -6  -5  919.80   16.84
   1   6   6  877.58   14.15
  -1  -6  -6  860.54   14.17
   1   6   7  454.83   12.32
  -1  -6  -7  440.44   12.09
   1   6   8   66.46   11.95
  -1  -6  -8   67.42    8.11
  -1  -7  -1  172.32    8.68
   1   7   2  331.40    8.35
  -1  -7  -2  340.45    9.18
   1   7   3  137.73    6.23
  -1  -7  -3  140.86    6.73
   1   7   4 2761.76   41.19
  -1  -7  -4 2791.04   37.57
   1   7   5   28.82    7.65
  -1  -7  -5   23.54    4.97
  -1  -7  -6  258.36    9.41
   1   7   6  234.31    7.89
   1   7   7   70.74    9.95
  -1  -7  -7   73.82    6.94
   1   7   8  193.60   12.94
  -1  -7  -8  197.74   11.55
  -1  -8  -1 2735.33   64.39
   1   8   2 1549.50   24.45
  -1  -8  -2 1563.04   25.95
   1   8   3  706.51   13.84
  -1  -8  -3  726.18   12.40
   1   8   4   -0.56    5.57
  -1  -8  -4   -2.92    4.67
   1   8   5  647.18   14.54
  -1  -8  -5  613.58   11.52
   1   8   6  127.27    9.35
  -1  -8  -6  140.50    6.53
   1   8   7  498.37   13.93
  -1  -8  -7  445.05   11.98
  -1  -9   0 6616.82  106.09
  -1  -9  -1  123.60    7.63
  -1  -9  -2 2333.64   43.42
   1   9   2 2159.28   36.99
   1   9   3  239.39    7.30
  -1  -9  -3  241.01    7.87
   1   9   4  770.95   13.05
  -1  -9  -4  786.22   15.74
   1   9   5  162.15    9.84
  -1  -9  -5  142.87    7.61
   1   9   6  755.59   19.43
  -1  -9  -6  746.18   14.51
   1   9   7   22.80    8.64
  -1  -9  -7   27.64    9.42
  -1 -10   0  298.33    8.61
  -1 -10  -1 1131.19   28.18
  -1 -10  -2  354.29   10.23
   1  10   3  972.09   18.30
  -1 -10  -3 1057.98   17.67
   1  10   4  144.95    6.45
  -1 -10  -4  122.72    6.80
   1  10   5 1370.87   20.04
  -1 -10  -5 1357.12   24.90
   1  10   6   29.03    9.67
  -1 -10  -6   20.54    8.09
   1  10   7  120.42   11.88
  -1 -10  -7  120.03   10.00
  -1 -11   0 2303.39   35.90
  -1 -11  -1   41.90    6.68
  -1 -11  -2  797.00   17.28
   1  11   3  176.75    8.29
  -1 -11  -3  172.21    5.91
   1  11   4  913.58   16.34
  -1 -11  -4  964.71   18.20
   1  11   5    8.86    8.16
  -1 -11  -5    1.18    5.46
   1  11   6  672.46   13.96
  -1 -11  -6  667.22   13.33
   1  11   7   23.48   10.88
  -1 -11  -7   26.11   10.34
  -1 -12   0  352.53    8.65
  -1 -12  -1 4072.76   94.90
  -1 -12  -2   34.97    6.40
  -1 -12  -3  960.16   16.51
   1  12   4   23.77    8.37
  -1 -12  -4   26.58    5.15
   1  12   5  186.03    9.98
  -1 -12  -5  179.06    7.10
   1  12   6  138.02   10.93
  -1 -12  -6  145.03    9.57
   1  12   7  384.54   12.96
  -1 -12  -7  402.43   12.25
  -1 -13   0  777.21   16.66
  -1 -13   0  781.41   15.19
  -1 -13  -1   66.67    5.40
  -1 -13  -2 1185.50   24.02
  -1 -13  -3  138.90    6.14
   1  13   4  384.52   11.50
  -1 -13  -4  415.07    9.82
   1  13   5    1.45    9.73
  -1 -13  -5   -1.62    5.79
   1  13   6  432.46   11.16
  -1 -13  -6  446.70   11.87
   1  13   7   29.52   12.37
  -1 -13  -7   14.38   10.77
  -1 -14   0   16.31    6.82
  -1 -14   0   17.15    5.92
  -1 -14  -1   86.27    7.19
  -1 -14  -2    5.37    4.75
  -1 -14  -3 2229.03   35.28
  -1 -14  -4   28.99    6.80
   1  14   5  915.61   15.78
  -1 -14  -5  987.95   19.88
   1  14   6    4.16   10.25
  -1 -14  -6    3.34    9.55
  -1 -15   0 1039.24   17.56
  -1 -15   0 1022.38   18.82
  -1 -15  -1  127.81    8.03
  -1 -15  -1  133.22    6.16
  -1 -15  -2 1950.30   32.77
  -1 -15  -3   65.34    7.40
  -1 -15  -4  631.89   14.41
  -1 -15  -5  105.18    9.15
   1  15   5   98.60    8.18
   1  15   6  311.22   13.78
  -1 -15  -6  342.36   11.75
  -1 -16   0   36.45    7.09
  -1 -16   0   41.38    6.17
  -1 -16  -1 1765.31   31.92
  -1 -16  -1 1676.92   24.72
  -1 -16  -2   90.62    5.95
  -1 -16  -3  869.35   15.22
  -1 -16  -4   31.51    7.80
  -1 -16  -5   72.29    9.27
  -1 -16  -6   30.83    8.11
  -1 -17   0  614.62   14.07
  -1 -17   0  604.61   13.33
  -1 -17  -1    5.39    7.28
  -1 -17  -1    8.64    6.57
  -1 -17  -2  916.17   19.17
  -1 -17  -3  211.06    9.34
  -1 -17  -4  801.87   15.64
  -1 -17  -5   34.54    8.76
  -1 -17  -6  455.33   14.50
  -1 -18   0  222.76    9.18
  -1 -18   0  237.25    8.37
  -1 -18  -1   13.62    7.55
  -1 -18  -1   19.69    7.03
  -1 -18  -2   10.84    7.76
  -1 -18  -3  518.34   12.43
  -1 -18  -4    9.50    7.89
  -1 -18  -5  385.91   12.50
  -1 -19   0  517.63   13.80
  -1 -19   0  539.12   12.11
  -1 -19  -1    6.75    8.30
  -1 -19  -1    2.65    6.73
  -1 -19  -2 1501.64   24.27
  -1 -19  -2 1495.74   25.75
  -1 -19  -3   16.34    6.27
  -1 -19  -4   10.31    9.31
  -1 -19  -5   -3.61    9.50
  -1 -20   0  338.47   12.93
  -1 -20   0  330.69   10.92
  -1 -20  -1  732.67   16.77
  -1 -20  -1  735.26   17.96
  -1 -20  -2   52.74    9.01
  -1 -20  -2   57.99    8.86
  -1 -20  -3  405.72   11.92
  -1 -20  -4  203.43   11.35
  -1 -20  -5  216.42   11.66
  -1 -21   0  396.75   15.10
  -1 -21   0  380.38   12.96
  -1 -21  -1    2.12    8.01
  -1 -21  -1   -1.32    9.26
  -1 -21  -2  290.20   11.10
  -1 -21  -2  289.95   11.76
  -1 -21  -3   31.67   10.34
  -1 -21  -3   46.49    9.73
  -1 -21  -4  669.42   15.43
  -1 -22   0  172.46   11.08
  -1 -22   0  171.46    9.76
  -1 -22  -1  638.78   15.52
  -1 -22  -1  644.14   16.28
  -1 -22  -2  168.28   11.60
  -1 -22  -2  149.37   10.63
  -1 -22  -3 1141.07   24.94
  -1 -22  -3 1121.65   22.72
  -1 -22  -4    8.58   10.58
  -1 -23   0  719.17   17.36
  -1 -23   0  745.88   16.42
  -1 -23  -1    2.28   10.75
  -1 -23  -1    5.68    9.16
  -1 -23  -2  603.69   18.13
  -1 -23  -2  608.65   16.03
  -1 -23  -3   92.13   11.77
  -1 -23  -3   99.18   12.22
  -1 -24   0   97.05   12.12
  -1 -24   0   92.26   11.54
  -1 -24  -1  175.54   11.69
  -1 -24  -1  174.39   12.85
  -1 -24  -2  186.59   13.43
  -1 -24  -2  166.53   14.02
  -1 -25   0  413.73   15.17
  -1 -25   0  443.13   18.71
  -1 -25  -1   14.98   12.63
  -1 -25  -1   16.06   12.25
   2 -21   3  535.94   20.83
  -2  21  -3  704.12   22.24
   2 -20   3   13.09   13.28
  -2  20  -3   15.12   12.35
   2 -20   4  381.98   17.15
  -2  20  -4  425.04   14.50
   2 -19   2   46.11   15.46
   2 -19   3   67.63   11.18
  -2  19  -3   67.00    9.78
   2 -19   4   68.36   12.16
  -2  19  -4   66.00   11.14
   2 -18   2 1040.92   24.82
  -2  18  -2 1057.26   25.66
   2 -18   3    6.74   11.23
  -2  18  -3    7.70    9.99
   2 -18   4  261.25   12.68
  -2  18  -4  255.14   12.17
  -2  18  -5    6.50   11.78
   2 -17   2    4.44   10.54
  -2  17  -2    8.18    8.95
   2 -17   3  836.70   17.57
  -2  17  -3  856.73   21.18
   2 -17   4  138.31   10.89
  -2  17  -4  136.88    9.44
   2 -17   5  299.15   13.79
  -2  17  -5  279.01   11.56
  -2  16  -2  125.48    9.69
   2 -16   2  129.58   12.02
   2 -16   3    3.67    8.53
  -2  16  -3   -2.27    7.82
   2 -16   4  461.99   13.51
  -2  16  -4  445.45   11.63
   2 -16   5    0.45   11.19
  -2  16  -5   -1.59   10.28
  -2  15  -1  841.17   22.29
   2 -15   2  244.83   10.59
  -2  15  -2  240.91    9.70
   2 -15   3  600.80   14.52
  -2  15  -3  622.20   14.30
  -2  15  -4   84.05    9.27
   2 -15   4   79.70    9.56
   2 -15   5  225.60   10.78
  -2  15  -5  222.40   10.61
  -2  14  -1   96.29    9.73
   2 -14   1  103.52   10.36
   2 -14   2 2381.56   41.79
  -2  14  -2 2422.46   40.31
   2 -14   3   16.54    7.62
  -2  14  -3   17.01    7.82
   2 -14   4  574.04   13.04
  -2  14  -4  564.51   12.33
   2 -14   5   62.77    9.87
  -2  14  -5   69.45    9.14
   2 -14   6   55.05   12.01
  -2  14  -6   46.22    8.78
   2 -13   1 1170.00   24.57
  -2  13  -1 1111.21   20.43
   2 -13   2    0.54    7.03
  -2  13  -2   -0.33    6.93
   2 -13   3 1010.97   17.32
  -2  13  -3  985.31   16.43
   2 -13   4    4.07    8.55
  -2  13  -4    2.89    7.47
   2 -13   5  261.39   11.16
  -2  13  -5  260.17   10.37
   2 -13   6    2.52   10.68
  -2  13  -6   -1.04    8.10
   2 -12   1  275.69   11.46
  -2  12  -1  278.99   10.93
   2 -12   2  217.21    8.93
  -2  12  -2  212.03    8.57
  -2  12  -3   26.15    6.94
   2 -12   3   31.69    6.90
   2 -12   4  867.63   17.08
  -2  12  -4  799.52   15.20
   2 -12   5   19.06    9.28
  -2  12  -5   14.97    8.49
   2 -12   6  855.61   15.09
  -2  12  -6  800.64   15.37
  -2  11  -1 1105.57   19.61
   2 -11   1  982.01   20.09
   2 -11   2  128.15    8.66
  -2  11  -2  134.11    7.42
  -2  11  -3 1611.09   23.67
   2 -11   3 1612.67   23.28
   2 -11   4  452.33   10.51
  -2  11  -4  472.03   10.07
   2 -11   5  240.26   10.07
  -2  11  -5  222.42    9.46
   2 -11   6    4.16    7.97
  -2  11  -6    3.65    9.88
  -2  10  -1  256.19    9.12
   2 -10   1  242.64    9.50
   2 -10   2 1109.92   18.67
  -2  10  -2 1270.22   19.71
   2 -10   3  252.45    7.36
  -2  10  -3  239.72    6.82
   2 -10   4  679.21   13.43
  -2  10  -4  711.15   12.43
   2 -10   5   29.65    8.53
  -2  10  -5   24.24    8.27
  -2  10  -6  183.53    9.82
   2 -10   6  190.46    8.37
  -2   9  -1  746.13   15.87
   2  -9   1  730.88   16.88
   2  -9   2   20.20    4.78
  -2   9  -2   23.52    5.88
  -2   9  -3  771.96   14.91
   2  -9   3  796.37   13.92
   2  -9   4    5.22    7.21
  -2   9  -4    4.68    7.22
   2  -9   5  673.02   14.40
  -2   9  -5  617.61   11.72
   2  -9   6    2.64    7.19
  -2   9  -6    5.87    8.51
   2  -9   7  516.23   14.69
  -2   9  -7  519.66   14.53
   2  -8   1   12.68    6.09
  -2   8  -1    6.00    5.57
   2  -8   2  760.07   14.19
  -2   8  -2  711.02   13.22
   2  -8   3  167.31    7.74
  -2   8  -3  163.37    7.37
   2  -8   4  723.09   14.76
  -2   8  -4  700.14   13.93
   2  -8   5   69.40    8.83
  -2   8  -5   69.23    6.28
   2  -8   6  407.15    9.91
  -2   8  -6  409.92   11.21
  -2   8  -7    5.80   10.02
   2  -8   7   10.27   11.92
   2  -7   1  639.98   14.56
  -2   7  -1  658.96   13.33
   2  -7   2  141.14    7.43
  -2   7  -2  128.25    6.91
  -2   7  -3 2792.97   43.24
   2  -7   3 2886.40   45.40
   2  -7   4    5.38    7.15
  -2   7  -4    7.12    6.94
   2  -7   5  283.76    9.71
  -2   7  -5  286.75    9.65
   2  -7   6   25.87    9.41
  -2   7  -6   25.09    7.86
  -2   7  -7  405.34   10.60
   2  -7   7  402.24   14.01
   2  -6   1 2203.51   33.86
  -2   6  -1 2144.45   29.38
   2  -6   2 1893.45   31.88
  -2   6  -2 1950.93   28.70
   2  -6   3  241.89    7.07
  -2   6  -3  232.51    6.56
   2  -6   4 1070.92   15.97
  -2   6  -4 1045.88   17.17
   2  -6   5   34.25    5.61
  -2   6  -5   36.40    5.58
   2  -6   6  440.55   12.38
  -2   6  -6  412.44    9.29
   2  -6   7  196.86   11.23
  -2   6  -7  207.70   10.60
   2  -5   1 2981.83   43.95
  -2   5  -1 2961.80   45.08
   2  -5   2  295.07    9.17
  -2   5  -2  296.82    7.49
   2  -5   3  216.12    8.26
  -2   5  -3  200.89    6.16
   2  -5   4    0.94    7.01
  -2   5  -4    0.50    4.90
   2  -5   5 1347.66   19.78
  -2   5  -5 1252.10   17.94
   2  -5   6   17.71    6.82
  -2   5  -6   17.11    8.97
   2  -5   7  202.37    9.33
  -2   5  -7  179.80   10.50
   2  -4   1 1170.29   21.36
  -2   4  -1 1165.07   21.10
   2  -4   2 5812.49   84.31
  -2   4  -2 5746.33   80.42
  -2   4  -3   82.58    4.95
   2  -4   3   91.45    6.86
   2  -4   4  737.02   13.69
  -2   4  -4  630.26   12.05
   2  -4   5   25.36    5.89
  -2   4  -5   28.69    5.09
   2  -4   6   92.45    9.55
  -2   4  -6  101.31    8.95
   2  -4   7   88.29   10.83
  -2   4  -7   74.59   10.35
   2  -3   1 5065.76   70.90
  -2   3  -1 5304.38   88.37
   2  -3   2  949.57   19.27
  -2   3  -2  791.49   13.93
   2  -3   3 1041.22   16.01
  -2   3  -3  891.48   14.22
   2  -3   4   90.20    6.97
  -2   3  -4   85.02    6.64
   2  -3   5  650.56   13.66
  -2   3  -5  641.72   12.28
   2  -3   6   83.39    6.89
  -2   3  -6   86.32    8.40
   2  -3   7   42.67    8.17
  -2   3  -7   34.99   10.09
   2  -2   1    3.34    6.24
  -2   2  -1    3.18    5.77
   2  -2   2  338.80   11.19
  -2   2  -2  300.23    8.51
   2  -2   3   10.17    4.57
  -2   2  -3    5.87    5.59
   2  -2   4  948.44   19.69
  -2   2  -4  924.25   17.99
   2  -2   5    6.36    5.66
  -2   2  -5    6.63    7.20
   2  -2   6 1120.79   23.04
  -2   2  -6 1038.55   15.90
   2  -2   7   -0.44   10.71
  -2   2  -7    4.40   10.42
  -2   1  -1 4116.68   55.79
   2  -1   1 3911.43   55.53
   2  -1   2  110.08    7.03
  -2   1  -2  123.59    6.67
   2  -1   3  647.41   11.95
  -2   1  -3  651.48   11.50
   2  -1   4  251.62    8.53
  -2   1  -4  248.04    6.73
   2  -1   5 1323.84   19.22
  -2   1  -5 1359.21   20.32
   2  -1   6   28.45    6.77
  -2   1  -6   25.38    7.68
   2  -1   7  344.99   10.37
  -2   1  -7  358.78   11.26
  -2   0   0  190.63    6.75
  -2   0  -1    4.12    5.65
   2   0   1    5.16    4.70
   2   0   2 2805.41   38.36
  -2   0  -2 2669.27   42.29
   2   0   3   -3.30    4.48
  -2   0  -3    1.52    5.74
   2   0   4  793.46   14.67
  -2   0  -4  810.35   13.25
   2   0   5   -1.68    7.97
  -2   0  -5    3.56    7.49
   2   0   6  372.92    9.71
  -2   0  -6  363.04   10.74
   2   0   7   -1.45   11.05
  -2   0  -7   -1.13    7.38
  -2  -1   0   12.11    5.76
  -2  -1  -1 4047.62   56.49
   2   1   1 4136.27   66.28
   2   1   2  112.84    7.10
  -2  -1  -2  119.08    6.63
   2   1   3  565.40   14.78
  -2  -1  -3  569.78   10.89
   2   1   4  258.00    7.36
  -2  -1  -4  230.87    6.46
   2   1   5 1359.04   23.66
  -2  -1  -5 1241.37   19.29
   2   1   6   31.58    9.18
  -2  -1  -6   18.88    8.87
   2   1   7  354.14   12.15
  -2  -1  -7  337.71   11.53
  -2  -2   0 4700.98   65.94
  -2  -2  -1    1.07    4.09
   2   2   2  308.71    7.99
  -2  -2  -2  314.83    8.02
  -2  -2  -3    8.63    4.13
   2   2   3   13.98    4.62
   2   2   4  924.10   17.85
  -2  -2  -4  932.46   14.48
   2   2   5    4.08    8.11
  -2  -2  -5    3.12    7.31
   2   2   6 1064.54   19.08
  -2  -2  -6 1062.91   18.86
   2   2   7    5.41    8.35
  -2  -2  -7    1.92   10.28
  -2  -3   0   31.59    4.53
  -2  -3  -1 4858.45   74.17
   2   3   2  993.37   16.27
  -2  -3  -2  890.50   15.84
   2   3   3  883.22   14.83
  -2  -3  -3  887.08   15.54
   2   3   4   90.36    6.40
  -2  -3  -4   83.34    5.15
   2   3   5  627.94   14.63
  -2  -3  -5  602.88   12.51
   2   3   6   90.99    9.29
  -2  -3  -6   86.82    6.59
   2   3   7   40.26   12.27
  -2  -3  -7   33.62    7.51
  -2  -4   0 1436.89   26.11
  -2  -4  -1 1115.93   21.93
   2   4   2 5864.96   92.39
  -2  -4  -2 5977.42  106.37
   2   4   3   84.45    7.34
  -2  -4  -3   72.85    6.63
   2   4   4  675.37   15.04
  -2  -4  -4  671.36   11.82
   2   4   5   30.47    9.14
  -2  -4  -5   27.03    5.62
   2   4   6  108.89    8.20
  -2  -4  -6  104.96    9.09
   2   4   7   90.97   12.67
  -2  -4  -7   64.86    9.98
  -2  -5   0   54.42    4.78
  -2  -5  -1 2663.39   62.29
   2   5   2  306.86    7.75
  -2  -5  -2  302.94    9.55
   2   5   3  210.31    6.68
  -2  -5  -3  204.31    7.76
   2   5   4   -0.32    7.50
  -2  -5  -4    2.98    7.05
   2   5   5 1295.38   25.05
  -2  -5  -5 1290.92   19.99
   2   5   6   17.76    7.19
  -2  -5  -6   22.04    6.48
   2   5   7  208.06   12.82
  -2  -5  -7  191.36    8.43
  -2  -6   0 2069.96   35.63
  -2  -6  -1 2221.64   52.15
   2   6   2 1915.27   31.96
  -2  -6  -2 1972.77   39.21
   2   6   3  231.40    7.28
  -2  -6  -3  236.70    7.00
   2   6   4 1044.56   17.14
  -2  -6  -4 1027.09   16.58
   2   6   5   35.02    8.68
  -2  -6  -5   38.85    5.73
   2   6   6  413.40   10.02
  -2  -6  -6  414.43   11.62
   2   6   7  211.75   12.73
  -2  -6  -7  208.45   11.43
  -2  -7   0    4.68    4.28
  -2  -7  -1  643.12   14.62
  -2  -7  -2  111.74    6.78
   2   7   3 2805.17   39.39
  -2  -7  -3 2641.66   42.08
   2   7   4    9.88    5.45
  -2  -7  -4   13.91    6.90
   2   7   5  267.17    9.89
  -2  -7  -5  264.37    8.91
  -2  -7  -6   20.02    6.43
   2   7   6   20.18    7.23
   2   7   7  393.34   13.98
  -2  -7  -7  403.78   10.36
  -2  -8   0 1987.83   34.25
  -2  -8  -1   11.33    6.05
  -2  -8  -2  721.99   13.79
   2   8   3  164.07    6.83
  -2  -8  -3  151.86    6.05
   2   8   4  669.19   13.54
  -2  -8  -4  655.67   10.92
   2   8   5   56.61    6.59
  -2  -8  -5   60.05    7.36
   2   8   6  402.01   12.23
  -2  -8  -6  410.21   11.30
   2   8   7   10.29   12.19
  -2  -8  -7    9.35    7.98
  -2  -9   0   79.86    6.78
  -2  -9  -1  709.26   15.80
  -2  -9  -2   24.05    6.17
   2   9   3  800.21   15.86
  -2  -9  -3  789.68   14.48
   2   9   4   11.97    7.67
  -2  -9  -4    5.36    6.81
   2   9   5  628.29   12.08
  -2  -9  -5  586.15   10.97
   2   9   6   -4.50   10.86
  -2  -9  -6    2.00    9.19
   2   9   7  451.37   14.92
  -2  -9  -7  501.58   14.38
  -2 -10   0  758.23   14.78
  -2 -10  -1  240.80    8.75
  -2 -10  -2 1215.53   19.10
  -2 -10  -3  276.72    8.94
   2  10   4  683.07   13.40
  -2 -10  -4  708.88   13.30
  -2 -10  -5   33.41    7.55
   2  10   5   29.13    9.29
   2  10   6  179.34   11.43
  -2 -10  -6  162.74    9.22
  -2 -11   0   -1.49    6.01
  -2 -11   0    4.40    6.46
  -2 -11  -1 1067.70   21.85
  -2 -11  -2  129.03    7.48
  -2 -11  -3 1642.43   25.77
   2  11   4  486.97   12.65
  -2 -11  -4  507.95   11.25
   2  11   5  220.61    8.56
  -2 -11  -5  231.91    9.79
   2  11   6    3.60    8.87
  -2 -11  -6    5.68    9.19
  -2 -12   0 2899.11   39.89
  -2 -12   0 2843.11   40.68
  -2 -12  -1  278.10   10.17
  -2 -12  -2  203.92    8.43
  -2 -12  -3   28.31    7.44
  -2 -12  -4  836.58   15.06
   2  12   5    6.01    9.70
  -2 -12  -5   13.35    9.10
   2  12   6  777.96   16.12
  -2 -12  -6  828.66   14.94
  -2 -13   0  804.78   14.78
  -2 -13   0  759.20   12.30
  -2 -13  -1 1129.34   28.04
  -2 -13  -2    8.33    5.14
  -2 -13  -3 1024.11   18.04
  -2 -13  -4    6.32    7.96
  -2 -13  -5  275.10   10.60
   2  13   6    2.10   12.45
  -2 -13  -6    3.82    9.75
  -2 -14   0  677.00   13.73
  -2 -14   0  745.95   13.94
  -2 -14  -1   93.77    8.33
  -2 -14  -2 2076.41   35.34
  -2 -14  -3   21.78    5.60
  -2 -14  -4  538.07   12.29
  -2 -14  -5   61.22    9.60
  -2 -14  -6   43.97   10.25
  -2 -15   0   31.60    5.55
  -2 -15   0   33.71    4.89
  -2 -15  -1  772.64   17.06
  -2 -15  -2  237.23    9.62
  -2 -15  -3  543.50   12.70
  -2 -15  -4   92.28    8.71
  -2 -15  -5  204.98    8.29
  -2 -16   0 2062.23   31.86
  -2 -16   0 2271.35   35.87
  -2 -16  -1   96.72    6.35
  -2 -16  -1   97.47    8.18
  -2 -16  -2  112.23    6.71
  -2 -16  -3   -1.76    8.13
  -2 -16  -4  460.67   10.34
  -2 -16  -5    2.93    7.64
  -2 -17   0    2.23    5.64
  -2 -17   0    1.09    5.07
  -2 -17  -1  544.39   13.04
  -2 -17  -1  527.36   11.37
  -2 -17  -2    4.18    8.20
  -2 -17  -3  813.46   16.47
  -2 -17  -4  136.17   10.55
  -2 -17  -5  264.59   12.11
  -2 -18   0  241.21    8.44
  -2 -18   0  211.37    7.62
  -2 -18  -1  175.35    9.29
  -2 -18  -1  182.88    7.05
  -2 -18  -2  974.48   21.27
  -2 -18  -3    6.58    9.44
  -2 -18  -4  249.75    9.36
  -2 -18  -5    6.74    8.67
  -2 -19   0   18.46    8.34
  -2 -19   0   14.90    7.67
  -2 -19  -1  501.13   12.80
  -2 -19  -1  526.16   12.81
  -2 -19  -2   37.13    6.70
  -2 -19  -2   48.46    8.78
  -2 -19  -3   66.14    9.35
  -2 -19  -4   66.10   11.19
  -2 -20   0  654.68   14.92
  -2 -20   0  659.09   12.55
  -2 -20  -1  237.74   11.07
  -2 -20  -1  244.28    9.96
  -2 -20  -2  227.90    8.45
  -2 -20  -2  241.26   10.69
  -2 -20  -3   12.66    9.54
  -2 -20  -4  459.89   14.10
  -2 -21   0   13.39    9.90
  -2 -21   0   12.19    8.28
  -2 -21  -1  451.70   13.56
  -2 -21  -1  497.58   12.99
  -2 -21  -2   44.78    9.59
  -2 -21  -2   47.61    9.88
  -2 -21  -3  837.19   18.29
  -2 -22   0 1000.11   22.42
  -2 -22   0 1036.71   19.55
  -2 -22  -1  124.22   11.29
  -2 -22  -1  123.86   10.14
  -2 -22  -2  349.74   12.31
  -2 -22  -2  382.56   13.17
  -2 -22  -3   81.42   12.71
  -2 -22  -3   90.01   12.51
  -2 -23   0   16.60   11.34
  -2 -23   0   15.13    9.64
  -2 -23  -1  351.53   12.87
  -2 -23  -1  363.11   14.11
  -2 -23  -2   31.41   10.41
  -2 -23  -2   30.04   10.85
  -2 -24   0  267.46   13.68
  -2 -24   0  239.20   12.05
  -2 -24  -1   57.10   11.48
  -2 -24  -1   63.35   13.07
  -3  19  -3    1.67   13.32
  -3  18  -2  151.67   13.60
  -3  18  -3  262.12   14.36
  -3  17  -2  284.02   13.61
   3 -17   3    8.60   11.41
  -3  17  -3    5.08    9.68
  -3  17  -4  194.04   12.54
   3 -17   4  192.81   14.09
  -3  16  -1   20.89   12.60
  -3  16  -2   28.12   10.24
   3 -16   3 1081.23   22.88
  -3  16  -3 1118.05   24.38
   3 -16   4    4.90   11.65
  -3  16  -4    3.24   10.91
  -3  15  -1    0.62    9.31
  -3  15  -2  308.99   12.45
   3 -15   3  100.37   10.93
  -3  15  -3  103.76   10.04
   3 -15   4  409.71   13.21
  -3  15  -4  450.24   13.27
  -3  14  -1 1385.64   23.50
  -3  14  -2   22.80    7.68
  -3  14  -3   93.78    8.97
   3 -14   3   90.16   10.38
   3 -14   4   -5.57   10.63
  -3  14  -4    5.30    8.75
   3 -14   5   79.10   11.61
  -3  14  -5   75.87   11.82
  -3  13  -1    8.64    7.13
   3 -13   2  704.21   16.72
  -3  13  -2  677.10   14.10
  -3  13  -3    5.61    8.39
   3 -13   3   10.80    8.40
  -3  13  -4  602.93   14.49
   3 -13   4  616.63   15.63
   3 -13   5   15.57   11.87
  -3  13  -5   24.33   10.44
  -3  12  -1  690.66   16.03
   3 -12   2  246.91   10.01
  -3  12  -2  239.33    9.41
   3 -12   3  804.98   16.24
  -3  12  -3  779.53   14.58
  -3  12  -4    1.14    7.96
   3 -12   4    1.00    9.69
  -3  12  -5  263.51   11.16
   3 -12   5  268.88   13.19
  -3  11  -1   80.25    7.69
   3 -11   2  680.54   14.82
  -3  11  -2  650.99   13.60
  -3  11  -3  107.57    8.20
   3 -11   3  110.37    8.56
   3 -11   4  367.44    9.80
  -3  11  -4  370.02   11.28
  -3  11  -5    4.23    9.53
   3 -11   5    8.59   10.30
  -3  10  -1 2094.67   38.58
   3 -10   2    3.98    7.53
  -3  10  -2    0.63    6.82
   3 -10   3  293.66    9.59
  -3  10  -3  284.55    9.40
  -3  10  -4   72.04    8.86
   3 -10   4   67.89    8.89
   3 -10   5  417.23   12.04
  -3  10  -5  401.68   12.41
  -3   9  -1   53.38    7.38
   3  -9   2  402.04   11.33
  -3   9  -2  363.34    9.87
   3  -9   3  193.69    8.92
  -3   9  -3  190.27    8.60
   3  -9   4  702.11   14.27
  -3   9  -4  685.26   13.14
   3  -9   5   61.22    8.04
  -3   9  -5   60.81   10.42
  -3   9  -6  221.81   11.89
   3  -9   6  272.40   11.33
  -3   8  -1  860.18   16.27
   3  -8   2  181.22    8.71
  -3   8  -2  197.55    8.09
   3  -8   3 1038.10   17.89
  -3   8  -3 1008.30   16.23
   3  -8   4   33.93    8.32
  -3   8  -4   31.70    8.44
   3  -8   5  624.85   14.46
  -3   8  -5  585.22   12.51
   3  -8   6   58.31    9.19
  -3   8  -6   50.69    8.45
  -3   7  -1   88.56    7.01
   3  -7   2 2089.38   35.30
  -3   7  -2 2061.84   29.61
   3  -7   3  137.93    8.43
  -3   7  -3  135.81    6.36
   3  -7   4   47.26    6.67
  -3   7  -4   49.40    6.41
  -3   7  -5   20.39    9.38
   3  -7   5   17.23    7.56
   3  -7   6  443.01   12.72
  -3   7  -6  494.54   13.52
  -3   6  -1 1191.15   22.24
   3  -6   2  969.64   18.52
  -3   6  -2  957.25   15.98
   3  -6   3  740.35   13.23
  -3   6  -3  810.74   13.42
   3  -6   4  142.16    7.25
  -3   6  -4  135.91    8.41
   3  -6   5  401.78   13.01
  -3   6  -5  409.15    9.67
   3  -6   6   13.68   11.93
  -3   6  -6   11.16   10.78
  -3   5  -1  151.13    6.08
   3  -5   2 1766.01   26.63
  -3   5  -2 1827.75   24.78
   3  -5   3    0.71    6.95
  -3   5  -3    3.11    6.81
   3  -5   4  803.59   14.84
  -3   5  -4  826.87   16.31
   3  -5   5   18.10    9.81
  -3   5  -5   22.64    9.31
   3  -5   6  209.13   12.46
  -3   5  -6  201.65   10.90
  -3   4  -1 1773.02   31.54
  -3   4  -2  147.04    5.67
   3  -4   2  146.08    6.15
   3  -4   3   27.49    7.27
  -3   4  -3   28.54    6.74
   3  -4   4    4.91    8.06
  -3   4  -4   -0.59    6.98
   3  -4   5  360.39    9.27
  -3   4  -5  375.24   10.98
   3  -4   6    8.03   10.56
  -3   4  -6   10.01    7.84
  -3   3  -1   65.22    5.00
   3  -3   2 1545.64   23.68
  -3   3  -2 1434.39   22.45
   3  -3   3   73.38    5.68
  -3   3  -3   78.62    5.66
   3  -3   4  217.40    7.63
  -3   3  -4  215.97    6.76
   3  -3   5   87.38    9.77
  -3   3  -5   81.59    6.44
   3  -3   6  395.42   12.35
  -3   3  -6  359.35    9.53
  -3   2  -1  262.95    8.38
   3  -2   2   12.65    5.03
  -3   2  -2   13.36    6.33
   3  -2   3 1939.02   31.77
  -3   2  -3 1894.37   25.36
   3  -2   4    4.79    7.92
  -3   2  -4    0.84    7.45
   3  -2   5  439.63   11.93
  -3   2  -5  395.29    9.73
   3  -2   6    8.24   10.91
  -3   2  -6    6.27    7.34
  -3   1  -1   40.40    6.31
   3  -1   2  876.32   15.12
  -3   1  -2  809.38   14.58
   3  -1   3   85.90    6.07
  -3   1  -3   73.53    7.06
   3  -1   4  874.95   15.38
  -3   1  -4  867.37   15.07
   3  -1   5   76.01    8.81
  -3   1  -5   68.54    6.50
   3  -1   6  311.16    9.93
  -3   1  -6  309.01    9.46
  -3   0   0    2.69    5.97
  -3   0  -1 3162.75   60.62
   3   0   2    1.07    5.24
  -3   0  -2    2.16    4.79
  -3   0  -3 1003.23   16.50
   3   0   3 1101.79   19.83
   3   0   4    1.11    5.93
  -3   0  -4    2.03    7.17
   3   0   5  375.35    9.39
  -3   0  -5  378.87    9.77
   3   0   6    4.24   10.93
  -3   0  -6    5.80   10.14
  -3  -1   0  540.06   12.07
  -3  -1  -1   31.71    6.17
   3   1   2  810.33   15.37
  -3  -1  -2  766.77   15.06
   3   1   3   99.32    8.11
  -3  -1  -3   86.25    5.42
   3   1   4  894.24   17.18
  -3  -1  -4  881.13   15.75
   3   1   5   75.97    9.46
  -3  -1  -5   62.01    8.22
   3   1   6  307.03   11.69
  -3  -1  -6  314.51   11.73
  -3  -2   0  157.67    7.35
  -3  -2  -1  287.07    8.55
  -3  -2  -2   15.18    4.97
   3   2   3 1895.64   27.85
  -3  -2  -3 1883.91   28.30
   3   2   4    1.07    7.89
  -3  -2  -4   -0.84    7.28
   3   2   5  406.02   10.25
  -3  -2  -5  425.94   11.33
   3   2   6   -1.18    8.12
  -3  -2  -6    1.76    7.57
  -3  -3   0 2088.95   31.39
  -3  -3  -1   70.13    6.43
  -3  -3  -2 1502.07   28.48
   3   3   3   75.47    5.99
  -3  -3  -3   77.28    7.29
   3   3   4  221.10    7.76
  -3  -3  -4  205.08    7.02
   3   3   5   83.01    7.58
  -3  -3  -5   78.71    6.63
   3   3   6  392.35   13.48
  -3  -3  -6  358.85   10.11
  -3  -4   0   30.18    6.19
  -3  -4  -1 1748.71   28.13
  -3  -4  -2  143.53    7.82
   3   4   3   39.16    5.72
  -3  -4  -3   27.55    6.50
   3   4   4   -1.25    6.35
  -3  -4  -4    2.73    7.68
   3   4   5  375.85   11.64
  -3  -4  -5  346.05    9.95
   3   4   6   16.01   11.04
  -3  -4  -6    8.69   10.29
  -3  -5   0 1373.31   24.00
  -3  -5  -1  150.83    7.78
  -3  -5  -2 1793.21   36.07
   3   5   3    5.22    5.56
  -3  -5  -3   -1.01    5.15
   3   5   4  836.89   14.94
  -3  -5  -4  844.79   13.92
   3   5   5   22.42    9.88
  -3  -5  -5   24.12    8.63
   3   5   6  185.89    9.68
  -3  -5  -6  209.84    8.80
  -3  -6   0  268.65    8.38
  -3  -6  -1 1137.43   21.96
  -3  -6  -2  700.45   14.34
  -3  -6  -3  789.46   15.31
   3   6   4  143.15    8.98
  -3  -6  -4  114.55    7.63
   3   6   5  445.81   12.90
  -3  -6  -5  416.99   10.92
   3   6   6   12.59    9.16
  -3  -6  -6    0.84    9.63
  -3  -7   0 1892.20   32.27
  -3  -7  -1  102.51    7.36
  -3  -7  -2 2042.75   33.75
  -3  -7  -3  137.58    8.00
   3   7   4   48.49    8.46
  -3  -7  -4   36.51    5.71
   3   7   5   23.29   10.66
  -3  -7  -5   17.39    7.00
   3   7   6  466.41   13.74
  -3  -7  -6  452.86   13.86
  -3  -8   0  220.85    8.34
  -3  -8  -1  937.06   23.64
  -3  -8  -2  198.37    8.15
  -3  -8  -3 1010.65   16.64
  -3  -8  -4   33.05    8.33
   3   8   5  565.34   14.81
  -3  -8  -5  588.86   14.41
   3   8   6   41.83   12.94
  -3  -8  -6   57.54    8.36
  -3  -9   0   12.38    4.98
  -3  -9  -1   52.85    7.92
  -3  -9  -2  367.74    9.63
  -3  -9  -3  183.09    8.47
  -3  -9  -4  663.74   13.21
  -3  -9  -5   59.00    8.75
  -3  -9  -6  233.81   11.37
   3   9   6  230.42   13.97
  -3 -10   0    5.04    5.11
  -3 -10  -1 2302.25   53.92
  -3 -10  -2    1.38    7.26
  -3 -10  -3  310.84   10.15
  -3 -10  -4   63.64    6.50
  -3 -10  -5  381.83   10.25
  -3 -11   0 1281.37   23.12
  -3 -11  -1   84.18    8.26
  -3 -11  -2  656.89   12.97
  -3 -11  -3  107.59    8.55
  -3 -11  -4  334.43    8.80
  -3 -11  -5    1.90    6.87
  -3 -12   0   -2.40    7.25
  -3 -12   0    2.17    6.46
  -3 -12  -1  683.60   14.48
  -3 -12  -2  230.54    8.93
  -3 -12  -3  790.26   16.37
  -3 -12  -4    0.90    6.62
  -3 -12  -5  253.81    9.22
  -3 -13   0 1961.60   29.65
  -3 -13   0 1811.07   25.48
  -3 -13  -1    6.46    5.46
  -3 -13  -2  692.47   13.56
  -3 -13  -3    8.39    8.45
  -3 -13  -4  579.97   11.83
  -3 -13  -5   14.22    7.71
  -3 -14   0    3.16    7.46
  -3 -14   0   13.96    4.77
  -3 -14  -1 1379.22   26.86
  -3 -14  -2   25.42    6.03
  -3 -14  -3   90.17    8.95
  -3 -14  -4   -1.42    7.33
  -3 -14  -5   75.08    8.39
  -3 -15   0  837.52   17.00
  -3 -15   0  872.18   15.80
  -3 -15  -1   -0.20    6.12
  -3 -15  -2  282.46   10.20
  -3 -15  -3  103.59    7.47
  -3 -15  -4  425.05   13.07
  -3 -16   0    6.74    7.65
  -3 -16   0    2.55    6.26
  -3 -16  -1   18.11    8.88
  -3 -16  -1   14.14    7.85
  -3 -16  -2   26.45    9.21
  -3 -16  -3 1010.83   19.25
  -3 -16  -4    9.24   10.87
  -3 -17   0  978.04   18.16
  -3 -17   0  972.07   17.06
  -3 -17  -1    7.00    6.36
  -3 -17  -1   -2.59    8.20
  -3 -17  -2  277.52    9.90
  -3 -17  -3    5.40    9.82
  -3 -17  -4  169.76    9.19
  -3 -18   0   68.11    9.56
  -3 -18   0   57.35    7.94
  -3 -18  -1  748.97   15.56
  -3 -18  -1  690.69   12.77
  -3 -18  -2  158.99   11.07
  -3 -18  -3  251.30   11.39
  -3 -19   0  336.31   11.84
  -3 -19   0  371.15   11.25
  -3 -19  -1   16.98   10.39
  -3 -19  -1   16.08    9.86
  -3 -19  -2  164.73   11.20
  -3 -19  -2  165.45   11.07
  -3 -19  -3    4.43   10.61
  -3 -20   0   97.46   10.17
  -3 -20   0   93.27    7.06
  -3 -20  -1  318.44   12.33
  -3 -20  -1  315.35    9.82
  -3 -20  -2   51.30   10.01
  -3 -20  -2   56.59    8.73
  -3 -21   0 1034.38   27.56
  -3 -21   0 1060.13   24.02
  -3 -21  -1   12.03    8.28
  -3 -21  -1   10.14   10.26
  -3 -21  -2  251.14   12.76
  -3 -21  -2  278.70   13.75
  -3 -22   0   -6.30   11.06
  -3 -22   0    3.05    7.36
  -3 -22  -1  157.52    9.98
  -3 -22  -1  149.41   10.90
  -3 -23   0  228.13   13.65
  -3 -23   0  288.93   12.51
  -4  18  -2  144.82   16.39
  -4  17  -2   16.72   13.45
  -4  16  -1    5.63   13.31
  -4  16  -1    6.22   12.78
  -4  16  -2  905.32   21.66
  -4  15  -1  482.12   16.46
  -4  15  -2    2.28    9.63
  -4  15  -3  293.22   12.73
  -4  14  -1    6.83   10.40
  -4  14  -2   94.76   10.41
  -4  14  -3    1.31    9.81
  -4  13  -1  520.25   13.48
  -4  13  -2    4.34    9.60
  -4  13  -3   73.32   10.65
  -4  12  -1  171.28    9.78
  -4  12  -2  519.82   13.67
  -4  12  -3   30.54   10.51
  -4  12  -4  264.34   12.86
   4 -12   4  238.27   11.06
  -4  11  -1  790.75   15.71
  -4  11  -2   54.11    9.24
  -4  11  -3  140.94    9.49
  -4  11  -4   76.41   11.15
   4 -11   4   91.29   12.39
  -4  10  -1   64.73    8.60
  -4  10  -2  145.47    7.26
  -4  10  -3   16.35    8.96
   4 -10   4  733.13   17.19
  -4  10  -4  721.25   15.54
  -4   9  -1 1394.99   23.82
  -4   9  -2   64.83    8.71
  -4   9  -3 1060.99   18.85
   4  -9   4    1.10    8.45
  -4   9  -4    1.45   10.51
  -4   8  -1    8.13    5.34
  -4   8  -2  671.82   14.11
  -4   8  -3  229.28    9.63
   4  -8   4  300.05   12.12
  -4   8  -4  326.74   11.86
  -4   7  -1  166.76    8.41
  -4   7  -2   15.80    8.22
  -4   7  -3  315.12    8.85
   4  -7   4    8.99   10.06
  -4   7  -4    9.99    9.44
   4  -7   5  470.69   15.33
  -4   7  -5  421.11   11.32
  -4   6  -1  335.88   10.09
  -4   6  -2  612.44   12.52
  -4   6  -3  168.40    9.51
   4  -6   4  105.58   10.11
  -4   6  -4  113.07   10.11
   4  -6   5   -0.52   12.67
  -4   6  -5   11.88   11.64
  -4   5  -1  563.73   13.15
  -4   5  -2   11.47    7.60
  -4   5  -3  524.32   12.00
   4  -5   4   -1.09    7.68
  -4   5  -4    8.77    8.83
   4  -5   5   93.97   11.63
  -4   5  -5   82.01   11.41
  -4   4  -1   77.08    5.82
  -4   4  -2  397.78    9.45
  -4   4  -3   -2.17    8.76
   4  -4   4  561.51   12.73
  -4   4  -4  551.44   11.23
   4  -4   5    1.22    9.00
  -4   4  -5    8.62   10.30
  -4   3  -1  440.91   12.07
  -4   3  -2    0.88    7.72
  -4   3  -3  364.62    9.18
   4  -3   4   -0.01    9.24
  -4   3  -4    2.50    8.28
   4  -3   5  420.41   13.29
  -4   3  -5  417.44   11.27
  -4   2  -1    1.35    5.10
  -4   2  -2 1789.25   30.17
  -4   2  -3   58.14    6.20
   4  -2   4  119.48   10.57
  -4   2  -4  103.34    8.72
   4  -2   5    4.89   12.16
  -4   2  -5    0.47    7.98
  -4   1  -1  865.60   16.19
  -4   1  -2   -0.84    6.89
  -4   1  -3  887.22   15.53
   4  -1   4  144.13    7.88
  -4   1  -4  146.23    9.63
   4  -1   5  102.39    9.11
  -4   1  -5  100.83    8.14
  -4   0   0   78.07    7.34
  -4   0  -1   -2.21    6.66
  -4   0  -2  367.01    9.05
  -4   0  -3    5.67    7.53
  -4   0  -4  333.58   10.78
   4   0   5   -0.75   10.76
  -4   0  -5   -4.88    9.52
  -4  -1   0  100.66    7.27
  -4  -1  -1  861.63   16.01
  -4  -1  -2   22.55    7.20
  -4  -1  -3  888.46   15.65
  -4  -1  -4  147.45    7.52
   4   1   5   95.87   11.06
  -4  -1  -5  115.20   10.94
  -4  -2   0  532.35   10.36
  -4  -2  -1   -0.46    4.96
  -4  -2  -2 1870.15   30.89
  -4  -2  -3   64.71    6.41
  -4  -2  -4  120.80    8.88
  -4  -2  -5    7.78    7.87
  -4  -3   0  133.52    7.82
  -4  -3  -1  482.30   10.98
  -4  -3  -2   -6.11    7.41
  -4  -3  -3  351.52   10.74
  -4  -3  -4   -0.93    9.49
  -4  -3  -5  422.99   11.93
  -4  -4   0 1474.36   25.69
  -4  -4  -1   75.62    5.49
  -4  -4  -2  426.69   10.65
  -4  -4  -3   -2.28    6.19
  -4  -4  -4  523.12   10.66
  -4  -4  -5   -0.58   11.03
  -4  -5   0   84.26    7.25
  -4  -5  -1  514.69   12.04
  -4  -5  -2    6.03    7.99
  -4  -5  -3  467.80   12.09
  -4  -5  -4    0.55    9.46
  -4  -5  -5   80.34    8.66
  -4  -6   0 1182.77   19.63
  -4  -6  -1  302.47    8.28
  -4  -6  -2  590.59   14.64
  -4  -6  -3  178.36    7.33
  -4  -6  -4   98.74    7.49
  -4  -6  -5    2.25   10.03
  -4  -7   0   79.03    7.20
  -4  -7  -1  166.42    8.13
  -4  -7  -2    9.89    6.00
  -4  -7  -3  300.51   10.78
  -4  -7  -4   11.48    9.55
  -4  -7  -5  401.65   13.80
  -4  -8   0  614.34   11.65
  -4  -8  -1    7.13    7.90
  -4  -8  -2  633.67   14.00
  -4  -8  -3  213.95    9.70
  -4  -8  -4  295.70   11.62
  -4  -9   0  297.42    8.05
  -4  -9  -1 1347.18   23.00
  -4  -9  -2   61.71    8.88
  -4  -9  -3 1013.67   17.16
  -4  -9  -4    4.17    7.62
  -4 -10   0  831.63   15.27
  -4 -10  -1   62.18    8.46
  -4 -10  -2  147.63    9.70
  -4 -10  -3   16.11    7.36
  -4 -10  -4  663.18   13.32
  -4 -11   0   98.23    8.40
  -4 -11   0  102.72    8.58
  -4 -11  -1  802.51   15.89
  -4 -11  -2   55.03    9.34
  -4 -11  -3  147.56    8.15
  -4 -11  -4   81.61    8.19
  -4 -12   0  778.83   15.99
  -4 -12   0  747.25   15.18
  -4 -12  -1  172.18    8.78
  -4 -12  -2  543.11   13.59
  -4 -12  -3   26.81    7.72
  -4 -12  -4  246.32    9.80
  -4 -13   0   48.16    6.44
  -4 -13   0   53.48    7.98
  -4 -13  -1  488.25   11.33
  -4 -13  -2    3.70    9.56
  -4 -13  -3   76.50    7.90
  -4 -14   0  665.76   15.00
  -4 -14   0  603.77   12.09
  -4 -14  -1    2.99    8.40
  -4 -14  -2   98.52    9.75
  -4 -14  -3    5.88    8.15
  -4 -15   0  108.04    7.48
  -4 -15   0  108.26    8.95
  -4 -15  -1  456.04   12.76
  -4 -15  -1  447.40   14.31
  -4 -15  -2   -0.34    7.75
  -4 -15  -3  287.95   13.21
  -4 -16   0  356.84   11.96
  -4 -16   0  362.24   10.65
  -4 -16  -1   16.33    7.67
  -4 -16  -1    3.02    9.15
  -4 -16  -2  851.17   20.98
  -4 -17   0   43.02    7.67
  -4 -17   0   50.21    9.17
  -4 -17  -1  323.78   12.53
  -4 -17  -1  301.33   11.65
  -4 -17  -2   14.33   10.68
  -4 -18   0  214.45   12.04
  -4 -18   0  187.43    9.75
  -4 -18  -1   85.08    8.59
  -4 -18  -1   88.45   10.63
  -4 -18  -2  135.54   12.10
  -4 -18  -2  146.81   12.17
  -4 -19   0   10.72   11.24
  -4 -19   0    6.62    7.57
  -4 -19  -1  598.58   17.18
  -4 -19  -1  603.09   13.62
  -4 -20   0  399.29   11.44
  -4 -20   0  402.78   12.63
  -5  15  -1   55.94   13.62
  -5  15  -1   55.57   13.93
  -5  14  -1  193.45   12.76
  -5  14  -1  197.95   12.99
  -5  13  -1   26.00   11.31
  -5  13  -1   25.12   11.03
  -5  12  -1  448.57   13.86
  -5  12  -2   25.32   12.69
  -5  11  -1   45.56   10.48
  -5  11  -2  350.00   13.82
  -5  10  -1  400.05   12.94
  -5  10  -2   24.32   10.03
  -5   9  -1   25.64    9.74
  -5   9  -2  470.41   11.44
  -5   9  -3    5.45   10.74
  -5   8  -1  403.17   11.52
  -5   8  -2   38.67    8.05
  -5   8  -3  341.40   13.82
  -5   7  -1   16.72    8.39
  -5   7  -2  646.50   15.27
  -5   7  -3   11.62   10.38
  -5   6  -1  143.24    9.77
  -5   6  -2  181.98   10.88
  -5   6  -3  359.57   12.69
  -5   5  -1   63.57    8.38
  -5   5  -2  130.95    9.59
  -5   5  -3   -1.77    8.23
  -5   4  -1  248.56   10.61
  -5   4  -2   41.09    8.90
  -5   4  -3  547.30   14.63
  -5   3  -1  280.31    8.92
  -5   3  -2  241.01   10.87
  -5   3  -3   -4.12   10.57
  -5   2  -1  645.90   13.25
  -5   2  -2    8.57    9.43
  -5   2  -3  102.38   10.77
  -5   1  -1    0.82    6.39
  -5   1  -2  365.11   11.51
  -5   1  -3   14.08   10.18
  -5   0   0    4.21    5.91
  -5   0  -1  524.32   13.03
  -5   0  -2   -0.16    9.47
  -5   0  -3  577.98   14.31
  -5  -1   0  769.50   15.22
  -5  -1  -1    0.26    6.42
  -5  -1  -2  363.66   10.92
  -5  -1  -3    7.67    9.46
  -5  -2   0    1.83    8.18
  -5  -2  -1  629.38   13.15
  -5  -2  -2    1.30    7.03
  -5  -2  -3  101.86    7.63
  -5  -3   0  553.16   12.65
  -5  -3  -1  253.96    7.98
  -5  -3  -2  201.13   10.19
  -5  -3  -3    4.59   10.30
  -5  -4   0   66.31    9.42
  -5  -4  -1  217.35   10.18
  -5  -4  -2   47.11    7.20
  -5  -4  -3  478.24   11.28
  -5  -5   0 1475.02   35.65
  -5  -5  -1   67.39    6.93
  -5  -5  -2  120.28   10.37
  -5  -5  -3    5.56   10.85
  -5  -6   0    0.94    7.01
  -5  -6  -1  121.92    9.65
  -5  -6  -2  180.58    8.41
  -5  -6  -3  351.17   10.67
  -5  -7   0   44.06    9.21
  -5  -7   0   41.79    6.46
  -5  -7  -1   20.93    9.38
  -5  -7  -2  621.30   14.76
  -5  -7  -3    7.91   10.22
  -5  -8   0   46.70    9.52
  -5  -8   0   35.46    8.88
  -5  -8  -1  371.31   10.47
  -5  -8  -2   27.92   10.72
  -5  -8  -3  304.21   12.64
  -5  -9   0  918.80   20.01
  -5  -9   0  865.08   16.00
  -5  -9  -1   19.10    7.22
  -5  -9  -2  434.39   13.50
  -5 -10   0   -1.69    9.64
  -5 -10   0   -4.50    8.77
  -5 -10  -1  362.58   10.81
  -5 -10  -2   34.91   10.54
  -5 -11   0  116.98   10.56
  -5 -11   0  105.31    9.53
  -5 -11  -1   35.13    7.73
  -5 -11  -2  349.58   11.39
  -5 -12   0   12.42    8.11
  -5 -12   0    9.50    6.66
  -5 -12  -1  417.11   11.91
  -5 -12  -2   21.69   11.15
  -5 -13   0  253.95   10.95
  -5 -13   0  209.13    8.40
  -5 -13  -1   25.65   10.05
  -5 -13  -1   27.67   10.72
  -5 -14   0   61.93   12.18
  -5 -14   0   64.25    9.33
  -5 -14  -1  187.49   12.31
  -5 -14  -1  176.72    9.27
  -5 -15   0  360.82   13.21
  -5 -15   0  324.46   11.92
  -5 -15  -1   52.46   11.26
  -5 -15  -1   40.49    8.58
  -5 -16   0   -2.61    8.98
  -5 -16   0   -4.17   10.94
  -6   6  -1   14.68   11.69
  -6   5  -1   76.63    8.86
  -6   4  -1   -3.08   11.38
  -6   3  -1  290.28   13.17
  -6   2  -1    9.17   11.59
  -6   1  -1  219.70   12.11
  -6   0   0  719.91   16.82
  -6   0   0  679.59   16.89
  -6   0  -1   -0.84   11.24
  -6  -1   0   74.49    9.95
  -6  -1   0   68.51    9.71
  -6  -1  -1  217.41    9.53
  -6  -2   0  222.69    9.26
  -6  -2   0  210.30   10.78
  -6  -2  -1   14.90   10.63
  -6  -3   0   81.53   10.88
  -6  -3   0   55.36   10.45
  -6  -3  -1  290.79   12.55
  -6  -4   0  447.84   12.51
  -6  -4   0  531.53   14.63
  -6  -4  -1    3.75   10.69
  -6  -5   0    3.42    7.91
  -6  -5   0    1.17    7.43
  -6  -5  -1   77.22    8.87
  -6  -6   0  364.70   13.16
  -6  -6   0  337.54   11.60
  -6  -6  -1   16.14   11.97
  -6  -7   0   31.67   11.16
  -6  -7   0   38.05   10.65
  -6  -8   0  343.89   10.87
  -6  -8   0  324.25    9.56
  -6  -9   0   45.97    8.93
  -6  -9   0   38.80   11.00
_computing_structure_solution     'SHELXT 2014/4 (Sheldrick, 2014)'
_computing_structure_solution     'SHELXT 2014/4 (Sheldrick, 2014)'
_computing_structure_solution     'SHELXT 2014/4 (Sheldrick, 2014)'
_computing_structure_solution     'SHELXT 2014/4 (Sheldrick, 2014)'
_computing_structure_solution     'SHELXT 2014/4 (Sheldrick, 2014)'
_computing_structure_solution     'SHELXT 2014/4 (Sheldrick, 2014)'
_computing_structure_solution     'SHELXT 2014/4 (Sheldrick, 2014)'
;
_shelx_hkl_checksum              9451
_shelx_res_file
;
TITL Cd-tza 5602 pks 4.3 to 59.2 degrees
    shelx.res
    created by SHELXL-2018/3 at 13:35:20 on 01-Aug-2019
CELL  0.71073   5.0198  19.0518   6.8982   90.000  109.281   90.000
ZERR     2.00   0.0005   0.0021   0.0007    0.000    0.007    0.000
LATT   1
SYMM  1/2 - X, 1/2 + Y, 1/2 - Z
SFAC  CD   C    H    N    O    S
UNIT  2 16 16 4 12 4
MERG   2
OMIT     1   1   0
OMIT     1   2   1
EQIV $1 x-1, y, z
HTAB C3 O3_$1
EQIV $2 x-1/2, -y+3/2, z+1/2
HTAB C4 O1_$2
HTAB C4 S1_$2
EQIV $3 -x+2, -y+1, -z+1
HTAB O3 O2_$3
EQIV $4 x, y, z+1
HTAB O3 O1_$4
HTAB C3 O3_$1
HTAB C4 O1_$2
HTAB C4 S1_$2
HTAB O3 O2_$3
HTAB O3 O1_$4
FMAP   2
PLAN    6
SIZE     0.080   0.270   0.400
ACTA
BOND   $H
L.S.  12
TEMP  -123.00
WGHT    0.031300
FVAR       0.77260
CD1   1    0.500000    0.500000    0.500000    10.50000    0.01881    0.01293 =
         0.01618    0.00253    0.00860    0.00218
O3    5    0.880247    0.556167    0.737957    11.00000    0.01984    0.02195 =
         0.01833   -0.00173    0.00909    0.00319
O1    5    0.648243    0.614176    0.003681    11.00000    0.02823    0.01720 =
         0.02113    0.00021    0.01674    0.00078
O2    5    0.671812    0.528991    0.235477    11.00000    0.02093    0.01639 =
         0.01968    0.00156    0.01153    0.00379
C1    2    0.591948    0.587529    0.149890    11.00000    0.01469    0.01525 =
         0.01597   -0.00309    0.00708   -0.00113
C2    2    0.409813    0.630965    0.240812    11.00000    0.01482    0.01413 =
         0.01402   -0.00028    0.00612    0.00072
C3    2    0.174803    0.660180    0.451948    11.00000    0.01918    0.01664 =
         0.01718   -0.00203    0.01027    0.00075
AFIX  44
H3    3    0.099984    0.653563    0.559467    11.00000   -1.20000
AFIX   0
C4    2    0.140910    0.720581    0.342089    11.00000    0.02363    0.01654 =
         0.02167   -0.00015    0.01358    0.00412
AFIX  44
H4    3    0.044735    0.759466    0.362599    11.00000   -1.20000
AFIX   0
N1    4    0.327520    0.609442    0.393166    11.00000    0.01658    0.01402 =
         0.01536    0.00067    0.00816    0.00099
S1    6    0.302627    0.714023    0.160109    11.00000    0.02628    0.01547 =
         0.02063    0.00441    0.01507    0.00447
H3B   3    1.012081    0.529379    0.779100    11.00000    0.03794
H3A   3    0.838748    0.570684    0.830065    11.00000    0.03622
HKLF 4
REM  Cd-tza 5602 pks 4.3 to 59.2 degrees
REM wR2 = 0.0469, GooF = S = 0.998, Restrained GooF = 0.998 for all data
REM R1 = 0.0191 for 1458 Fo > 4sig(Fo) and 0.0225 for all 1673 data
REM 98 parameters refined using 0 restraints
END
WGHT      0.0313      0.0000
REM Highest difference peak  0.885,  deepest hole -0.837,  1-sigma level  0.099
Q1    1   0.6674  0.4995  0.5860  11.00000  0.05    0.89
Q2    1   0.3657  0.6694  0.1928  11.00000  0.05    0.51
Q3    1   0.4684  0.7185  0.2508  11.00000  0.05    0.38
Q4    1   0.5331  0.6134  0.2054  11.00000  0.05    0.35
Q5    1   0.4683  0.6060  0.1814  11.00000  0.05    0.31
Q6    1   0.8293  0.4973  0.3589  11.00000  0.05    0.29
;
_shelx_res_checksum              97000
loop_
_space_group_symop_operation_xyz
'x, y, z'
'-x+1/2, y+1/2, -z+1/2'
'-x, -y, -z'
'x-1/2, -y-1/2, z-1/2'
loop_
_atom_site_type_symbol
_atom_site_label
_atom_site_fract_x
_atom_site_fract_y
_atom_site_fract_z
_atom_site_U_iso_or_equiv
_atom_site_adp_type
_atom_site_calc_flag
_atom_site_occupancy
Cd Cd1 0.500000 0.500000 0.500000 0.01528(6) Uani d 1
O O3 0.8802(3) 0.55617(7) 0.73796(17) 0.0194(2) Uani d 1
O O1 0.6482(3) 0.61418(7) 0.00368(17) 0.0201(2) Uani d 1
O O2 0.6718(2) 0.52899(6) 0.23548(16) 0.0178(2) Uani d 1
C C1 0.5919(3) 0.58753(8) 0.1499(2) 0.0148(3) Uani d 1
C C2 0.4098(3) 0.63096(8) 0.2408(2) 0.0140(3) Uani d 1
C C3 0.1748(3) 0.66018(9) 0.4519(2) 0.0166(3) Uani d 1
H H3 0.1000(15) 0.65356(16) 0.559(2) 0.020 Uiso calc 1
C C4 0.1409(3) 0.72058(9) 0.3421(2) 0.0191(3) Uani d 1
H H4 0.045(3) 0.7595(10) 0.3626(6) 0.023 Uiso calc 1
N N1 0.3275(3) 0.60944(7) 0.39317(18) 0.0146(2) Uani d 1
S S1 0.30263(9) 0.71402(2) 0.16011(6) 0.01898(9) Uani d 1
H H3B 1.012(6) 0.5294(17) 0.779(4) 0.038(7) Uiso d 1
H H3A 0.839(5) 0.5707(14) 0.830(4) 0.036(7) Uiso d 1
loop_
_atom_site_aniso_label
_atom_site_aniso_U_11
_atom_site_aniso_U_22
_atom_site_aniso_U_33
_atom_site_aniso_U_12
_atom_site_aniso_U_13
_atom_site_aniso_U_23
Cd1 0.01881(9) 0.01293(9) 0.01618(8) 0.00218(6) 0.00860(6) 0.00253(5)
O3 0.0198(6) 0.0220(6) 0.0183(5) 0.0032(5) 0.0091(4) -0.0017(4)
O1 0.0282(6) 0.0172(6) 0.0211(5) 0.0008(5) 0.0167(5) 0.0002(4)
O2 0.0209(6) 0.0164(6) 0.0197(5) 0.0038(5) 0.0115(4) 0.0016(4)
C1 0.0147(7) 0.0152(7) 0.0160(6) -0.0011(6) 0.0071(5) -0.0031(5)
C2 0.0148(7) 0.0141(7) 0.0140(6) 0.0007(6) 0.0061(5) -0.0003(5)
C3 0.0192(7) 0.0166(8) 0.0172(6) 0.0007(6) 0.0103(6) -0.0020(5)
C4 0.0236(8) 0.0165(8) 0.0217(7) 0.0041(6) 0.0136(6) -0.0002(5)
N1 0.0166(6) 0.0140(6) 0.0154(5) 0.0010(5) 0.0082(5) 0.0007(4)
S1 0.0263(2) 0.01547(19) 0.02063(17) 0.00447(16) 0.01507(14) 0.00441(14)
loop_
_atom_type_symbol
_atom_type_description
_atom_type_scat_dispersion_real
_atom_type_scat_dispersion_imag
_atom_type_scat_source
Cd Cd -0.8075 1.2024 'International Tables Vol C Tables 4.2.6.8 and 6.1.1.4'
C C 0.0033 0.0016 'International Tables Vol C Tables 4.2.6.8 and 6.1.1.4'
H H 0.0000 0.0000 'International Tables Vol C Tables 4.2.6.8 and 6.1.1.4'
N N 0.0061 0.0033 'International Tables Vol C Tables 4.2.6.8 and 6.1.1.4'
O O 0.0106 0.0060 'International Tables Vol C Tables 4.2.6.8 and 6.1.1.4'
S S 0.1246 0.1234 'International Tables Vol C Tables 4.2.6.8 and 6.1.1.4'
loop_
_geom_angle_atom_site_label_1
_geom_angle_atom_site_label_2
_geom_angle_atom_site_label_3
_geom_angle_site_symmetry_1
_geom_angle_site_symmetry_3
_geom_angle
N1 Cd1 N1 . 3_666 180.00(7)
N1 Cd1 O3 . . 86.74(5)
N1 Cd1 O3 3_666 . 93.26(5)
N1 Cd1 O3 . 3_666 93.26(5)
N1 Cd1 O3 3_666 3_666 86.74(5)
O3 Cd1 O3 . 3_666 180.00(6)
N1 Cd1 O2 . . 74.31(4)
N1 Cd1 O2 3_666 . 105.69(4)
O3 Cd1 O2 . . 90.80(4)
O3 Cd1 O2 3_666 . 89.20(4)
N1 Cd1 O2 . 3_666 105.69(4)
N1 Cd1 O2 3_666 3_666 74.31(4)
O3 Cd1 O2 . 3_666 89.20(4)
O3 Cd1 O2 3_666 3_666 90.80(4)
O2 Cd1 O2 . 3_666 180.0
Cd1 O3 H3B . . 110(2)
Cd1 O3 H3A . . 111.1(19)
H3B O3 H3A . . 110(3)
C1 O2 Cd1 . . 115.67(9)
O1 C1 O2 . . 128.16(14)
O1 C1 C2 . . 116.32(14)
O2 C1 C2 . . 115.51(12)
N1 C2 C1 . . 123.54(14)
N1 C2 S1 . . 113.69(11)
C1 C2 S1 . . 122.73(11)
C4 C3 N1 . . 114.24(13)
C4 C3 H3 . . 122.9
N1 C3 H3 . . 122.9
C3 C4 S1 . . 110.22(12)
C3 C4 H4 . . 124.9
S1 C4 H4 . . 124.9
C2 N1 C3 . . 111.66(13)
C2 N1 Cd1 . . 110.90(10)
C3 N1 Cd1 . . 137.32(10)
C2 S1 C4 . . 90.19(8)
loop_
_geom_bond_atom_site_label_1
_geom_bond_atom_site_label_2
_geom_bond_site_symmetry_2
_geom_bond_distance
Cd1 N1 . 2.2845(14)
Cd1 N1 3_666 2.2845(14)
Cd1 O3 . 2.3267(13)
Cd1 O3 3_666 2.3268(13)
Cd1 O2 . 2.3276(11)
Cd1 O2 3_666 2.3277(11)
O3 H3B . 0.81(3)
O3 H3A . 0.78(3)
O1 C1 . 1.2422(18)
O2 C1 . 1.264(2)
C1 C2 . 1.514(2)
C2 N1 . 1.3153(18)
C2 S1 . 1.7046(16)
C3 C4 . 1.357(2)
C3 N1 . 1.375(2)
C3 H3 . 0.944(19)
C4 S1 . 1.7098(15)
C4 H4 . 0.92(2)
loop_
_geom_hbond_atom_site_label_D
_geom_hbond_atom_site_label_H
_geom_hbond_atom_site_label_A
_geom_hbond_site_symmetry_A
_geom_hbond_distance_DH
_geom_hbond_distance_HA
_geom_hbond_distance_DA
_geom_hbond_angle_DHA
_geom_hbond_publ_flag
C3 H3 O3 1_455 0.94 2.66 3.4543(19) 142.2 yes
C4 H4 O1 4_576 0.92 2.58 3.336(2) 139.2 yes
C4 H4 S1 4_576 0.92 2.76 3.4218(16) 130.2 yes
O3 H3B O2 3_766 0.81(3) 1.97(3) 2.7294(18) 157(3) yes
O3 H3A O1 1_556 0.78(3) 1.95(3) 2.7106(17) 165(3) yes

_cod_database_fobs_code 2021756
