#------------------------------------------------------------------------------
#$Date: 2019-12-26 21:49:16 +0200 (Thu, 26 Dec 2019) $
#$Revision: 246120 $
#$URL: file:///home/coder/svn-repositories/cod/cif/2/02/19/2021919.cif $
#------------------------------------------------------------------------------
#
# This file is available in the Crystallography Open Database (COD),
# http://www.crystallography.net/. The original data for this entry
# were provided by IUCr Journals, http://journals.iucr.org/.
#
# The file may be used within the scientific community so long as
# proper attribution is given to the journal article from which the
# data were obtained.
#
data_2021919
loop_
_publ_author_name
'Shukla, Rahul'
'Ruzi\'e, Christian'
'Schweicher, Guillaume'
'Kennedy, Alan R.'
'Geerts, Yves H.'
'Chopra, Deepak'
'Chattopadhyay, Basab'
_publ_section_title
;
 Insight from electron density and energy framework analysis on the
 structural features of F&#x000D; x&#x000D; -TCNQ (x = 0, 2, 4) family of
 molecules
;
_journal_coeditor_code           AW5018SUP1
_journal_issue                   1
_journal_name_full
'Acta Crystallographica Section B Structural Science, Crystal Engineering and Materials'
_journal_page_first              71
_journal_paper_doi               10.1107/S2052520618017109
_journal_volume                  75
_journal_year                    2019
_chemical_formula_moiety         'C12 H4 N4'
_chemical_formula_sum            'C12 H4 N4'
_chemical_formula_weight         204.19
_space_group_crystal_system      monoclinic
_space_group_IT_number           15
_space_group_name_Hall           '-C 2yc'
_space_group_name_H-M_alt        'C 1 2/c 1'
_atom_sites_solution_hydrogens   difmap
_audit_creation_method           SHELXL-2014/7
_cell_angle_alpha                90
_cell_angle_beta                 98.288(6)
_cell_angle_gamma                90
_cell_formula_units_Z            4
_cell_length_a                   8.8782(13)
_cell_length_b                   6.9117(10)
_cell_length_c                   16.398(2)
_cell_measurement_reflns_used    4041
_cell_measurement_temperature    100(2)
_cell_measurement_theta_max      30.56
_cell_measurement_theta_min      2.51
_cell_volume                     995.7(2)
_computing_cell_refinement       'Bruker SAINT'
_computing_data_collection       'Bruker APEX2'
_computing_data_reduction        'Bruker SAINT'
_computing_molecular_graphics    'Bruker SHELXTL'
_computing_publication_material  'Bruker SHELXTL'
_computing_structure_refinement  'SHELXL-2014 (Sheldrick 2014)'
_computing_structure_solution    'SHELXS-97 (Sheldrick 2008)'
_diffrn_ambient_temperature      100(2)
_diffrn_measured_fraction_theta_full 1.000
_diffrn_measured_fraction_theta_max 0.999
_diffrn_measurement_device_type  'Bruker APEX-II CCD'
_diffrn_measurement_method       '\f and \w scans'
_diffrn_radiation_type           MoK\a
_diffrn_radiation_wavelength     0.71073
_diffrn_reflns_av_R_equivalents  0.1026
_diffrn_reflns_av_unetI/netI     0.0666
_diffrn_reflns_Laue_measured_fraction_full 1.000
_diffrn_reflns_Laue_measured_fraction_max 0.999
_diffrn_reflns_limit_h_max       12
_diffrn_reflns_limit_h_min       -11
_diffrn_reflns_limit_k_max       9
_diffrn_reflns_limit_k_min       -9
_diffrn_reflns_limit_l_max       23
_diffrn_reflns_limit_l_min       -23
_diffrn_reflns_number            11008
_diffrn_reflns_point_group_measured_fraction_full 1.000
_diffrn_reflns_point_group_measured_fraction_max 0.999
_diffrn_reflns_theta_full        25.242
_diffrn_reflns_theta_max         30.560
_diffrn_reflns_theta_min         2.510
_exptl_absorpt_coefficient_mu    0.088
_exptl_absorpt_correction_type   none
_exptl_crystal_colour            yellow
_exptl_crystal_density_diffrn    1.362
_exptl_crystal_description       block
_exptl_crystal_F_000             416
_exptl_crystal_size_max          0.61
_exptl_crystal_size_mid          0.35
_exptl_crystal_size_min          0.19
_exptl_transmission_factor_max   0.7460
_exptl_transmission_factor_min   0.6574
_refine_diff_density_max         0.314
_refine_diff_density_min         -0.264
_refine_diff_density_rms         0.058
_refine_ls_extinction_method     none
_refine_ls_goodness_of_fit_ref   1.060
_refine_ls_hydrogen_treatment    refall
_refine_ls_matrix_type           full
_refine_ls_number_parameters     81
_refine_ls_number_reflns         1519
_refine_ls_number_restraints     2
_refine_ls_restrained_S_all      1.059
_refine_ls_R_factor_all          0.0823
_refine_ls_R_factor_gt           0.0462
_refine_ls_shift/su_max          0.001
_refine_ls_shift/su_mean         0.000
_refine_ls_structure_factor_coef Fsqd
_refine_ls_weighting_details
'w=1/[\s^2^(Fo^2^)+(0.0640P)^2^+0.0580P] where P=(Fo^2^+2Fc^2^)/3'
_refine_ls_weighting_scheme      calc
_refine_ls_wR_factor_gt          0.1083
_refine_ls_wR_factor_ref         0.1180
_reflns_Friedel_coverage         0.000
_reflns_number_gt                1097
_reflns_number_total             1519
_reflns_threshold_expression     'I > 2\s(I)'
_cod_data_source_file            aw5018sup1.cif
_cod_data_source_block           TCNQ
_cod_original_cell_volume        995.8(3)
_cod_original_sg_symbol_H-M      'C 2/c'
_cod_database_code               2021919
_shelx_shelxl_version_number     2014/7
_shelx_space_group_comment
;
The symmetry employed for this shelxl refinement is uniquely defined
by the following loop, which should always be used as a source of
symmetry information in preference to the above space-group names.
They are only intended as comments.
;
_shelx_res_file
;

    shelx.res created by SHELXL-2014/7


TITL TRY1 in C2/c
CELL 0.71073 8.8782 6.9117 16.3984 90.000 98.288 90.000
ZERR 4.00 0.0013 0.0010 0.0024 0.000 0.006 0.000
LATT 7
SYMM -x, y, -z+1/2
SFAC C H N
UNIT 48 16 16
TEMP -173.110
ACTA
L.S. 10
DFIX 1.083 0.001 C6 H6  C5 H5
FMAP 2
PLAN 10
BOND $H
CONF
WGHT    0.064000    0.058000
FVAR       0.23529
N1    3    0.806477    0.743838    0.239959    11.00000    0.02490    0.02633 =
         0.01986   -0.00349    0.00276   -0.00074
N2    3    0.479846    0.934099    0.400069    11.00000    0.01910    0.02875 =
         0.02233    0.00053    0.00202    0.00003
C1    1    0.786360    0.808793    0.301927    11.00000    0.01358    0.01711 =
         0.01817    0.00042    0.00122   -0.00090
C3    1    0.760989    0.889982    0.379326    11.00000    0.01535    0.01361 =
         0.01418    0.00152    0.00286    0.00062
C4    1    0.879374    0.943891    0.438843    11.00000    0.01410    0.01099 =
         0.01506    0.00256    0.00407    0.00110
C6    1    0.848969    1.026048    0.516074    11.00000    0.01559    0.01495 =
         0.01461    0.00216    0.00429    0.00172
C5    1    1.035545    0.920360    0.425764    11.00000    0.01481    0.01470 =
         0.01422    0.00072    0.00483    0.00161
C2    1    0.604724    0.914785    0.390403    11.00000    0.01707    0.01637 =
         0.01418    0.00019    0.00010   -0.00055
H6    2    0.732100    1.040844    0.526875    11.00000    0.02273
H5    2    1.056630    0.861554    0.367283    11.00000    0.03149
HKLF 4

REM  TRY1 in C2/c
REM R1 =  0.0462 for    1097 Fo > 4sig(Fo)  and  0.0823 for all    1519 data
REM     81 parameters refined using      2 restraints

END

WGHT      0.0635      0.0802

REM Highest difference peak  0.314,  deepest hole -0.264,  1-sigma level  0.058
Q1    1   0.9587  0.9295  0.4312  11.00000  0.05    0.31
Q2    1   1.0470  0.8675  0.3903  11.00000  0.05    0.28
Q3    1   0.8230  0.9483  0.3982  11.00000  0.05    0.24
Q4    1   0.7671  1.0356  0.5172  11.00000  0.05    0.23
Q5    1   1.0941  0.9040  0.4580  11.00000  0.05    0.21
Q6    1   0.6031  0.8585  0.5014  11.00000  0.05    0.19
Q7    1   0.7711  0.9010  0.3385  11.00000  0.05    0.19
Q8    1   1.0894  0.9781  0.4465  11.00000  0.05    0.18
Q9    1   0.8628  0.9844  0.4759  11.00000  0.05    0.18
Q10   1   0.6907  0.9338  0.3804  11.00000  0.05    0.17
;
_shelx_res_checksum              35644
_shelx_hkl_file
;
   2   0   0   52.52    2.60
   2   0   0   44.68    2.30
  -2   0   0   47.46    2.30
   2   0   0   41.92    2.29
   2   0   0   41.84    2.34
   4   0   0   31.45    1.63
  -4   0   0   29.96    1.60
   4   0   0   31.28    1.61
   4   0   0   27.50    1.70
   4   0   0   31.71    2.37
   6   0   0    2.45    1.51
   6   0   0    1.73    0.38
   6   0   0    1.79    0.30
  -6   0   0    2.82    0.33
   6   0   0    2.41    0.46
   8   0   0   19.92    1.36
  -8   0   0   19.27    1.17
   8   0   0   15.17    1.49
   8   0   0   18.76    1.25
   8   0   0   20.76    3.54
  10   0   0    2.73    4.64
 -10   0   0    1.44    0.48
  10   0   0    1.39    0.83
  10   0   0    0.74    0.71
  10   0   0    0.67    0.48
  12   0   0   13.42    1.58
  12   0   0    8.90    1.78
  12   0   0   22.07    9.18
   1  -1   0   25.77    1.33
  -1  -1   0   25.61    1.32
   1  -1   0   25.79    1.31
  -1  -1   0   23.95    1.36
  -1  -1   0   24.07    1.31
   1   1   0   24.88    1.69
   1   1   0   24.80    1.31
  -1   1   0   26.70    1.31
   1   1   0   24.67    1.31
   1   1   0   24.69    1.78
   1   1   0   27.35    1.37
  -3  -1   0  164.91    8.18
   3  -1   0  159.42    8.16
  -3  -1   0  165.17    8.23
   3   1   0  173.90    8.25
   3   1   0  160.41    8.24
   3   1   0  163.26    8.18
   3   1   0  148.92    8.85
  -3   1   0  175.00    8.15
   5  -1   0    0.30    0.17
  -5  -1   0    0.02    0.15
  -5  -1   0    0.01    0.18
   5  -1   0    0.67    0.84
   5  -1   0   -0.05    0.14
   5  -1   0   -0.08    0.26
   5   1   0   -0.29    0.22
  -5   1   0    0.02    0.10
   5   1   0    1.51    1.15
   5   1   0    0.22    0.26
   5   1   0   -0.04    0.16
  -7  -1   0   -0.39    0.24
   7  -1   0    0.24    0.26
   7  -1   0   -0.02    0.40
   7  -1   0   -0.09    0.29
   7  -1   0   -0.28    1.64
   7   1   0    0.43    0.42
   7   1   0   -0.01    0.41
   7   1   0    0.35    0.29
   7   1   0    0.98    2.14
  -9  -1   0    2.33    0.55
   9  -1   0    2.36    0.50
   9  -1   0    0.97    3.11
   9  -1   0    2.25    0.56
   9  -1   0    0.88    0.73
   9   1   0   -0.03    3.79
   9   1   0    1.29    0.63
   9   1   0    2.53    0.73
   9   1   0    1.36    0.53
  11  -1   0   32.10    7.78
  11  -1   0   28.47    2.66
  11  -1   0   30.02    2.10
  11  -1   0   36.29    2.12
  11   1   0   31.64    2.08
  11   1   0   35.54    8.01
  11   1   0   29.29    2.48
  11   1   0   28.31    2.55
   0  -2   0  224.38   11.13
   0  -2   0  237.14   11.54
   0  -2   0  215.19   11.20
   0  -2   0  229.52   11.58
   0   2   0  222.62   11.44
   0   2   0  229.26   11.48
   0   2   0  214.18   11.13
   0   2   0  224.02   11.20
  -2  -2   0  255.21   12.99
  -2  -2   0  273.93   13.55
  -2  -2   0  263.00   12.91
  -2  -2   0  264.84   12.90
   2  -2   0  223.72   12.91
   2  -2   0  262.83   12.89
   2   2   0  252.73   12.89
   2   2   0  272.61   13.88
   2   2   0  271.68   13.00
   4  -2   0   36.78    1.86
  -4  -2   0   36.28    1.91
  -4  -2   0   35.86    2.01
   4   2   0   34.29    1.90
   4   2   0   35.47    1.96
   4   2   0   33.25    2.01
   4   2   0   39.40    3.35
   6  -2   0    1.27    0.28
   6  -2   0    1.03    0.41
  -6  -2   0    1.25    0.34
   6  -2   0    2.98    1.25
  -6  -2   0    1.02    0.34
   6   2   0    0.89    0.25
  -6   2   0    0.99    0.19
   6   2   0    1.07    0.41
   6   2   0    0.53    0.33
   8  -2   0   47.43    2.59
   8  -2   0   46.03    2.90
   8  -2   0   45.31    2.55
   8  -2   0   50.40    5.00
   8   2   0   48.25    2.86
   8   2   0   48.97    2.64
   8   2   0   40.73    6.86
   8   2   0   45.89    2.82
   8   2   0   55.19    6.69
  10  -2   0   14.60    1.25
  10  -2   0   12.48    1.20
  10  -2   0   14.57    4.91
  10  -2   0   14.11    1.85
  10   2   0   14.20    1.31
  10   2   0   12.79    1.76
  10   2   0   15.14    5.33
  10   2   0   15.27    1.80
  10   2   0   18.46    7.87
  12  -2   0   -0.81    0.85
  12  -2   0   -0.16    1.46
  12   2   0  -10.59    9.34
  12   2   0    2.30    1.10
  12   2   0    1.27    1.25
   1  -3   0    3.38    0.79
  -1  -3   0    3.69    0.94
  -1  -3   0    2.99    0.46
   1  -3   0    2.59    0.27
   1  -3   0    2.98    0.38
  -1  -3   0    2.82    0.27
  -1  -3   0    3.39    1.22
   1  -3   0    2.90    0.78
  -1  -3   0    2.66    0.23
   1   3   0    3.38    0.98
  -1   3   0    3.08    0.28
  -1   3   0    2.30    0.36
   1   3   0    3.02    0.85
   1   3   0    2.96    0.43
   1   3   0    2.28    0.26
  -3  -3   0   20.40    1.30
   3  -3   0   25.34    1.36
  -3  -3   0   23.67    1.30
  -3  -3   0   20.69    1.41
   3  -3   0   23.41    1.28
   3   3   0   21.93    1.27
   3   3   0   24.93    1.48
   3   3   0   25.44    2.75
   3   3   0   24.25    1.27
   3   3   0   23.06    2.89
  -5  -3   0   27.49    1.78
  -5  -3   0   24.76    1.86
   5  -3   0   32.29    1.80
   5  -3   0   28.90    1.58
   5  -3   0   30.60    1.64
   5  -3   0   28.75    1.61
   5   3   0   29.34    1.68
   5   3   0   23.63    4.26
   5   3   0   28.31    4.07
   5   3   0   27.85    1.62
   5   3   0   31.79    1.88
   7  -3   0   30.79    1.70
   7  -3   0   29.16    1.71
   7  -3   0   29.47    3.44
  -7  -3   0   27.90    1.89
   7  -3   0   28.34    2.03
   7  -3   0   31.38    1.71
  -7  -3   0   31.71    1.81
   7   3   0   31.88    1.91
   7   3   0   28.83    4.70
   7   3   0   27.06    2.05
   7   3   0   30.01    1.74
  -9  -3   0    7.89    1.04
   9  -3   0    9.07    0.95
   9  -3   0    6.20    0.94
   9  -3   0    6.36    3.41
   9  -3   0   10.49    1.53
   9   3   0   16.33    5.13
   9   3   0    7.56    0.90
   9   3   0    9.80    1.31
   9   3   0    7.43    5.44
   9   3   0   10.93    1.59
  11  -3   0   -0.73    0.74
  11  -3   0   -9.90    6.63
  11  -3   0   -0.48    1.14
  11   3   0   -0.22    1.04
  11   3   0   -0.41    0.75
  11   3   0   -1.52    1.60
  11   3   0    5.88    7.34
   0  -4   0    1.70    1.31
   0  -4   0    0.40    0.90
   0  -4   0    0.31    0.31
   0  -4   0    0.48    0.16
   0   4   0    0.89    0.85
   0   4   0    0.36    0.66
   0   4   0    0.88    0.18
   0   4   0    0.55    0.27
  -2  -4   0   17.35    1.26
   2  -4   0   16.04    1.63
   2  -4   0   17.91    1.03
  -2  -4   0   19.11    1.04
  -2  -4   0   17.40    1.00
   2  -4   0   19.95    1.82
   2  -4   0   16.81    1.18
  -2  -4   0   18.13    2.16
   2   4   0   17.50    1.03
   2   4   0   12.21    2.38
  -2   4   0   16.83    1.04
   2   4   0   18.07    1.26
   2   4   0   18.03    0.93
   2   4   0   16.89    2.54
   4  -4   0   22.90    1.19
   4  -4   0   22.41    1.37
  -4  -4   0   22.39    1.49
  -4  -4   0   18.91    1.37
   4  -4   0   21.98    1.26
   4   4   0   20.95    1.23
   4   4   0   21.23    1.66
   4   4   0   21.50    3.68
   4   4   0   20.96    1.24
   4   4   0   19.80    3.39
  -6  -4   0   33.49    2.17
   6  -4   0   33.62    1.94
   6  -4   0   32.04    2.09
   6  -4   0   33.71    1.90
   6  -4   0   35.15    1.85
   6   4   0   40.93    5.33
   6   4   0   34.19    5.11
   6   4   0   32.78    1.95
   6   4   0   32.50    2.25
   8  -4   0   10.76    1.00
  -8  -4   0   10.75    1.09
  -8  -4   0   11.04    1.24
   8  -4   0   10.36    1.40
   8  -4   0   11.19    0.94
   8  -4   0    9.90    0.96
   8   4   0   11.14    4.54
   8   4   0    8.56    5.06
   8   4   0    9.58    1.39
   8   4   0   10.22    1.21
  10  -4   0    0.39    0.99
  10  -4   0   -4.23    5.05
  10  -4   0   -0.20    0.67
  10  -4   0   -0.45    1.02
  10   4   0    1.34    1.48
  10   4   0    0.71    5.94
  10   4   0   -0.28    0.80
   1  -5   0    5.20    1.42
   1  -5   0    5.37    1.86
   1  -5   0    5.89    0.37
   1  -5   0    5.92    0.83
  -1  -5   0    6.48    1.52
  -1  -5   0    6.92    0.87
   1  -5   0    5.86    0.61
   1   5   0    4.92    1.46
   1   5   0    6.34    0.54
   1   5   0    6.49    1.75
  -1   5   0    6.56    0.56
  -1   5   0    5.30    0.76
  -3  -5   0   16.89    1.09
   3  -5   0   18.27    1.07
  -3  -5   0   14.65    1.32
   3  -5   0   15.33    1.25
   3  -5   0   14.07    2.23
   3   5   0   16.94    0.92
   3   5   0   17.50    1.05
   3   5   0   15.10    2.70
   3   5   0   18.08    1.42
   3   5   0   17.96    2.99
   5  -5   0    0.84    0.46
  -5  -5   0    0.79    0.42
   5  -5   0    0.54    0.42
   5  -5   0    0.61    0.21
   5  -5   0    0.77    0.33
  -5  -5   0    1.35    0.56
   5   5   0    0.58    0.27
   5   5   0    0.51    0.28
   5   5   0   -3.47    2.58
   5   5   0    2.38    2.39
   5   5   0    0.84    0.67
   7  -5   0    0.39    0.43
   7  -5   0    0.27    0.50
  -7  -5   0    0.84    0.56
   7  -5   0    0.01    0.64
   7  -5   0    0.82    0.36
  -7  -5   0   -1.12    0.91
   7   5   0   -0.81    4.60
   7   5   0    0.78    0.97
   7   5   0    4.68    3.43
   7   5   0    0.72    0.43
   7   5   0    0.49    0.37
   9  -5   0    4.11    4.00
  -9  -5   0    3.26    0.87
   9  -5   0    2.55    0.63
   9  -5   0    2.02    1.13
   9   5   0    2.19    1.59
   9   5   0    2.87    0.62
   9   5   0    7.65    4.86
   9   5   0    2.90    0.75
   0  -6   0  107.40    5.65
   0  -6   0  105.80    5.60
   0   6   0   96.64    5.31
   0   6   0  102.40    5.54
   2  -6   0   13.43    2.81
   2  -6   0   13.24    0.96
   2  -6   0   13.40    0.76
  -2  -6   0   14.03    0.98
  -2  -6   0   12.75    1.36
   2  -6   0   12.73    1.32
  -2   6   0   13.74    1.01
   2   6   0   14.10    0.95
   2   6   0   16.27    3.01
   2   6   0   14.51    2.57
   4  -6   0    1.76    0.51
   4  -6   0    4.65    1.83
   4  -6   0    1.17    0.60
  -4  -6   0    2.38    0.67
   4  -6   0    2.30    0.43
  -4  -6   0    2.00    0.51
   4   6   0    1.34    0.84
   4   6   0    2.39    0.31
   4   6   0    1.34    2.51
   4   6   0    3.20    3.15
   4   6   0    1.58    0.39
   6  -6   0    1.30    0.69
   6  -6   0    0.59    0.47
  -6  -6   0    0.59    0.71
   6  -6   0    0.82    0.64
  -6  -6   0    0.34    0.56
   6  -6   0    1.02    0.36
   6   6   0    1.16    0.35
   6   6   0    4.99    3.65
   6   6   0    1.31    0.46
   6   6   0    5.71    4.91
   6   6   0    0.28    1.01
   8  -6   0    2.62    0.85
   8  -6   0    4.16    1.10
  -8  -6   0    2.38    1.02
   8  -6   0    3.65    0.61
   8   6   0    2.04    0.61
   8   6   0    9.81    5.68
   8   6   0    3.03    0.66
   1  -7   0    0.63    0.65
  -1  -7   0    0.57    0.41
   1   7   0    3.98    2.27
   1   7   0   -0.03    1.56
   1   7   0   -0.18    0.60
  -1   7   0    0.20    0.40
   1   7   0    0.56    0.76
   3  -7   0    4.91    3.25
   3  -7   0   -0.09    0.71
  -3  -7   0   -0.14    0.60
   3   7   0    1.54    2.42
   3   7   0    1.19    3.42
  -5  -7   0   -0.50    0.76
   5  -7   0   -0.75    0.61
   5  -7   0   -1.00    2.99
   5  -7   0   -0.81    0.82
   5  -7   0    0.59    0.58
   5   7   0    0.00    0.42
   5   7   0    0.22    4.75
   5   7   0    3.34    3.40
   5   7   0   -0.27    0.23
   7  -7   0   -0.62    0.91
  -7  -7   0    1.69    1.08
   7  -7   0    0.16    0.99
   7  -7   0    1.30    0.59
   7   7   0   -0.33    4.77
   7   7   0    1.95    0.46
   7   7   0    1.74    0.64
   0  -8   0   13.66    1.88
   0   8   0   14.88    1.30
   0   8   0   15.71    2.27
  -2  -8   0   13.69    1.89
   2  -8   0   14.43    2.05
  -2  -8   0   12.69    1.42
  -2   8   0   16.15    1.34
   2   8   0   21.77    4.12
   2   8   0   19.85    3.24
   2   8   0   15.59    1.30
  -4  -8   0   -0.27    0.91
   4  -8   0    0.93    0.31
   4  -8   0    2.02    1.14
   4  -8   0    0.07    0.53
   4   8   0    1.52    0.58
   4   8   0    7.04    4.59
   6  -8   0   -0.06    0.86
  -6  -8   0   -1.91    1.20
   6  -8   0   -2.17    1.35
   6  -8   0   -1.27    0.53
   6   8   0    0.12    4.84
   6   8   0   -0.23    0.67
   1  -9   0    0.04    1.17
  -1  -9   0    1.26    1.27
   1   9   0   -1.22    0.63
  -1   9   0    0.82    0.74
  -3  -9   0    2.48    1.25
   3  -9   0    3.93    1.49
   3   9   0   -4.09    3.60
   3   9   0    3.42    0.87
  -5  -9   0    4.58    2.05
   5  -9   0    0.89    1.60
   5  -9   0    4.43    0.81
   5   9   0    3.46    1.00
   5   9   0   -1.77    5.66
  12   0  -1   15.18    8.49
  10   0  -1   -0.28    0.79
  10   0  -1   -6.54    4.66
  10   0  -1    0.34    0.52
 -10   0   1   -0.32    0.43
  10   0  -1    1.08    0.62
  -8   0   1   -0.12    0.24
   8   0  -1   -1.32    2.50
   8   0  -1    0.40    0.35
   8   0  -1   -0.72    0.39
   8   0  -1    0.18    0.49
  -6   0   1   -0.02    0.14
   6   0  -1    0.11    0.27
   6   0  -1    0.11    0.20
   6   0  -1   -0.48    0.29
   6   0  -1    0.61    1.36
   4   0  -1    0.00    0.11
   4   0  -1    0.20    0.14
   4   0  -1    0.45    0.85
  -4   0   1    0.01    0.11
   2   0  -1   -0.35    0.06
  -2   0   1   -0.35    0.06
   2   0  -1   -0.32    0.07
  -2   0   1   -0.05    0.30
   2   0  -1   -0.39    0.38
   2   0  -1   -0.30    0.07
  -2   0   1   -0.34    0.06
  -2   0   1   -0.30    0.05
  -2   0  -1   -0.01    0.05
   2   0   1    0.03    0.06
  -2   0  -1   -0.11    0.08
   2   0   1    0.01    0.09
   4   0   1    0.12    0.19
   4   0   1   -0.06    0.10
   4   0   1    0.33    0.16
   6   0   1    0.02    1.25
   6   0   1   -0.08    0.28
   6   0   1    0.16    0.20
  -6   0  -1   -0.17    0.15
   6   0   1   -0.01    0.30
   8   0   1    0.08    0.28
   8   0   1   -0.11    0.41
   8   0   1    0.41    2.46
  -8   0  -1    0.38    0.26
   8   0   1    0.07    0.43
  10   0   1   -0.09    0.73
  10   0   1   -1.01    0.78
 -10   0  -1    0.14    0.46
  10   0   1   -0.13    4.60
  10   0   1    3.58    4.78
  10   0   1   -0.36    0.48
  12   0   1   -0.86    0.77
  12   0   1    1.25    1.21
  12   0   1  -11.48    8.73
  11  -1  -1   13.57    6.88
  11  -1  -1    4.14    1.15
  11   1  -1    5.63    6.37
  11   1  -1    1.48    1.05
   9  -1  -1    8.94    3.89
   9  -1  -1    5.03    0.79
  -9  -1   1    6.78    0.81
   9  -1  -1    4.78    0.96
   9   1  -1    5.29    0.77
   9   1  -1    8.60    4.21
   9   1  -1    7.15    1.05
  -7  -1   1   -0.03    0.24
   7  -1  -1    0.13    0.25
   7  -1  -1    0.38    1.96
   7  -1  -1   -0.03    0.24
   7  -1  -1    0.01    0.41
   7   1  -1   -0.03    0.24
  -7   1   1    0.09    0.18
   7   1  -1    0.43    0.41
   7   1  -1   -0.62    2.18
   7   1  -1    0.03    0.39
   5  -1  -1  116.82    5.82
   5  -1  -1  115.38    6.67
   5  -1  -1  116.17    5.77
  -5  -1   1  116.37    5.86
   5  -1  -1  116.54    5.77
  -5  -1   1  113.82    5.82
   5   1  -1  112.54    5.83
   5   1  -1  107.15    5.87
   5   1  -1  126.66    7.25
   5   1  -1  111.39    5.94
  -5   1   1  116.53    5.79
  -3  -1   1   76.17    4.22
  -3  -1   1   70.43    3.54
   3  -1  -1   68.18    3.89
   3  -1  -1   70.16    3.53
  -3  -1   1   66.41    3.57
   3   1  -1   73.17    4.38
   3   1  -1   65.84    3.54
   3   1  -1   65.36    3.59
  -3   1   1   69.93    3.51
   3   1  -1   75.47    3.60
  -1  -1   1    6.52    0.39
   1  -1  -1    6.76    0.58
  -1  -1   1    7.37    0.45
  -1  -1   1    7.27    0.87
   1   1  -1    5.82    0.83
   1   1  -1    6.24    0.39
   1   1  -1    7.52    0.45
  -1   1   1    7.24    0.40
  -1  -1  -1  136.73    6.84
  -1  -1  -1  146.41    6.90
  -1  -1  -1  148.27    7.39
   1  -1   1  134.67    6.86
  -1  -1  -1  131.57    6.85
   1  -1   1  137.25    6.84
   1   1   1  142.87    7.33
   1   1   1  126.47    6.86
  -1   1  -1  130.65    6.84
   1   1   1  145.03    6.90
  -3  -1  -1  232.26   11.14
   3  -1   1  228.66   11.11
  -3  -1  -1  219.52   11.18
   3  -1   1  191.33   11.18
  -3  -1  -1  225.79   11.20
   3   1   1  220.51   11.13
   3   1   1  242.36   11.21
   3   1   1  237.06   11.19
  -3   1  -1  236.28   11.10
   3   1   1  204.04   11.67
   5  -1   1   73.63    3.66
  -5  -1  -1   71.78    3.67
   5  -1   1   65.78    3.79
   5   1   1   70.78    3.68
   5   1   1   74.07    3.77
  -5   1  -1   71.69    3.63
   5   1   1   73.25    4.88
   5   1   1   70.95    3.78
   7  -1   1  115.70    7.14
   7  -1   1  110.76    5.67
   7  -1   1   93.28    5.83
  -7  -1  -1  115.42    5.68
   7  -1   1  112.81    5.69
   7   1   1  111.01    5.68
   7   1   1  102.70    7.73
   7   1   1  111.96    5.86
  -7   1  -1  116.74    5.66
   7   1   1  115.14    5.80
   9  -1   1    1.47    3.09
   9  -1   1    0.25    0.61
   9  -1   1    0.67    0.52
   9  -1   1    0.22    0.39
   9   1   1    0.27    0.40
  -9   1  -1    0.35    0.39
   9   1   1   -0.51    0.59
   9   1   1   -0.40    0.62
   9   1   1   -1.54    3.67
   9   1   1   -2.26    3.64
  11  -1   1    1.35    0.72
  11  -1   1    1.97    1.01
  11  -1   1   11.09    6.95
  11  -1   1   -0.51    0.85
  11  -1   1    7.96    5.97
  11   1   1    2.38    0.90
  11   1   1    3.74    7.09
  11   1   1   -0.46    1.15
  11   1   1    1.43    0.73
  12  -2  -1    2.31    1.41
  12  -2  -1   -0.27    0.87
  12   2  -1    0.60    0.92
  12   2  -1    0.06    1.29
  12   2  -1   -4.55    9.01
  10  -2  -1    3.21    0.99
  10  -2  -1    1.97    0.62
  10  -2  -1    9.21    4.64
  10   2  -1    2.34    1.01
  10   2  -1    3.15    0.65
  10   2  -1    2.99    6.08
  10   2  -1    2.72    0.90
   8  -2  -1   18.81    1.64
   8  -2  -1   17.07    3.55
   8  -2  -1   19.35    1.30
   8   2  -1   20.06    1.58
   8   2  -1   19.69    1.32
   8   2  -1   26.91    4.87
  -8   2   1   20.74    1.23
   8   2  -1   21.69    1.60
  -6  -2   1   11.35    0.90
  -6  -2   1   11.52    0.92
   6  -2  -1   12.00    1.01
   6  -2  -1   12.18    0.78
   6  -2  -1    9.13    1.73
   6   2  -1   11.59    0.81
   6   2  -1    9.34    0.97
   6   2  -1   11.25    0.96
  -4  -2   1   83.13    4.94
   4  -2  -1   88.62    4.01
  -4  -2   1   79.46    4.14
   4  -2  -1   77.88    4.39
   4  -2  -1   75.41    4.01
  -4  -2   1   83.49    4.06
   4   2  -1   70.73    4.13
   4   2  -1   77.08    4.05
   4   2  -1   83.32    5.45
   4   2  -1   75.71    4.10
  -2  -2   1    2.83    0.25
  -2  -2   1    3.53    0.98
   2  -2  -1    2.57    0.28
  -2  -2   1    2.70    0.38
   2  -2  -1    2.85    0.25
   2   2  -1    2.54    0.35
   2   2  -1    2.43    0.24
   2   2  -1    2.90    0.25
   2   2  -1    3.71    1.02
   0  -2   1  563.58   28.72
   0  -2  -1  597.59   28.78
   0  -2   1  611.47   28.76
   0  -2  -1  576.52   28.37
   0  -2   1  487.72   28.29
   0   2   1  568.35   28.37
   0   2   1  573.85   28.67
   0   2   1  587.13   28.68
   0   2  -1  589.83   28.60
   2  -2   1   10.68    0.61
  -2  -2  -1    8.81    0.65
  -2  -2  -1    8.83    0.58
   2  -2   1    9.61    0.55
  -2  -2  -1    9.17    0.57
   2  -2   1   10.25    0.61
   2   2   1    8.73    0.55
  -2   2  -1    8.68    0.54
   2   2   1    8.97    0.54
   2   2   1    9.92    1.48
   2   2   1    9.05    1.53
   2   2   1    8.89    0.68
  -4  -2  -1    1.33    0.23
  -4  -2  -1    1.47    0.31
   4  -2   1    0.71    0.25
   4  -2   1    0.99    0.19
  -4  -2  -1    0.90    0.27
   4  -2   1    1.23    0.18
   4   2   1    1.11    0.24
   4   2   1    1.24    0.37
   4   2   1    0.74    0.19
   4   2   1    0.95    1.48
   4   2   1    1.49    1.28
   6  -2   1    3.10    0.39
   6  -2   1    4.36    1.20
   6  -2   1    2.35    0.49
  -6  -2  -1    2.47    0.43
  -6  -2  -1    2.31    0.40
   6   2   1    2.62    0.41
   6   2   1    2.52    1.91
   6   2   1   -0.38    2.07
   6   2   1    3.12    0.60
   6   2   1    2.51    0.44
  -6   2  -1    2.35    0.31
   8  -2   1    1.56    0.40
   8  -2   1    1.73    0.47
   8  -2   1   -0.11    2.23
   8  -2   1    1.06    0.66
   8   2   1    1.89    0.76
   8   2   1    3.65    3.41
   8   2   1    2.76    3.37
   8   2   1    2.07    0.41
   8   2   1    0.37    0.49
  -8   2  -1    1.26    0.28
  10  -2   1    5.15    0.75
  10  -2   1    6.24    1.16
  10  -2   1    3.55    4.59
  10  -2   1    7.79    1.19
  10   2   1    5.66    0.84
  10   2   1    6.15    5.16
  10   2   1    6.54    1.21
  10   2   1    6.90    1.06
  12  -2   1    0.22    1.58
  12  -2   1    4.26    1.02
  12  -2   1    4.98    8.56
  12   2   1    2.61    1.01
  12   2   1    9.79    9.63
  12   2   1    3.46    1.41
  11  -3  -1    5.00    1.41
  11  -3  -1    6.98    1.03
  11  -3  -1    0.17    7.21
  11   3  -1    5.57    1.71
  11   3  -1    8.60    1.28
  11   3  -1    2.14    7.19
  -9  -3   1    0.87    0.52
   9  -3  -1    1.65    0.54
   9  -3  -1    1.14    0.54
   9  -3  -1    6.05    6.26
   9  -3  -1    0.89    0.79
   9   3  -1    0.62    5.45
   9   3  -1    0.43    0.72
   9   3  -1    0.93    0.86
   9   3  -1    0.90    0.47
   9   3  -1    3.13    4.19
  -7  -3   1  116.36    6.25
   7  -3  -1  108.36    7.34
   7  -3  -1  121.95    6.03
   7  -3  -1  119.10    6.09
   7  -3  -1  121.36    6.09
   7   3  -1  118.45    6.24
   7   3  -1  114.63    8.94
   7   3  -1  128.66    6.66
   7   3  -1  120.20    6.14
  -5  -3   1    0.71    0.27
   5  -3  -1    0.56    0.18
   5  -3  -1    0.09    0.21
   5  -3  -1    0.12    0.22
  -5  -3   1    0.54    0.36
   5  -3  -1    1.78    0.97
   5   3  -1    0.23    1.64
   5   3  -1    0.73    0.22
   5   3  -1    0.49    0.27
   5   3  -1    0.52    0.37
   5   3  -1    0.45    1.91
  -3  -3   1   26.60    2.71
  -3  -3   1   29.77    1.77
  -3  -3   1   30.17    1.61
   3  -3  -1   33.99    1.67
   3  -3  -1   29.57    1.59
   3   3  -1   25.29    3.16
   3   3  -1   25.06    1.73
   3   3  -1   31.45    3.15
   3   3  -1   29.86    1.58
   1  -3  -1   92.57    4.86
   1  -3  -1   97.02    5.29
   1  -3  -1   95.42    4.77
  -1  -3   1   94.92    5.61
  -1  -3   1   90.20    4.90
   1   3  -1   97.84    5.59
  -1   3   1   94.66    4.77
   1   3  -1   91.39    4.77
   1   3  -1   93.22    5.57
  -1   3   1   99.68    4.86
   1   3  -1   93.93    4.90
  -1  -3  -1   -0.43    0.98
  -1  -3  -1    0.18    0.22
   1  -3   1   -0.10    0.61
  -1  -3  -1    0.14    0.11
   1  -3   1    0.88    0.66
   1  -3   1    0.06    0.17
   1  -3   1    0.23    0.12
  -1  -3  -1    0.02    0.10
   1   3   1    0.86    0.80
  -1   3  -1    0.10    0.11
   1   3   1    0.31    0.22
   1   3   1   -0.03    0.72
   1   3   1    0.18    0.07
   1   3   1    0.11    0.10
  -1   3  -1    0.30    0.17
   3  -3   1   10.55    0.77
  -3  -3  -1   10.90    0.75
  -3  -3  -1   11.27    0.88
   3  -3   1   10.82    0.68
   3  -3   1   11.33    0.77
  -3  -3  -1   11.27    0.71
   3   3   1   12.42    0.94
   3   3   1   10.76    0.69
   3   3   1   11.19    2.08
   3   3   1   10.95    0.67
   3   3   1    7.54    1.60
   5  -3   1   64.49    3.22
  -5  -3  -1   63.66    3.43
   5  -3   1   61.07    3.39
   5  -3   1   68.93    3.32
   5  -3   1   63.41    3.24
   5   3   1   56.02    5.41
   5   3   1   59.79    3.47
   5   3   1   58.10    3.30
  -7  -3  -1   56.15    3.11
   7  -3   1   58.56    2.91
  -7  -3  -1   55.39    2.97
   7  -3   1   51.48    3.15
   7  -3   1   54.48    2.88
   7  -3   1   49.57    4.15
   7   3   1   54.08    3.06
   7   3   1   48.05    6.22
   7   3   1   53.38    2.93
   9  -3   1   16.26    1.26
   9  -3   1   17.77    1.28
  -9  -3  -1   14.50    1.31
   9  -3   1   16.53    1.23
   9  -3   1   16.46    1.70
   9  -3   1    9.32    3.59
   9  -3   1   13.97    1.20
   9   3   1   10.89    4.88
   9   3   1   22.79    6.05
   9   3   1   15.38    1.23
   9   3   1   15.29    1.57
   9   3   1   16.02    1.92
  11  -3   1    8.06    1.26
  11  -3   1   24.05    7.43
  11  -3   1    8.02    1.06
  11  -3   1    7.78    1.55
  11   3   1    7.95    1.31
  11   3   1    5.06    7.45
  11   3   1    9.82    1.36
  11   3   1    9.00    1.90
  10  -4  -1    7.59    5.43
  10  -4  -1    3.97    1.25
  10  -4  -1    3.44    0.78
  10   4  -1   -0.06    1.47
  10   4  -1    2.66    0.76
  10   4  -1   -5.56    5.74
  10   4  -1    2.50    0.90
   8  -4  -1    7.14    0.91
   8  -4  -1    7.84    1.08
   8  -4  -1    8.06    0.86
   8  -4  -1    8.25    2.90
  -8  -4   1    7.96    1.18
  -8  -4   1    7.48    0.97
   8   4  -1    0.54    4.07
   8   4  -1    7.59    5.97
   8   4  -1    8.83    1.27
   8   4  -1    8.40    0.91
   8   4  -1    8.63    1.09
  -6  -4   1    5.80    0.93
   6  -4  -1    4.41    0.62
   6  -4  -1    2.00    1.51
   6  -4  -1    4.64    0.49
   6  -4  -1    4.44    0.61
   6   4  -1    4.19    0.80
   6   4  -1    7.06    3.06
   6   4  -1    4.46    0.67
   6   4  -1    4.68    2.95
  -4  -4   1    2.45    0.51
  -4  -4   1    3.93    1.48
   4  -4  -1    2.03    0.32
   4  -4  -1    3.09    0.43
   4  -4  -1    2.95    0.53
   4   4  -1    0.25    1.64
   4   4  -1    3.37    0.38
   4   4  -1    2.91    0.39
   4   4  -1    2.40    2.20
   4   4  -1    2.02    0.54
   2  -4  -1   75.77    3.66
  -2  -4   1   73.33    3.86
   2  -4  -1   71.05    4.30
  -2  -4   1   70.11    4.83
  -2  -4   1   72.66    3.65
   2   4  -1   73.58    3.65
  -2   4   1   73.79    3.75
   2   4  -1   69.37    4.99
   2   4  -1   69.74    3.54
   2   4  -1   62.66    3.81
  -2   4   1   69.07    3.65
   2   4  -1   66.81    4.99
   0  -4  -1   48.66    2.46
   0  -4   1   48.17    3.81
   0  -4   1   46.55    2.71
   0  -4  -1   48.89    2.55
   0  -4  -1   49.78    3.89
   0  -4   1   49.67    2.55
   0  -4  -1   53.99    2.75
   0  -4   1   52.02    3.53
   0   4  -1   47.32    3.14
   0   4   1   50.79    2.71
   0   4  -1   49.72    2.56
   0   4   1   45.97    3.32
   0   4  -1   45.79    3.00
   0   4   1   47.99    3.13
   0   4  -1   48.40    2.69
   0   4   1   46.02    2.55
   2  -4   1   21.04    1.90
  -2  -4  -1   22.13    1.43
  -2  -4  -1   20.94    1.22
   2  -4   1   20.43    1.36
   2  -4   1   21.43    1.93
  -2  -4  -1   20.14    1.19
   2  -4   1   22.10    1.22
   2   4   1   22.72    1.45
   2   4   1   19.45    2.61
   2   4   1   20.80    1.12
   2   4   1   22.93    2.75
  -2   4  -1   21.09    1.22
   2   4   1   21.88    1.21
   4  -4   1    0.86    0.30
  -4  -4  -1    0.75    0.30
   4  -4   1    0.57    0.22
  -4  -4  -1    0.55    0.27
  -4  -4  -1    0.41    0.38
   4  -4   1    0.98    0.18
   4  -4   1    0.37    0.28
   4   4   1    0.90    0.23
   4   4   1    0.89    1.95
   4   4   1    0.71    0.23
   4   4   1    1.22    1.96
   6  -4   1    0.42    0.29
   6  -4   1    0.36    0.25
  -6  -4  -1    1.44    0.50
   6  -4   1    0.44    0.44
   6  -4   1    0.57    0.40
   6   4   1    0.81    0.33
   6   4   1   -0.97    2.94
   6   4   1    0.52    0.24
   6   4   1    0.11    2.13
   6   4   1    0.69    0.65
   8  -4   1    4.70    0.95
   8  -4   1    8.44    2.58
   8  -4   1    4.63    0.60
   8  -4   1    6.83    0.82
   8  -4   1    5.69    0.92
  -8  -4  -1    5.75    0.89
   8   4   1    4.43    4.06
   8   4   1    4.92    1.16
   8   4   1    3.58    0.71
   8   4   1   -0.31    4.86
  10  -4   1    0.92    5.17
  10  -4   1    0.04    0.64
  10  -4   1    0.86    1.03
  10  -4   1    1.44    0.70
  10  -4   1    0.42    0.77
  10   4   1    0.81    0.82
  10   4   1   -1.00    1.52
  10   4   1   -2.36    5.79
   9  -5  -1    2.37    0.59
  -9  -5   1    1.18    0.90
   9  -5  -1    0.05    1.02
   9  -5  -1    6.11    4.03
   9   5  -1    2.03    0.72
   9   5  -1   10.75    5.60
   9   5  -1   -1.52    1.42
   9   5  -1    2.53    0.62
  -7  -5   1   19.46    1.75
   7  -5  -1   20.28    1.37
   7  -5  -1   19.17    1.27
   7  -5  -1   18.17    1.68
   7  -5  -1   23.67    3.62
  -7  -5   1   19.74    1.47
   7   5  -1   19.35    4.81
   7   5  -1   16.93    2.04
   7   5  -1   20.74    1.32
   7   5  -1   24.76    5.46
   7   5  -1   19.29    1.36
   5  -5  -1   18.36    2.04
   5  -5  -1   12.10    0.84
   5  -5  -1   11.83    0.95
  -5  -5   1   14.09    1.04
  -5  -5   1   13.57    1.29
   5   5  -1   13.13    0.95
   5   5  -1   12.68    1.42
   5   5  -1   13.85    0.89
   5   5  -1   15.55    3.94
   5   5  -1    8.04    3.04
  -3  -5   1   35.06    1.92
  -3  -5   1   33.95    3.62
   3  -5  -1   35.14    1.92
   3  -5  -1   35.74    2.08
  -3  -5   1   33.53    2.21
   3  -5  -1   30.81    2.97
   3   5  -1   35.24    1.90
   3   5  -1   32.46    2.20
   3   5  -1   33.85    1.76
   3   5  -1   33.04    4.24
   3   5  -1   34.12    4.27
   1  -5  -1    2.59    0.54
   1  -5  -1    2.04    0.34
  -1  -5   1    2.63    1.48
   1  -5  -1    2.74    1.65
   1  -5  -1    2.16    0.23
  -1  -5   1    2.61    0.52
  -1   5   1    3.10    0.51
  -1   5   1    2.13    0.35
   1   5  -1    3.07    0.40
   1   5  -1    0.14    1.37
   1   5  -1    1.92    1.36
   1  -5   1    0.70    1.88
  -1  -5  -1    1.24    0.22
  -1  -5  -1    2.07    2.09
  -1  -5  -1    1.86    0.46
   1  -5   1    1.17    0.28
   1  -5   1    0.57    0.39
   1  -5   1    1.41    1.21
   1   5   1    1.19    0.26
   1   5   1    0.17    1.15
  -1   5  -1    1.16    0.27
  -1   5  -1    1.20    0.40
   1   5   1    2.08    1.47
   3  -5   1    3.22    0.55
  -3  -5  -1    2.81    0.56
   3  -5   1    4.53    1.23
   3  -5   1    2.43    0.37
   3  -5   1    5.12    1.11
  -3  -5  -1    3.05    0.41
   3  -5   1    2.48    0.39
  -3  -5  -1    2.91    0.52
   3   5   1    2.83    0.30
   3   5   1    3.73    1.92
   3   5   1    3.02    0.43
   3   5   1    3.25    0.72
   3   5   1    6.96    2.41
   5  -5   1    4.03    0.44
   5  -5   1    3.80    0.61
  -5  -5  -1    5.39    0.95
   5  -5   1    4.70    0.60
   5  -5   1    2.91    0.60
   5   5   1    3.11    0.49
   5   5   1    3.60    0.51
   5   5   1   -0.23    2.69
   5   5   1    3.69    0.86
   5   5   1    3.17    2.68
   7  -5   1   24.62    1.47
  -7  -5  -1   21.29    2.18
   7  -5   1   24.49    1.72
  -7  -5  -1   25.86    1.68
   7  -5   1   21.64    1.53
   7  -5   1   21.63    1.83
   7   5   1   19.53    2.25
   7   5   1   24.96    1.51
   7   5   1   23.15    5.06
   7   5   1   26.29    1.59
   7   5   1   35.82    6.63
   9  -5   1   11.43    1.38
   9  -5   1   15.13    1.90
   9  -5   1   13.75    1.27
   9  -5   1   13.73    3.98
  -9  -5  -1   12.14    1.62
   9   5   1   13.16    1.41
   9   5   1   11.95    6.12
   9   5   1   12.42    1.19
  10  -6  -1    3.77    0.96
  10  -6  -1    0.08    1.48
  10   6  -1    0.97    0.84
  10   6  -1    0.04    0.88
   8  -6  -1    1.00    0.53
   8  -6  -1    1.96    0.78
   8  -6  -1    0.12    0.94
  -8  -6   1    0.33    0.88
   8   6  -1    1.80    0.61
   8   6  -1    1.73    0.62
   8   6  -1    0.25    5.10
   6  -6  -1    2.37    0.43
   6  -6  -1    2.02    0.75
   6  -6  -1    4.26    1.90
   6  -6  -1    2.73    0.58
  -6  -6   1    1.61    0.81
  -6  -6   1    3.24    0.70
   6  -6  -1    1.73    0.71
   6   6  -1    5.98    4.14
   6   6  -1   -2.72    4.77
   6   6  -1    4.20    1.14
   6   6  -1    2.24    0.42
   6   6  -1    2.33    0.48
  -4  -6   1    4.76    0.85
   4  -6  -1    5.22    0.69
   4  -6  -1    5.07    2.02
   4  -6  -1    4.32    0.75
  -4  -6   1    5.25    0.78
   4   6  -1    4.02    2.67
   4   6  -1    5.22    0.65
   4   6  -1    6.48    1.07
   4   6  -1    6.86    3.38
   4   6  -1    5.18    0.40
  -2  -6   1    0.83    0.53
   2  -6  -1    0.31    0.52
  -2  -6   1   -0.13    0.30
  -2  -6   1   -1.45    1.59
   2  -6  -1   -1.93    2.16
   2  -6  -1    0.30    0.16
  -2   6   1    0.80    0.49
   2   6  -1    2.28    2.07
  -2   6   1    0.30    0.28
   2   6  -1    0.35    0.28
   2   6  -1    1.30    1.69
   0  -6   1    4.50    0.78
   0  -6  -1    4.13    0.53
   0  -6  -1    4.54    3.01
   0  -6   1    0.53    1.70
   0  -6  -1    3.62    0.74
   0   6  -1    3.63    0.54
   0   6   1    5.37    1.50
   0   6   1    4.09    0.57
   0   6   1    2.77    0.69
   0   6  -1    6.01    1.00
   0   6   1    4.80    1.11
  -2  -6  -1    3.95    0.58
   2  -6   1    3.03    0.44
  -2  -6  -1    2.67    0.49
   2  -6   1    2.38    1.62
  -2  -6  -1    2.88    0.68
   2  -6   1    5.10    2.36
   2  -6   1    2.06    0.61
   2   6   1    5.08    1.91
  -2   6  -1    3.62    0.49
   2   6   1    1.28    2.51
   2   6   1    3.33    0.51
  -4  -6  -1    1.82    0.49
   4  -6   1    1.93    0.64
   4  -6   1    1.62    0.43
  -4  -6  -1    1.96    0.68
   4  -6   1    1.80    0.47
   4  -6   1   -0.58    1.77
   4   6   1    5.95    2.44
   4   6   1    1.38    0.38
   4   6   1    4.80    3.25
   4   6   1    2.16    1.08
   4   6   1    1.87    0.33
  -6  -6  -1    0.07    0.70
   6  -6   1   -0.02    0.70
   6  -6   1    1.00    0.51
  -6  -6  -1    0.54    0.59
   6  -6   1    1.17    0.36
   6  -6   1    0.95    0.69
   6   6   1    1.16    3.43
   6   6   1    0.41    0.34
   6   6   1   -3.71    4.66
   6   6   1    0.77    1.08
   8  -6   1    1.78    0.57
  -8  -6  -1    1.91    0.97
   8  -6   1    1.66    0.92
   8   6   1    1.92    0.78
   8   6   1    6.28    5.41
   8   6   1    1.66    0.58
   7  -7  -1    0.81    0.57
  -7  -7   1   -0.93    1.03
   7  -7  -1    0.77    0.95
   7  -7  -1   -1.03    0.91
   7   7  -1   -2.17    4.39
   7   7  -1   -0.04    0.39
  -5  -7   1    4.83    0.92
   5  -7  -1    6.86    0.86
   5  -7  -1    4.69    3.02
  -5  -7   1    6.63    1.15
   5  -7  -1    5.78    0.93
   5  -7  -1    4.71    0.68
   5  -7  -1    8.64    1.55
   5   7  -1    6.31    3.74
   5   7  -1   10.00    5.21
   5   7  -1    5.16    0.49
   5   7  -1    5.76    0.82
   5   7  -1    4.23    2.23
   3  -7  -1    2.20    0.84
   3  -7  -1    2.60    0.58
  -3  -7   1    2.71    0.56
  -3  -7   1    1.22    0.75
   3  -7  -1    3.71    3.21
   3  -7  -1    2.50    0.40
   3   7  -1    7.11    2.66
   3   7  -1    2.17    0.46
   3   7  -1    4.43    3.52
   3   7  -1    2.21    1.55
   1  -7  -1    8.52    3.70
  -1  -7   1    7.27    0.78
  -1   7   1    6.28    0.87
   1   7  -1    6.29    0.92
   1   7  -1    3.41    1.94
   1   7  -1    6.37    1.10
   1   7  -1    4.69    1.68
   1  -7   1    4.44    0.98
  -1  -7  -1    6.10    1.42
   1   7   1    4.59    0.98
   1   7   1    5.05    2.39
   1   7   1    2.84    1.72
  -1   7  -1    4.48    0.64
   3  -7   1    0.04    0.71
  -3  -7  -1    0.22    0.48
  -3  -7  -1    1.48    0.75
   3  -7   1    0.10    0.44
   3   7   1    0.63    2.41
   3   7   1    0.36    0.41
   3   7   1    1.87    1.01
   3   7   1   -0.82    3.53
   5  -7   1    3.61    0.67
   5  -7   1    3.79    3.35
   5  -7   1    2.52    0.62
   5  -7   1    2.50    0.45
   5  -7   1    0.35    0.88
  -5  -7  -1    2.45    0.92
   5   7   1    2.40    3.49
   5   7   1    8.14    5.25
   5   7   1    2.58    0.54
   5   7   1    2.40    0.35
   7  -7   1    0.12    0.90
   7  -7   1    1.84    0.57
   7  -7   1    2.26    1.12
  -7  -7  -1    2.18    1.11
   7   7   1    1.47    0.46
   7   7   1    0.33    0.62
   7   7   1   -3.63    5.74
   6  -8  -1   -0.22    1.34
   6  -8  -1    3.79    0.67
   6  -8  -1    0.36    1.04
  -6  -8   1    4.07    1.30
   6   8  -1    2.26    0.75
   6   8  -1   -0.11    5.05
   4  -8  -1   19.53    5.93
  -4  -8   1   18.81    2.12
   4  -8  -1   17.22    2.11
   4  -8  -1   15.77    1.04
   4  -8  -1   17.28    1.45
   4   8  -1    3.18    5.54
   4   8  -1   13.39    1.41
  -2  -8   1   -0.44    0.86
   2  -8  -1    0.93    0.93
  -2  -8   1   -0.06    0.61
   2   8  -1    6.19    2.72
   2   8  -1   -0.18    0.47
   2   8  -1    5.56    3.17
   0  -8   1    3.87    1.21
   0  -8  -1    4.50    1.08
   0  -8   1    4.18    0.70
   0   8   1    5.75    1.39
   0   8  -1    5.11    0.78
   0   8   1    4.47    0.71
  -2  -8  -1    0.06    0.74
   2  -8   1   -0.15    0.92
  -2  -8  -1    0.78    0.81
   2   8   1   -1.56    3.53
  -2   8  -1   -0.54    0.47
   2   8   1    0.13    0.54
  -4  -8  -1    3.11    1.07
   4  -8   1    3.01    1.19
   4   8   1    3.64    0.64
   4   8   1    3.72    4.03
  -6  -8  -1    0.41    1.21
   6  -8   1    1.36    0.82
   6  -8   1    2.42    0.63
   6  -8   1    3.73    1.36
   6   8   1    0.62    4.97
   6   8   1    2.56    0.77
   5  -9  -1   13.57    1.98
  -5  -9   1   12.53    2.35
   5  -9  -1   14.42    1.45
   5   9  -1   28.03    6.46
   5   9  -1   15.72    1.76
  -3  -9   1   -0.22    1.13
   3  -9  -1    2.16    1.30
   3   9  -1   -1.89    3.63
   3   9  -1   -1.20    0.77
   1  -9  -1   10.80    1.68
  -1  -9   1    9.95    1.72
   1   9  -1    7.99    1.29
  -1   9   1    8.21    1.36
  -1  -9  -1    4.68    1.32
   1  -9   1    5.74    1.48
  -1   9  -1    3.07    0.82
   1   9   1    2.87    0.82
   3  -9   1   -0.20    1.32
  -3  -9  -1    1.14    1.25
   3   9   1   -7.12    3.74
   3   9   1    1.55    0.86
   5  -9   1    0.27    1.66
   5   9   1    1.45    0.96
   5   9   1   -0.65    5.82
  12   0  -2    4.14    1.44
  12   0  -2    3.13    0.95
  10   0  -2    1.50    0.56
 -10   0   2    0.85    0.49
  10   0  -2    8.82    5.24
  10   0  -2    1.01    0.61
  10   0  -2    1.03    0.82
   8   0  -2   27.00    4.98
   8   0  -2   24.12    1.80
   8   0  -2   23.00    1.50
   8   0  -2   24.40    1.49
  -8   0   2   24.91    1.45
   6   0  -2   21.26    3.18
   6   0  -2   21.95    1.25
   6   0  -2   17.49    1.22
   6   0  -2   23.35    1.44
  -6   0   2   21.68    1.21
  -4   0   2  219.52   11.27
   4   0  -2  248.18   12.28
   4   0  -2  214.66   11.28
  -4   0   2  211.00   11.26
   4   0  -2  236.54   11.26
  -4   0   2  231.91   11.79
   2   0  -2  250.07   12.45
  -2   0   2  239.83   12.47
   2   0  -2  235.11   12.47
  -2   0   2  244.44   12.92
   2   0  -2  284.80   13.04
  -2   0   2  257.95   12.46
   0   0   2  113.91    5.87
   0   0  -2  114.19    5.91
   2   0   2  355.64   19.60
   2   0   2  419.32   19.18
   2   0   2  363.61   19.12
  -2   0  -2  407.86   19.19
  -4   0  -2    2.66    0.41
  -4   0  -2    3.51    0.29
   4   0   2    2.65    0.29
   4   0   2    3.30    0.40
   4   0   2    3.59    0.39
   6   0   2    3.75    1.42
   6   0   2    4.53    0.64
   6   0   2    3.89    0.47
   6   0   2    4.99    0.65
  -6   0  -2    4.44    0.42
   8   0   2   54.36    3.11
  -8   0  -2   54.26    2.95
   8   0   2   68.28    6.42
   8   0   2   52.62    2.99
   8   0   2   57.13    5.77
   8   0   2   56.50    3.26
  10   0   2   60.04    3.88
  10   0   2   60.27    9.12
  10   0   2   63.83    8.64
 -10   0  -2   71.60    3.55
  10   0   2   64.73    3.58
  12   0   2    4.38    8.75
  12   0   2    3.01    0.94
  12   0   2    3.38    1.09
  11  -1  -2    7.95    6.88
  11  -1  -2   10.01    1.27
  11  -1  -2    8.90    1.55
  11   1  -2   10.87    1.59
  11   1  -2   11.87    1.92
  11   1  -2    7.88    1.26
   9  -1  -2   25.71    4.68
  -9  -1   2   19.85    1.28
   9  -1  -2   20.13    1.84
   9  -1  -2   17.28    1.34
   9   1  -2   20.33    5.06
   9   1  -2   16.55    1.45
   7  -1  -2   39.81    4.33
  -7  -1   2   38.18    2.12
   7  -1  -2   34.76    2.12
   7   1  -2   41.94    4.97
  -7   1   2   39.50    2.09
   7   1  -2   40.69    2.22
   7   1  -2   40.41    2.16
   7   1  -2   36.75    2.32
   5  -1  -2   46.49    2.44
  -5  -1   2   45.46    2.44
   5  -1  -2   42.08    3.51
  -5  -1   2   45.28    2.47
  -5  -1   2   50.86    3.30
   5   1  -2   44.79    2.45
   5   1  -2   50.07    2.51
  -5   1   2   45.24    2.41
   5   1  -2   54.08    4.12
   5   1  -2   45.02    2.57
  -3  -1   2  133.23    6.69
  -3  -1   2  122.04    7.38
  -3  -1   2  133.56    6.73
   3  -1  -2  130.30    6.68
   3  -1  -2  154.91    7.29
   3   1  -2  128.46    6.69
  -3   1   2  130.35    6.66
   3   1  -2  148.32    7.72
   3   1  -2  126.71    6.73
   1  -1  -2  489.48   22.39
  -1   1   2  381.31   22.41
   1   1  -2  485.46   22.64
   1   1  -2  435.55   22.11
  -1  -1  -2   10.04    0.63
  -1  -1  -2   11.29    0.55
   1  -1   2   11.67    0.54
  -1  -1  -2   10.10    0.59
  -1  -1  -2   13.54    1.30
   1  -1   2    9.51    0.72
   1  -1   2   10.06    0.56
   1  -1   2    9.96    0.60
   1   1   2   11.55    0.58
   1   1   2    8.94    1.10
  -1   1  -2   10.70    0.59
   1   1   2   11.17    0.64
  -1   1  -2   10.10    0.56
   1   1   2    9.29    0.56
   3  -1   2    8.92    0.53
  -3  -1  -2    9.36    0.63
  -3  -1  -2    9.88    0.65
  -3  -1  -2    9.32    0.56
   3   1   2    9.37    0.62
   3   1   2    8.11    0.65
  -3   1  -2    9.36    0.52
   3   1   2    9.24    0.56
   5  -1   2    0.37    0.27
   5  -1   2    0.73    0.21
  -5  -1  -2    0.92    0.20
  -5   1  -2    0.76    0.16
   5   1   2    0.91    0.32
   5   1   2   -2.15    1.33
   5   1   2    0.86    1.07
   5   1   2    0.88    0.22
   5   1   2    0.42    0.28
  -7  -1  -2  198.70   10.02
   7  -1   2  198.81   11.20
   7  -1   2  207.24   10.08
   7  -1   2  193.26   10.01
   7   1   2  183.78   12.23
   7   1   2  205.37   11.98
   7   1   2  211.51   10.18
   7   1   2  195.97   10.19
  -7   1  -2  200.15    9.97
   7   1   2  194.60   10.03
   9  -1   2    0.26    0.54
   9  -1   2   -0.08    3.21
   9  -1   2    0.47    0.42
   9   1   2   -2.36    3.71
  -9   1  -2    0.44    0.36
   9   1   2    0.41    0.41
   9   1   2   -1.68    4.07
   9   1   2    0.21    0.71
   9   1   2    0.58    0.62
  11  -1   2    1.20    0.91
  11  -1   2    1.62    0.71
  11  -1   2    3.76    1.03
  11  -1   2   -5.28    6.30
  11  -1   2   -9.47    6.55
  11   1   2    9.03    7.31
  11   1   2    4.26    1.05
  11   1   2    1.04    1.20
  12  -2  -2    4.00    1.50
  12   2  -2    9.26    8.81
  10  -2  -2    0.93    4.59
  10  -2  -2    1.92    0.94
  10  -2  -2    1.68    0.60
  10   2  -2    1.23    0.88
  10   2  -2    2.00    0.83
  10   2  -2    5.71    6.21
  10   2  -2    1.48    0.55
   8  -2  -2    1.55    0.40
   8  -2  -2    0.77    0.59
  -8  -2   2    1.10    0.42
   8  -2  -2   -0.35    2.72
   8   2  -2    3.09    3.43
   8   2  -2    1.26    0.58
   8   2  -2    0.73    0.59
   8   2  -2    1.15    0.38
  -6  -2   2   11.62    0.83
   6  -2  -2   14.94    2.24
   6  -2  -2   10.82    0.77
  -6  -2   2   11.17    0.90
   6   2  -2   11.19    0.81
   6   2  -2   11.04    0.96
   6   2  -2   11.51    0.97
   4  -2  -2    0.59    0.15
   4  -2  -2    0.29    0.79
  -4  -2   2    0.91    0.24
  -4  -2   2    0.90    0.20
  -4  -2   2    1.44    0.95
   4   2  -2   -0.52    1.12
   4   2  -2    0.79    0.19
   4   2  -2    1.03    0.25
   4   2  -2    0.59    0.27
  -2  -2   2   88.96    4.80
  -2  -2   2   99.96    5.61
   2  -2  -2   85.89    4.70
   2  -2  -2   96.25    5.03
  -2  -2   2   94.73    4.71
   2   2  -2   86.34    5.55
   2   2  -2   88.79    4.70
  -2   2   2  107.75    4.73
   2   2  -2   98.20    4.81
   2   2  -2   89.77    4.70
   0  -2  -2  735.68   42.76
   0  -2  -2 1000.00   43.35
   0  -2   2  760.62   42.77
   0  -2   2  954.10   43.20
   0   2   2  821.42   42.70
   0   2  -2  861.56   43.18
   0   2  -2  926.76   42.98
   0   2  -2  815.43   42.70
   0   2   2  911.23   43.16
  -2  -2  -2   53.51    2.75
  -2  -2  -2   56.97    2.73
   2  -2   2   49.45    2.74
  -2  -2  -2   53.41    3.89
   2  -2   2   52.34    2.71
  -2  -2  -2   55.04    2.83
   2   2   2   53.12    2.70
   2   2   2   59.54    2.86
   2   2   2   43.93    3.28
   2   2   2   57.27    3.73
  -2   2  -2   53.47    2.71
   2   2   2   51.55    2.72
   4  -2   2    4.16    0.49
  -4  -2  -2    4.27    0.53
  -4  -2  -2    3.76    0.49
   4  -2   2    4.49    0.33
   4  -2   2    3.84    0.35
  -4  -2  -2    4.03    0.40
   4   2   2    4.18    0.37
   4   2   2    3.70    1.52
   4   2   2    4.35    0.58
   4   2   2    4.63    1.50
   4   2   2    4.46    0.46
   6  -2   2   24.31    1.24
   6  -2   2   20.56    1.24
   6  -2   2   18.06    1.44
  -6  -2  -2   19.57    1.37
   6   2   2   20.42    3.58
  -6   2  -2   22.64    1.19
   6   2   2   22.07    1.40
   6   2   2   22.40    1.29
   6   2   2   20.37    1.52
   6   2   2   21.61    4.04
   8  -2   2    5.95    1.01
   8  -2   2    3.99    0.55
   8  -2   2    4.33    2.33
   8  -2   2    4.64    0.79
   8   2   2    3.09    0.51
   8   2   2    3.68    0.70
  -8   2  -2    3.34    0.48
   8   2   2    1.77    0.77
   8   2   2    1.40    3.37
   8   2   2    0.14    3.44
  10  -2   2    1.76    4.46
  10  -2   2    1.30    4.75
  10  -2   2    0.13    0.55
  10  -2   2   -0.03    0.86
  10  -2   2   -0.10    0.73
  10  -2   2   -0.56    0.55
  10   2   2    0.21    0.68
  10   2   2   -0.13    1.06
  10   2   2    0.90    0.54
  10   2   2    1.57    5.18
  12  -2   2    2.36    9.34
  12  -2   2    5.36    1.02
  12  -2   2    3.90    1.44
  12   2   2    5.28    1.09
  12   2   2    6.39    1.50
  12   2   2   15.00    9.50
  11  -3  -2    2.37    0.85
  11  -3  -2    8.19    7.35
  11  -3  -2    3.59    1.35
  11   3  -2    5.40    1.48
  11   3  -2    3.97    1.20
  11   3  -2   -7.41    6.74
  11   3  -2    2.20    0.74
   9  -3  -2    0.09    0.69
   9  -3  -2    0.35    0.76
   9  -3  -2    3.92    5.69
  -9  -3   2    0.13    0.49
   9   3  -2   -7.76    5.09
   9   3  -2   -0.70    0.43
   9   3  -2    0.55    0.84
   9   3  -2    1.92    4.11
   7  -3  -2    1.41    1.95
   7  -3  -2   -0.06    0.24
  -7  -3   2    0.18    0.38
   7   3  -2    0.36    0.29
   7   3  -2    0.52    0.64
   7   3  -2    0.27    0.40
   5  -3  -2    7.03    0.52
  -5  -3   2    7.00    0.61
  -5  -3   2    5.51    1.63
   5  -3  -2    6.95    0.58
   5  -3  -2    6.50    0.56
  -5  -3   2    7.84    0.78
   5  -3  -2    7.87    1.49
   5   3  -2    8.06    0.69
   5   3  -2    8.35    0.85
   5   3  -2    6.82    0.59
   5   3  -2    9.89    2.75
   3  -3  -2    5.17    0.89
  -3  -3   2    1.88    1.01
  -3  -3   2    4.16    0.57
   3  -3  -2    3.61    0.36
  -3  -3   2    4.22    0.39
   3   3  -2    5.28    1.57
   3   3  -2    3.48    0.37
   3   3  -2    2.76    1.30
   3   3  -2    3.96    0.37
   3   3  -2    4.48    0.57
   1  -3  -2    1.72    0.23
  -1  -3   2    1.23    0.18
  -1  -3   2    1.05    0.27
   1  -3  -2    0.83    0.76
  -1  -3   2    1.77    0.90
   1  -3  -2    1.52    0.32
   1   3  -2    1.36    0.86
   1   3  -2    1.84    0.22
   1   3  -2    2.06    0.91
  -1   3   2    1.51    0.27
   1   3  -2    1.38    0.31
  -1   3   2    1.96    0.58
  -1   3   2    1.39    0.53
  -1   3   2    1.61    0.24
  -1  -3  -2   98.58    5.15
   1  -3   2  106.58    5.03
   1  -3   2  103.26    5.15
   1  -3   2   85.37    5.46
  -1  -3  -2   99.37    6.15
  -1  -3  -2  102.59    5.02
  -1  -3  -2   99.23    5.00
   1  -3   2  105.73    5.53
   1   3   2   99.64    5.16
  -1   3  -2  102.82    5.03
   1   3   2   96.81    5.87
   1   3   2   98.31    5.81
   1   3   2   93.81    4.97
   1   3   2  101.44    5.02
   3  -3   2  126.92    6.53
   3  -3   2  134.22    6.48
  -3  -3  -2  131.70    6.54
  -3  -3  -2  134.60    6.52
   3  -3   2  116.00    6.57
  -3  -3  -2  131.26    6.65
   3  -3   2  124.23    6.43
   3   3   2  128.62    6.48
   3   3   2  119.00    7.86
   3   3   2  133.51    6.68
   3   3   2  132.74    7.77
   3   3   2  133.13    6.47
   5  -3   2   13.15    0.78
  -5  -3  -2   11.87    1.01
  -5  -3  -2   12.44    1.02
   5  -3   2   12.15    0.82
  -5  -3  -2   13.24    1.04
   5  -3   2   15.61    1.04
   5   3   2   14.88    2.84
   5   3   2   12.60    1.16
   5   3   2   15.61    2.83
   5   3   2   11.21    0.90
  -7  -3  -2    1.60    0.48
   7  -3   2    1.19    0.33
  -7  -3  -2    1.33    0.42
   7  -3   2    0.99    0.33
   7  -3   2    1.31    1.28
   7  -3   2    0.85    0.48
   7   3   2    1.29    0.50
   7   3   2    1.13    2.80
   7   3   2    1.44    0.38
   7   3   2    0.82    0.65
   9  -3   2    2.37    0.55
  -9  -3  -2    2.95    0.60
   9  -3   2    1.58    0.60
   9  -3   2    2.44    0.54
   9  -3   2   -5.15    3.11
   9  -3   2    1.08    0.77
   9   3   2    2.08    0.57
   9   3   2    2.19    0.72
   9   3   2    2.90    4.53
   9   3   2   -0.25    5.04
   9   3   2    4.10    1.08
  11  -3   2    4.07    1.01
  11  -3   2   -0.99    7.18
  11  -3   2    3.51    1.28
  11  -3   2    3.14    0.95
  11  -3   2    4.49    0.88
  11   3   2    6.99    1.81
  11   3   2    5.02    6.91
  11   3   2    2.91    1.07
 -10  -4   2    6.61    1.02
  10  -4  -2    5.96    0.92
  10  -4  -2    2.68    5.47
  10  -4  -2    7.65    1.38
  10   4  -2    8.32    1.65
  10   4  -2    7.49    5.82
  10   4  -2    6.59    0.93
   8  -4  -2   10.18    1.39
   8  -4  -2    8.88    0.85
   8  -4  -2    5.94    0.93
  -8  -4   2    6.99    1.18
   8  -4  -2    3.59    2.81
  -8  -4   2    7.31    1.02
   8   4  -2   10.65    4.84
   8   4  -2    8.78    1.10
   8   4  -2    7.92    5.46
   8   4  -2    7.27    1.18
   8   4  -2    7.92    0.88
  -6  -4   2    1.46    0.48
   6  -4  -2    0.47    1.59
   6  -4  -2    0.94    0.26
   6  -4  -2    1.32    0.36
  -6  -4   2    1.56    0.38
   6   4  -2    2.85    2.99
   6   4  -2    0.99    2.65
   6   4  -2    1.49    0.40
   6   4  -2    1.32    0.35
   6   4  -2    0.59    0.57
  -4  -4   2    1.11    1.43
  -4  -4   2   -0.24    0.29
   4  -4  -2    0.07    0.14
   4  -4  -2    0.08    0.30
  -4  -4   2   -0.62    0.33
   4  -4  -2    0.24    0.95
   4   4  -2   -0.16    0.38
   4   4  -2   -0.06    0.20
   4   4  -2   -0.28    1.66
   4   4  -2    0.07    1.73
   4   4  -2    0.37    0.21
  -2  -4   2   12.42    0.78
   2  -4  -2   13.53    0.98
   2  -4  -2   14.37    1.89
  -2  -4   2   11.02    0.98
  -2  -4   2   12.66    2.24
   2  -4  -2   11.81    0.77
   2   4  -2   10.52    1.93
  -2   4   2   14.33    0.91
   2   4  -2   11.97    0.77
   2   4  -2   10.12    0.98
   2   4  -2   13.43    2.41
   0  -4  -2    9.48    0.54
   0  -4   2    9.64    0.83
   0  -4  -2    9.91    1.88
   0  -4   2    8.89    0.61
   0  -4   2    9.00    1.59
   0  -4  -2    9.37    0.62
   0  -4  -2    9.84    0.85
   0   4   2    7.74    1.47
   0   4   2    8.18    0.80
   0   4  -2   10.03    1.31
   0   4   2   10.07    1.75
   0   4   2    9.39    0.62
   0   4  -2    9.61    1.28
   0   4  -2    8.48    0.82
   0   4  -2    9.11    0.62
  -2  -4  -2    0.17    0.16
  -2  -4  -2    0.03    0.25
   2  -4   2   -0.27    0.88
   2  -4   2    0.13    0.17
   2  -4   2    0.26    0.15
   2  -4   2   -0.96    0.90
   2  -4   2    0.01    0.26
  -2  -4  -2    0.87    1.70
  -2  -4  -2    0.20    0.18
   2   4   2    0.23    0.16
   2   4   2    0.24    0.11
  -2   4  -2    0.02    0.16
   2   4   2   -1.06    1.12
   2   4   2    0.48    0.33
   2   4   2    0.58    1.14
   4  -4   2   44.49    2.32
  -4  -4  -2   48.64    2.46
  -4  -4  -2   43.56    2.49
   4  -4   2   48.24    2.49
   4  -4   2   43.39    2.39
   4  -4   2   40.28    2.49
  -4  -4  -2   46.07    2.65
   4   4   2   46.57    2.71
   4   4   2   45.55    2.38
   4   4   2   40.05    4.53
   4   4   2   45.14    2.39
   6  -4   2    1.87    0.59
   6  -4   2    3.21    0.52
   6  -4   2    2.51    0.36
  -6  -4  -2    2.37    0.62
   6  -4   2    2.61    0.48
   6   4   2    2.78    0.44
   6   4   2    3.38    0.81
   6   4   2    4.15    2.45
   6   4   2    2.65    0.46
  -8  -4  -2    4.85    0.80
   8  -4   2    2.58    2.31
   8  -4   2    4.74    0.69
   8  -4   2    4.23    0.59
   8  -4   2    4.02    0.56
  -8  -4  -2    4.14    0.73
   8  -4   2    3.18    0.82
   8   4   2    8.35    5.23
   8   4   2    3.84    0.67
   8   4   2    4.77    0.65
   8   4   2    7.24    3.94
   8   4   2    5.41    1.20
  10  -4   2    9.42    1.30
  10  -4   2    5.63    0.95
  10  -4   2    5.34    0.89
  10  -4   2    5.71    1.31
  10  -4   2    4.62    5.07
  10  -4   2    5.43    1.23
  10   4   2    8.02    1.01
  10   4   2    5.92    1.72
  10   4   2   20.72    6.94
  10   4   2    7.20    1.05
   9  -5  -2    2.02    1.11
   9  -5  -2    6.18    4.13
   9  -5  -2    2.89    0.68
  -9  -5   2    1.92    0.91
   9   5  -2   -6.89    5.00
   9   5  -2    3.99    1.48
   9   5  -2    1.73    0.78
   7  -5  -2   78.62    4.03
   7  -5  -2   76.75    4.09
  -7  -5   2   79.50    4.15
  -7  -5   2   81.36    4.42
   7  -5  -2   75.41    4.30
   7  -5  -2   74.30    4.05
   7  -5  -2   64.64    5.68
   7   5  -2   73.19    4.26
   7   5  -2   75.99    4.58
   7   5  -2   75.12    8.47
   7   5  -2   75.87    9.47
   7   5  -2   79.31    4.09
   5  -5  -2    0.09    0.44
  -5  -5   2   -0.01    0.44
   5  -5  -2    0.20    0.21
   5  -5  -2    0.43    1.27
  -5  -5   2    0.28    0.36
   5  -5  -2    0.06    0.32
   5   5  -2    0.06    0.63
   5   5  -2    0.19    0.27
   5   5  -2    0.15    2.43
   5   5  -2    0.02    0.26
   5   5  -2   -0.13    2.93
   3  -5  -2    1.32    0.26
  -3  -5   2    1.40    0.54
  -3  -5   2    1.10    0.31
  -3  -5   2    1.36    1.70
   3  -5  -2   -0.43    1.44
   3  -5  -2    1.64    0.46
   3   5  -2    1.65    2.11
   3   5  -2    0.67    1.79
   3   5  -2    1.22    0.56
   3   5  -2    1.32    0.28
   1  -5  -2    9.52    0.59
   1  -5  -2   10.69    1.03
   1  -5  -2   10.11    0.72
  -1  -5   2    9.43    1.01
  -1  -5   2    8.04    1.97
   1  -5  -2    8.72    2.16
  -1  -5   2    9.70    0.70
   1   5  -2    8.23    1.70
  -1   5   2    9.92    0.93
   1   5  -2    9.65    0.71
   1   5  -2   12.47    1.16
  -1   5   2   10.12    0.74
   1   5  -2    9.90    2.02
  -1  -5  -2    9.59    1.00
   1  -5   2    9.32    0.71
  -1  -5  -2    9.50    0.81
   1  -5   2   11.21    1.86
  -1  -5  -2    9.79    0.65
   1  -5   2   10.73    0.97
  -1  -5  -2   11.63    2.92
   1   5   2    8.51    1.52
  -1   5  -2    9.49    0.72
   1   5   2    9.76    1.92
   1   5   2   11.17    2.17
   1   5   2   10.04    0.70
  -3  -5  -2    5.67    0.59
   3  -5   2    5.10    1.41
   3  -5   2    3.56    0.55
  -3  -5  -2    3.62    0.59
  -3  -5  -2    4.88    0.83
   3  -5   2    5.09    0.51
   3  -5   2    4.81    0.78
   3  -5   2    4.80    1.50
   3   5   2    5.20    2.42
   3   5   2    4.56    0.38
   3   5   2    6.97    1.01
  -3   5  -2    4.09    0.51
   3   5   2    4.21    0.48
   3   5   2    6.18    2.21
   5  -5   2    9.09    0.79
   5  -5   2    8.45    0.65
   5  -5   2    9.31    1.02
   5  -5   2    8.73    0.97
  -5  -5  -2    7.30    1.10
   5   5   2    9.09    0.72
   5   5   2   11.07    1.40
   5   5   2   10.19    0.73
   5   5   2    8.56    2.73
   5   5   2    5.89    3.29
   7  -5   2   10.60    0.85
   7  -5   2   11.08    1.28
   7  -5   2    9.88    0.97
   7  -5   2    8.56    1.23
  -7  -5  -2   10.72    1.12
  -7  -5  -2   10.04    1.30
   7   5   2    9.16    0.99
   7   5   2   11.05    0.91
   7   5   2   18.09    5.53
   7   5   2   10.94    1.87
   7   5   2   10.00    4.27
   9  -5   2    1.51    0.63
   9  -5   2   -2.51    3.97
   9  -5   2    1.72    0.83
   9  -5   2    1.69    0.69
   9  -5   2    0.74    0.98
  -9  -5  -2    0.89    0.83
   9   5   2    6.88    5.60
   9   5   2    2.38    0.62
   9   5   2    3.07    0.72
  10  -6  -2   -0.05    0.82
 -10  -6   2    0.77    1.14
  10  -6  -2    1.25    1.54
  10   6  -2   -0.30    0.85
  10   6  -2    2.06    0.95
   8  -6  -2   10.42    1.80
   8  -6  -2    7.54    1.17
  -8  -6   2    8.45    1.28
   8  -6  -2   15.13    3.37
   8  -6  -2    7.36    1.04
   8   6  -2    8.94    5.34
   8   6  -2   10.67    1.12
   8   6  -2    8.15    1.12
  -6  -6   2    6.28    1.11
   6  -6  -2    4.91    0.70
   6  -6  -2    5.46    0.86
   6  -6  -2    5.45    0.66
   6   6  -2    9.47    3.99
   6   6  -2    5.95    0.79
   6   6  -2   11.76    5.29
   6   6  -2    5.49    1.26
   6   6  -2    5.73    0.64
   4  -6  -2   -0.02    0.36
   4  -6  -2    1.99    1.98
  -4  -6   2    0.35    0.40
  -4  -6   2   -0.44    0.55
   4  -6  -2    0.55    0.60
   4   6  -2   -0.23    0.68
   4   6  -2    1.78    3.20
   4   6  -2    2.24    2.68
   4   6  -2   -0.25    0.30
  -2  -6   2    2.55    0.44
  -2  -6   2    1.84    0.65
   2  -6  -2    2.52    0.63
   2  -6  -2    2.95    2.37
  -2  -6   2    2.51    2.06
   2  -6  -2    2.32    0.31
  -2   6   2    2.44    0.40
   2   6  -2    1.92    1.82
   2   6  -2    1.77    0.35
   2   6  -2    2.43    2.17
  -2   6   2    2.80    0.61
   0  -6  -2    0.85    0.52
   0  -6   2    1.44    0.60
   0  -6  -2    1.32    0.23
   0  -6  -2    1.40    0.30
   0  -6   2    0.33    1.83
   0   6  -2    1.00    0.55
   0   6   2    3.43    1.19
   0   6   2    1.35    0.58
   0   6   2    1.90    0.36
   0   6   2    0.65    1.51
   0   6  -2    1.00    0.32
  -2  -6  -2   29.43    1.74
   2  -6   2   26.41    1.99
   2  -6   2   28.63    1.73
  -2  -6  -2   28.45    1.68
  -2  -6  -2   30.61    2.06
   2  -6   2   29.82    3.48
  -2   6  -2   30.72    1.75
   2   6   2   37.52    4.82
   2   6   2   29.64    2.33
   2   6   2   31.26    1.73
   2   6   2   30.65    3.78
  -4  -6  -2    4.69    0.87
   4  -6   2    6.65    1.08
  -4  -6  -2    9.08    0.87
  -4  -6  -2    7.66    1.23
   4  -6   2    6.92    0.79
   4  -6   2    7.19    1.72
   4  -6   2    4.49    2.25
   4   6   2    7.18    0.53
   4   6   2    7.79    2.91
   4   6   2    6.99    0.69
   4   6   2    9.20    3.48
  -6  -6  -2    1.56    0.65
   6  -6   2    2.31    0.41
  -6  -6  -2    2.46    0.76
   6  -6   2    3.28    0.57
   6  -6   2    1.79    0.64
   6  -6   2    1.86    0.75
   6   6   2    1.32    0.47
   6   6   2    1.51    0.39
   6   6   2    0.53    3.40
   6   6   2   -0.66    4.84
   6   6   2    1.59    1.22
  -8  -6  -2    0.26    0.79
   8  -6   2   -1.14    0.88
   8  -6   2    0.42    0.87
   8  -6   2   -0.12    0.84
   8   6   2    0.64    0.55
   8   6   2   -0.76    0.55
   8   6   2   -3.30    4.98
   7  -7  -2   17.52    2.23
   7  -7  -2   11.37    3.82
  -7  -7   2   16.60    2.27
   7  -7  -2   14.70    1.22
   7  -7  -2   13.11    1.70
   7   7  -2    9.25    5.73
   7   7  -2   13.98    1.41
   7   7  -2   14.69    1.07
   5  -7  -2   19.06    3.68
   5  -7  -2   18.77    1.27
   5  -7  -2   23.23    1.65
  -5  -7   2   19.33    1.57
   5  -7  -2   21.01    1.85
  -5  -7   2   19.28    1.95
   5   7  -2   14.22    2.71
   5   7  -2   16.11    1.40
   5   7  -2   12.26    4.41
   3  -7  -2    2.06    0.30
  -3  -7   2    2.01    0.54
  -3  -7   2    1.89    0.80
   3  -7  -2    1.27    3.12
   3  -7  -2    2.11    0.51
   3  -7  -2    1.70    0.77
   3   7  -2    2.13    0.44
   3   7  -2   -0.78    5.47
   3   7  -2    2.92    2.33
   3   7  -2    1.89    1.13
  -1  -7   2    8.75    0.82
  -1  -7   2    8.73    2.64
   1  -7  -2    7.48    0.58
  -1  -7   2    5.41    1.62
   1  -7  -2    8.29    1.30
   1  -7  -2    6.76    3.83
   1   7  -2    5.12    1.64
   1   7  -2    6.71    1.13
   1   7  -2    8.86    0.86
  -1   7   2    7.33    0.88
   1   7  -2    7.03    1.89
   1  -7   2   -0.04    2.18
   1  -7   2    1.10    0.74
   1  -7   2    1.45    0.44
  -1   7  -2    0.95    0.46
   1   7   2    1.44    2.31
   1   7   2    2.63    0.86
   1   7   2    4.39    1.79
   3  -7   2    1.19    0.71
  -3  -7  -2   -0.05    0.70
   3  -7   2    1.93    1.91
   3  -7   2    0.24    0.45
  -3  -7  -2   -0.67    0.53
   3   7   2   -0.10    2.58
   3   7   2   -0.02    0.85
   3   7   2    0.70    3.45
  -3   7  -2    0.19    0.41
   3   7   2    0.28    0.38
   5  -7   2    5.75    1.01
   5  -7   2    5.23    0.68
  -5  -7  -2    3.60    1.07
   5  -7   2    4.02    0.73
   5  -7   2    4.12    0.99
   5   7   2    6.92    0.88
   5   7   2    9.59    3.98
   5   7   2    5.18    0.56
   5   7   2   10.66    5.37
  -7  -7  -2   15.99    2.21
   7  -7   2   15.31    1.74
   7  -7   2   16.11    1.33
   7  -7   2   18.47    2.15
   7   7   2   18.40    1.26
   7   7   2   15.53    1.37
   7   7   2   18.06    6.24
   6  -8  -2    1.50    1.25
   6  -8  -2    0.29    0.58
  -6  -8   2    1.03    1.16
   6   8  -2   -0.63    0.60
   6   8  -2   -2.78    4.83
   4  -8  -2    4.29    1.14
  -4  -8   2    1.55    1.03
   4  -8  -2   -9.40    4.98
   4   8  -2    6.97    4.01
   4   8  -2   -0.73    4.99
  -2  -8   2    7.60    1.23
   2  -8  -2    6.76    5.54
   2  -8  -2    6.67    1.23
  -2  -8   2    7.34    1.16
   2   8  -2    7.43    0.96
   2   8  -2   10.46    2.62
   2   8  -2    3.83    3.15
   0  -8  -2    5.83    1.18
   0  -8   2    5.86    1.24
   0  -8   2    7.56    0.94
   0   8   2    6.64    0.87
   0   8   2    5.34    1.29
   0   8  -2    7.64    0.99
   2  -8   2    1.04    0.98
  -2  -8  -2    0.26    0.93
   2   8   2   -0.29    0.51
   2   8   2    0.91    2.67
   2   8   2   -2.21    3.83
  -2   8  -2   -0.30    0.52
   4  -8   2    1.75    1.18
  -4  -8  -2   -0.08    1.04
   4   8   2    0.34    0.59
   4   8   2    3.51    7.06
   4   8   2    0.03    3.62
   6  -8   2   -0.57    1.38
  -6  -8  -2    2.08    1.16
   6  -8   2    0.09    0.71
   6  -8   2    1.42    0.61
   6   8   2    0.67    0.69
   6   8   2    9.35    5.58
   5  -9  -2   19.29    2.70
   5  -9  -2   18.81    1.71
  -5  -9   2   16.95    2.81
   5   9  -2   26.66    6.48
   5   9  -2   22.65    1.92
   3  -9  -2    2.45    1.31
  -3  -9   2    2.41    1.35
   3   9  -2    1.48    0.81
   3   9  -2    6.80    4.03
   1  -9  -2    2.10    1.26
  -1  -9   2    0.72    1.27
  -1   9   2   -0.17    0.66
   1   9  -2    0.06    0.68
  -1  -9  -2    1.04    1.26
   1  -9   2    3.00    1.54
  -1   9  -2    2.96    0.82
   1   9   2    3.32    0.91
  -3  -9  -2    3.73    1.38
   3  -9   2    5.67    1.62
   3   9   2   -3.90    4.12
   3   9   2    4.49    0.96
  12   0  -3    0.08    0.76
  12   0  -3    4.50    1.44
  10   0  -3    0.56    0.55
  10   0  -3    0.81    0.76
 -10   0   3    0.32    0.43
  10   0  -3   -2.96    4.91
  -8   0   3   -0.06    0.26
   8   0  -3    0.12    0.31
   8   0  -3   -3.11    2.60
   8   0  -3   -0.09    0.29
   6   0  -3   -0.05    0.19
   6   0  -3    0.16    0.19
   6   0  -3   -0.62    1.57
  -6   0   3    0.21    0.18
  -4   0   3   -0.11    0.09
   4   0  -3   -0.14    0.11
  -4   0   3   -0.03    0.11
   4   0  -3   -0.15    1.00
  -4   0   3   -0.45    0.67
   4   0  -3   -0.14    0.10
  -2   0   3    0.01    0.06
  -2   0   3    0.11    0.45
   2   0  -3    0.08    0.06
  -2   0   3    0.07    0.06
   2   0  -3    0.04    0.53
   0   0  -3   -0.60    0.03
   0   0   3   -0.55    0.28
   0   0  -3   -0.74    0.26
  -2   0  -3    0.01    0.11
   2   0   3   -0.04    0.10
   2   0   3    0.14    0.06
   2   0   3   -0.68    0.52
  -2   0  -3   -0.11    0.57
  -4   0  -3    0.12    0.21
   4   0   3   -0.04    0.12
   4   0   3    1.43    1.17
   4   0   3    0.26    0.21
   4   0   3    0.04    0.18
  -4   0  -3   -0.04    0.10
   6   0   3    0.50    0.36
   6   0   3    0.01    1.62
   6   0   3    0.03    0.30
   6   0   3    0.24    0.20
  -6   0  -3   -0.19    0.17
   8   0   3    2.10    2.97
   8   0   3   -0.36    0.47
   8   0   3    0.43    2.42
   8   0   3   -0.35    0.45
   8   0   3   -0.08    0.29
  10   0   3    0.01    0.81
  10   0   3   -1.13    4.56
  10   0   3    1.13    0.71
 -10   0  -3   -0.06    0.43
  12   0   3    8.39    8.72
  12   0   3    2.60    0.95
  11  -1  -3    7.36    1.40
  11  -1  -3    8.57    1.19
  11  -1  -3   12.42    7.26
  11   1  -3    6.89    1.30
  11   1  -3    6.67    1.02
  11   1  -3    8.46    1.43
  -9  -1   3    2.18    0.47
   9  -1  -3    1.43    0.78
   9  -1  -3    4.14    3.57
   9  -1  -3    1.41    0.50
   9   1  -3    0.27    0.53
   9   1  -3   -2.01    3.89
  -7  -1   3    0.18    0.25
   7  -1  -3    2.50    2.07
  -7  -1   3    0.49    0.25
   7  -1  -3    0.60    0.26
   7   1  -3    0.33    0.35
   7   1  -3   -2.72    2.31
  -7   1   3    0.67    0.23
   7   1  -3    0.87    0.43
   7   1  -3    0.90    0.31
  -5  -1   3   11.21    1.89
   5  -1  -3   13.02    2.29
  -5  -1   3   13.39    0.83
  -5  -1   3   12.67    0.86
   5  -1  -3   12.80    0.82
   5   1  -3   13.54    0.85
   5   1  -3   15.47    2.58
  -5   1   3   14.26    0.79
   5   1  -3   13.95    0.89
   3  -1  -3    5.13    1.02
  -3  -1   3    3.94    1.04
  -3  -1   3    4.58    0.33
  -3  -1   3    4.29    0.39
   3  -1  -3    4.61    0.32
  -3   1   3    5.50    0.91
  -3   1   3    4.42    0.31
   3   1  -3    4.13    0.34
   3   1  -3    5.36    0.41
   3   1  -3    4.19    1.23
  -1  -1   3   24.69    1.38
  -1  -1   3   24.43    1.93
   1  -1  -3   25.98    1.74
  -1  -1   3   26.29    1.32
   1   1  -3   24.54    1.32
   1   1  -3   25.10    1.88
  -1   1   3   27.71    1.35
   1  -1   3  191.31    8.88
   1  -1   3  173.27    8.90
  -1  -1  -3  197.25    9.59
  -1  -1  -3  168.81    8.91
  -1  -1  -3  169.23    8.95
   1  -1   3  179.78    9.15
  -1  -1  -3  184.96    8.87
  -1   1  -3  173.36    9.06
   1   1   3  186.50    8.87
   1   1   3  171.63    8.90
  -1   1  -3  182.08    8.92
   1   1   3  178.96    8.97
  -1   1  -3  173.83    8.88
   3  -1   3  142.38    7.23
  -3  -1  -3  151.37    7.28
   3  -1   3  147.66    7.81
  -3  -1  -3  141.38    7.35
   3  -1   3  146.45    7.34
   3  -1   3  139.05    7.23
   3   1   3  147.46    7.36
   3   1   3  149.11    7.32
   3   1   3  140.53    7.26
  -3   1  -3  154.98    7.36
  -3   1  -3  137.18    7.22
   3   1   3  148.90    8.31
  -5  -1  -3   76.67    3.70
   5  -1   3   65.48    3.49
  -5  -1  -3   68.67    3.52
   5   1   3   68.30    5.28
  -5   1  -3   69.34    3.47
   5   1   3   67.37    3.62
   5   1   3   64.06    3.63
   5   1   3   66.49    3.51
   7  -1   3   19.75    1.43
  -7  -1  -3   18.40    1.19
   7  -1   3   22.18    4.11
   7  -1   3   18.32    1.19
   7  -1   3   20.50    1.35
   7   1   3   19.94    1.21
   7   1   3   18.37    1.44
  -7   1  -3   20.07    1.13
   7   1   3   21.89    3.41
   7   1   3   18.53    1.39
   7   1   3   16.13    3.30
   9  -1   3    2.05    0.67
   9  -1   3    3.10    3.27
   9  -1   3   -0.01    3.78
   9  -1   3    1.38    0.70
   9  -1   3    2.37    0.51
  -9   1  -3    2.45    0.46
   9   1   3    3.30    4.03
   9   1   3    2.48    0.52
   9   1   3    3.02    0.79
   9   1   3   -1.07    4.11
   9   1   3    3.26    0.83
  11  -1   3    5.72    0.86
  11  -1   3   10.37    1.81
  11  -1   3    9.06    6.95
  11  -1   3    3.73    1.01
  11  -1   3   14.75    7.26
  11   1   3    3.82    1.51
  11   1   3    6.46    0.98
  11   1   3    6.59    1.17
  11   1   3    3.93    6.91
  12  -2  -3    4.69    1.67
  12  -2  -3    5.53    1.13
  12   2  -3    6.63    1.46
  12   2  -3   22.39    8.80
  12   2  -3    8.79    1.20
  10  -2  -3    0.98    0.58
  10  -2  -3    3.18    4.88
  10  -2  -3    0.36    0.91
  10   2  -3    0.50    0.58
  10   2  -3    1.10    1.06
  10   2  -3    5.31    6.87
  10   2  -3    1.31    0.83
   8  -2  -3   21.36    1.70
   8  -2  -3   20.82    3.73
  -8  -2   3   21.85    1.42
   8  -2  -3   21.08    1.38
   8   2  -3   37.22    6.22
   8   2  -3   19.41    1.56
   8   2  -3   22.01    1.43
   8   2  -3   22.14    1.70
   6  -2  -3   12.80    0.84
  -6  -2   3   11.94    0.96
  -6  -2   3   12.69    0.87
  -6  -2   3   12.73    2.11
   6  -2  -3   13.00    2.35
   6   2  -3   12.21    1.04
   6   2  -3   16.41    3.81
   6   2  -3   14.34    1.04
   6   2  -3   12.61    0.88
   4  -2  -3    2.97    1.02
   4  -2  -3    2.67    0.27
  -4  -2   3    3.43    0.49
  -4  -2   3    3.26    0.33
  -4  -2   3    3.89    1.26
   4   2  -3    3.48    0.48
   4   2  -3    2.91    0.35
   4   2  -3    2.63    1.54
   2  -2  -3   78.78    4.25
  -2  -2   3   76.95    4.78
  -2  -2   3   72.45    3.90
   2  -2  -3   82.65    3.81
  -2  -2   3   75.10    3.79
   2   2  -3   64.02    3.86
   2   2  -3   81.72    4.82
  -2   2   3   67.02    4.27
  -2   2   3   77.37    3.80
   2   2  -3   75.67    3.79
   0  -2   3  733.25   36.18
   0  -2  -3  669.06   35.74
   0  -2  -3  768.57   36.37
   0  -2   3  759.34   35.79
   0   2  -3  768.47   35.97
   0   2   3  716.53   36.21
   0   2  -3  643.84   35.67
   0   2   3  721.20   35.67
   2  -2   3   64.59    3.18
  -2  -2  -3   63.23    3.35
   2  -2   3   65.17    3.22
  -2  -2  -3   62.95    3.28
  -2  -2  -3   66.37    3.25
  -2  -2  -3   62.21    4.45
   2  -2   3   54.41    3.24
  -2   2  -3   66.03    3.23
   2   2   3   63.30    3.24
   2   2   3   65.38    3.37
   2   2   3   67.53    3.21
   2   2   3   63.37    4.21
  -4  -2  -3   32.11    1.96
  -4  -2  -3   34.28    1.87
   4  -2   3   37.13    1.96
  -4  -2  -3   34.21    1.98
   4  -2   3   34.65    1.82
   4  -2   3   33.13    1.80
   4   2   3   34.97    1.91
   4   2   3   32.17    3.45
   4   2   3   43.04    3.06
   4   2   3   35.00    2.02
   6  -2   3   30.48    1.66
   6  -2   3   28.66    1.64
   6  -2   3   29.46    1.86
  -6  -2  -3   31.08    1.73
  -6  -2  -3   27.99    1.89
  -6   2  -3   29.92    1.60
   6   2   3   32.36    1.95
   6   2   3   28.02    4.23
   6   2   3   32.11    4.04
   6   2   3   31.76    1.83
   6   2   3   29.65    1.69
   8  -2   3   16.77    1.30
   8  -2   3   22.46    3.72
   8  -2   3   18.67    1.51
   8  -2   3   15.01    1.14
   8   2   3   26.53    4.83
   8   2   3   15.31    1.16
   8   2   3   19.51    1.47
   8   2   3   16.50    4.24
  -8   2  -3   16.30    1.04
   8   2   3   17.85    1.68
  10  -2   3    6.61    5.23
  10  -2   3    2.21    0.96
  10  -2   3    4.73    0.75
  10  -2   3    2.53    0.90
  10  -2   3    4.54    0.69
  10  -2   3    9.55    4.73
  10   2   3    9.05    5.51
  10   2   3    2.81    1.25
  10   2   3    4.72    0.71
  10   2   3    2.67    0.90
  11  -3  -3   41.80    8.49
  11  -3  -3   32.44    2.97
  11  -3  -3   29.09    2.17
  11   3  -3   28.14    2.93
  11   3  -3   38.46    8.56
  11   3  -3   30.37    2.23
  11   3  -3   28.21    2.66
   9  -3  -3   -2.10    3.59
  -9  -3   3   -0.44    0.49
   9  -3  -3    0.56    0.46
   9  -3  -3    0.78    0.79
   9   3  -3    0.87    0.80
   9   3  -3   -4.73    5.26
   9   3  -3    0.33    0.48
   7  -3  -3   19.23    3.01
  -7  -3   3   17.28    1.32
   7  -3  -3   16.84    1.13
   7   3  -3   17.85    1.39
   7   3  -3   17.05    1.48
   7   3  -3   18.35    1.18
  -5  -3   3   21.00    1.30
   5  -3  -3   23.22    2.64
  -5  -3   3   21.14    1.45
  -5  -3   3   20.80    2.88
   5  -3  -3   21.87    1.24
   5   3  -3   22.98    1.29
   5   3  -3   22.43    1.36
   5   3  -3   19.21    4.03
   5   3  -3   20.81    1.47
  -3  -3   3   95.01    4.49
   3  -3  -3   85.45    4.48
  -3  -3   3   86.39    4.63
   3  -3  -3   85.79    4.98
   3   3  -3   76.22    4.60
   3   3  -3   91.39    5.96
   3   3  -3   88.58    4.48
   3   3  -3   86.15    4.47
  -3   3   3   97.84    4.49
  -1  -3   3   54.83    2.69
   1  -3  -3   53.21    3.51
  -1  -3   3   51.05    2.85
  -1  -3   3   50.83    3.75
   1  -3  -3   53.28    2.71
   1  -3  -3   51.83    2.67
   1  -3  -3   57.78    2.81
   1   3  -3   49.11    3.52
  -1   3   3   54.14    3.16
  -1   3   3   54.39    2.81
  -1   3   3   51.14    3.13
   1   3  -3   52.21    2.72
   1   3  -3   52.33    3.59
  -1   3   3   49.21    2.70
  -1  -3  -3    6.49    1.48
   1  -3   3    5.65    1.02
   1  -3   3    5.66    0.55
  -1  -3  -3    6.25    0.43
  -1  -3  -3    6.15    0.60
  -1  -3  -3    5.85    0.42
   1  -3   3    6.54    0.43
   1  -3   3    5.97    0.44
   1   3   3    6.20    1.21
  -1   3  -3    6.34    0.44
   1   3   3    5.55    0.63
   1   3   3    6.60    0.42
   1   3   3    5.09    1.19
   1   3   3    6.43    0.39
   3  -3   3   47.24    2.54
   3  -3   3   48.58    2.49
  -3  -3  -3   47.92    2.66
  -3  -3  -3   45.74    2.56
  -3  -3  -3   49.17    2.53
   3  -3   3   49.13    2.43
  -3  -3  -3   49.76    4.47
   3   3   3   47.56    3.78
   3   3   3   44.66    2.49
   3   3   3   51.51    2.73
   3   3   3   46.46    3.94
   3   3   3   47.51    2.47
  -5  -3  -3   18.93    1.18
  -5  -3  -3   19.15    1.32
   5  -3   3   18.12    1.09
   5  -3   3   19.18    1.26
  -5  -3  -3   17.86    1.29
   5  -3   3   19.18    1.06
   5   3   3   18.88    1.57
   5   3   3   18.24    1.19
   5   3   3   20.54    3.40
   5   3   3   18.21    1.06
   5   3   3   19.27    3.51
   7  -3   3    0.63    0.48
   7  -3   3    0.98    0.42
  -7  -3  -3    2.65    0.43
   7  -3   3    1.81    0.36
   7   3   3    0.46    3.35
   7   3   3    3.43    2.74
   7   3   3    1.38    0.51
   7   3   3    2.97    0.80
   9  -3   3    1.84    0.52
   9  -3   3   10.47    3.72
   9  -3   3    2.76    0.87
   9  -3   3    3.24    0.69
   9  -3   3    2.92    0.57
  -9  -3  -3    2.83    0.70
   9   3   3    0.86    4.34
   9   3   3    3.89    0.77
   9   3   3    1.43    1.02
   9   3   3    3.22    6.32
  11  -3   3   -0.56    6.60
  11  -3   3    1.17    1.23
  11  -3   3   -0.26    0.83
  11  -3   3    1.74    0.82
  11   3   3    4.95    7.63
  11   3   3    2.53    0.92
  11   3   3    6.03    2.42
  10  -4  -3   -1.21    5.47
  10  -4  -3    0.71    1.09
  10  -4  -3    0.02    0.61
  10   4  -3   -0.32    1.40
  10   4  -3    2.69    6.29
  10   4  -3   -0.37    0.62
  10   4  -3    1.54    0.84
  -8  -4   3   62.40    3.94
  -8  -4   3   73.84    3.84
   8  -4  -3   59.75    6.55
   8  -4  -3   68.04    3.76
   8  -4  -3   71.37    3.79
   8   4  -3   65.93    3.78
   8   4  -3   77.83    4.21
   8   4  -3   67.29    8.55
   8   4  -3   75.15    3.96
   8   4  -3   83.92   10.02
  -6  -4   3    0.31    0.43
   6  -4  -3   -2.43    1.58
  -6  -4   3   -0.08    1.61
   6  -4  -3   -0.27    0.29
   6  -4  -3   -0.33    0.22
  -6  -4   3   -0.23    0.29
   6   4  -3    0.44    2.91
   6   4  -3    4.57    2.52
   6   4  -3   -0.24    0.27
   6   4  -3   -0.04    0.54
   6   4  -3    0.10    0.35
   4  -4  -3    6.23    1.37
  -4  -4   3    4.94    0.83
   4  -4  -3    5.68    0.55
  -4  -4   3    5.70    0.56
   4  -4  -3    6.24    0.67
  -4  -4   3    4.43    1.70
   4   4  -3    5.70    0.52
   4   4  -3    5.81    0.87
   4   4  -3    6.31    2.09
   4   4  -3    6.00    2.26
  -2  -4   3   12.31    1.01
   2  -4  -3   12.11    0.96
  -2  -4   3   13.53    0.79
   2  -4  -3   12.96    0.80
   2  -4  -3   12.59    2.00
  -2  -4   3   14.21    2.51
  -2   4   3   12.54    0.91
   2   4  -3   11.89    0.80
   2   4  -3   12.68    2.13
   2   4  -3   11.83    0.99
   2   4  -3   12.58    2.15
   0  -4  -3  356.89   17.95
   0  -4  -3  375.23   19.25
   0  -4  -3  326.13   18.13
   0  -4  -3  371.08   18.01
   0  -4   3  378.81   19.07
   0  -4   3  348.95   18.19
   0   4   3  356.64   18.17
   0   4   3  352.80   18.78
   0   4   3  379.13   18.77
   0   4  -3  365.38   18.27
   0   4  -3  358.84   18.02
   0   4  -3  376.63   18.37
   0   4   3  368.54   18.01
   2  -4   3   46.39    3.18
  -2  -4  -3   47.76    2.69
  -2  -4  -3   47.94    2.49
   2  -4   3   49.76    2.44
   2  -4   3   48.63    2.47
  -2  -4  -3   45.41    4.79
  -2   4  -3   46.79    2.48
   2   4   3   42.79    3.93
   2   4   3   45.15    3.88
   2   4   3   46.88    2.46
   2   4   3   46.13    2.70
   2   4   3   45.89    2.41
   4  -4   3    0.03    0.14
   4  -4   3    0.16    0.25
  -4  -4  -3    0.09    0.32
  -4  -4  -3    0.60    0.27
   4  -4   3    0.09    0.21
  -4  -4  -3    0.46    0.38
   4  -4   3   -0.22    0.29
   4   4   3   -0.22    0.17
   4   4   3    0.60    1.55
   4   4   3    0.06    0.20
   4   4   3   -0.27    0.41
   4   4   3    0.37    1.92
   6  -4   3   -0.15    0.41
  -6  -4  -3    0.23    0.42
  -6  -4  -3    0.00    0.34
  -6  -4  -3   -0.17    0.48
   6  -4   3   -0.17    0.22
   6  -4   3    0.17    0.41
   6  -4   3   -0.28    0.26
   6   4   3   -0.40    0.24
   6   4   3    0.07    0.34
   6   4   3   -3.61    2.40
   8  -4   3    0.57    0.40
   8  -4   3    0.26    0.53
   8  -4   3   -0.03    0.40
  -8  -4  -3    0.23    0.53
   8  -4   3    1.38    2.19
   8   4   3    1.04    1.01
   8   4   3   -0.10    0.33
   8   4   3   -3.69    4.72
   8   4   3   -1.81    4.31
  10  -4   3    3.41    0.80
  10  -4   3    3.09    0.77
  10  -4   3    4.25    1.14
  10  -4   3    1.81    0.84
  10  -4   3   13.34    5.36
  10   4   3    3.63    0.74
  10   4   3    2.77    0.92
  10   4   3   -8.26    6.22
   9  -5  -3   -1.84    0.95
  -9  -5   3   -0.94    0.79
   9  -5  -3   -4.01    5.51
   9  -5  -3   -0.11    0.55
   9   5  -3    0.56    1.06
   9   5  -3   -3.58    5.19
   7  -5  -3    5.84    0.69
  -7  -5   3    6.06    0.81
  -7  -5   3    5.43    0.93
   7  -5  -3    6.01    0.91
   7  -5  -3    8.89    2.46
   7   5  -3   -0.07    3.70
   7   5  -3    3.32    4.74
   7   5  -3    6.41    0.90
   5  -5  -3   39.08    2.13
   5  -5  -3   38.61    2.05
   5  -5  -3   34.94    3.43
  -5  -5   3   35.67    4.46
  -5  -5   3   35.74    2.41
  -5  -5   3   39.59    2.17
   5   5  -3   39.71    2.12
   5   5  -3   36.35    2.05
   5   5  -3   37.41    5.31
   5   5  -3   28.64    5.31
  -3  -5   3    1.61    0.34
  -3  -5   3    0.63    0.49
   3  -5  -3    2.46    1.55
   3  -5  -3    0.65    0.24
   3  -5  -3    1.06    0.45
  -3  -5   3    1.25    1.81
   3   5  -3    1.68    2.03
  -3   5   3    1.04    0.40
   3   5  -3    0.66    0.24
   3   5  -3    1.26    2.14
   3   5  -3    0.88    0.53
   1  -5  -3    1.69    1.73
  -1  -5   3    1.39    0.26
   1  -5  -3    1.39    0.23
  -1  -5   3    0.65    0.40
   1  -5  -3    1.26    0.29
   1  -5  -3    0.95    0.48
  -1  -5   3    2.55    1.63
  -1   5   3    1.30    0.98
  -1   5   3    0.22    0.81
   1   5  -3    0.74    0.46
  -1   5   3    1.18    0.29
   1   5  -3   -1.31    1.16
   1   5  -3    1.29    0.28
  -1   5   3    1.23    0.40
   1   5  -3    1.45    1.23
   1  -5   3   -0.13    0.36
   1  -5   3   -0.07    0.18
  -1  -5  -3    0.05    0.21
  -1  -5  -3    0.04    0.18
  -1  -5  -3    0.18    0.33
   1  -5   3    0.81    1.35
  -1  -5  -3    2.11    2.35
   1   5   3   -0.94    1.50
   1   5   3   -0.11    0.19
   1   5   3   -0.35    0.38
  -1   5  -3   -0.13    0.21
   1   5   3    0.94    1.16
  -3  -5  -3    4.22    0.62
   3  -5   3    5.77    1.42
   3  -5   3    3.96    0.68
   3  -5   3    4.47    0.51
  -3  -5  -3    5.37    0.88
   3  -5   3    4.62    0.53
  -3  -5  -3    4.06    0.56
  -3   5  -3    3.96    0.52
   3   5   3    4.13    0.39
   3   5   3    5.18    0.86
   3   5   3    4.38    0.47
   3   5   3    5.01    2.13
   5  -5   3    4.64    0.79
  -5  -5  -3    5.52    0.99
  -5  -5  -3    4.20    0.82
   5  -5   3    6.74    0.64
   5  -5   3    5.10    0.49
   5  -5   3    4.89    0.92
   5   5   3    5.57    0.58
   5   5   3    6.25    1.04
   5   5   3    5.20    2.78
   5   5   3    5.02    0.55
   5   5   3    3.68    3.04
  -7  -5  -3    0.00    0.62
   7  -5   3    0.69    0.58
  -7  -5  -3    1.56    0.56
   7  -5   3    1.20    0.43
   7  -5   3    1.17    0.39
   7  -5   3    1.22    0.71
   7   5   3    4.67    3.97
   7   5   3    1.78    5.07
   7   5   3    0.58    1.02
   7   5   3    0.45    0.40
   7   5   3    1.00    0.36
   9  -5   3    0.48    0.94
   9  -5   3    1.21    0.80
   9  -5   3    0.70    0.87
   9  -5   3    1.38    0.70
   9   5   3    0.88    0.53
   9   5   3    1.15    0.69
   9   5   3   -3.93    5.32
 -10  -6   3   -0.86    1.20
  10  -6  -3    2.39    0.95
  10   6  -3    0.59    0.87
  10   6  -3    1.53    0.97
  -8  -6   3    3.21    1.08
   8  -6  -3    3.75    0.70
   8  -6  -3    1.22    0.98
   8  -6  -3    9.12    3.51
   8   6  -3    4.48    0.74
   8   6  -3    3.63    5.42
   8   6  -3    4.06    0.74
   6  -6  -3   10.42    1.11
  -6  -6   3   12.87    1.60
  -6  -6   3   13.09    1.23
   6  -6  -3   13.57    1.30
   6   6  -3   27.64    5.77
   6   6  -3   12.38    4.19
   6   6  -3   13.97    1.10
   6   6  -3   12.51    0.92
   6   6  -3   10.56    1.92
  -4  -6   3   25.47    1.56
  -4  -6   3   24.56    1.97
  -4  -6   3   17.58    3.58
   4  -6  -3   24.86    3.31
   4  -6  -3   25.01    1.77
   4   6  -3   21.18    4.01
   4   6  -3   22.38    4.58
   4   6  -3   22.13    2.00
   4   6  -3   24.62    1.50
   2  -6  -3   30.99    1.77
  -2  -6   3   35.12    4.46
  -2  -6   3   35.19    2.31
   2  -6  -3   32.49    2.16
   2  -6  -3   35.92    4.61
  -2  -6   3   32.50    1.91
   2   6  -3   39.18    4.43
  -2   6   3   37.24    2.19
   2   6  -3   31.24    1.91
   2   6  -3   36.54    4.05
   0  -6  -3    2.41    2.84
   0  -6   3    6.71    1.02
   0  -6  -3    7.85    1.04
   0  -6  -3    6.38    0.54
   0  -6  -3    6.33    0.65
   0  -6   3    5.48    2.20
   0   6  -3    7.92    0.68
   0   6   3    7.82    1.61
   0   6   3    7.61    2.00
   0   6   3    6.02    0.64
   0   6   3    7.53    1.08
  -2  -6  -3    3.11    0.50
  -2  -6  -3   -4.10    3.19
   2  -6   3    4.30    0.56
   2  -6   3    5.70    2.06
   2  -6   3    2.89    0.67
  -2  -6  -3    3.63    0.58
  -2  -6  -3    3.70    0.77
  -2   6  -3    3.26    0.47
   2   6   3    2.89    1.88
   2   6   3    3.01    0.80
   2   6   3   -0.06    2.42
   2   6   3    3.80    0.56
  -4  -6  -3    1.76    0.53
   4  -6   3    1.83    0.42
   4  -6   3    2.35    0.65
   4  -6   3    1.32    0.29
   4  -6   3    1.93    0.41
   4   6   3    1.67    0.28
   4   6   3    1.68    0.38
   4   6   3    1.21    3.26
   4   6   3    0.88    2.60
   6  -6   3    3.63    0.59
   6  -6   3    2.86    0.46
   6  -6   3    2.48    0.68
   6  -6   3    1.50    0.76
  -6  -6  -3    2.87    0.86
  -6  -6  -3    3.65    0.74
   6   6   3    2.73    0.44
   6   6   3    2.50    1.22
   6   6   3    2.28    4.79
   6   6   3    2.55    0.51
   6   6   3    8.40    3.84
   8  -6   3   -0.34    0.87
   8  -6   3    0.40    0.95
  -8  -6  -3    0.95    0.85
   8  -6   3    0.88    0.58
   8   6   3    1.18    0.58
   8   6   3    0.50    0.56
   8   6   3   -1.25    5.31
  -7  -7   3   13.66    2.14
   7  -7  -3   14.66    1.59
   7  -7  -3   13.19    1.23
   7  -7  -3   17.95    4.20
   7   7  -3   12.13    1.00
   7   7  -3   12.70    5.62
   7   7  -3   14.70    1.33
   5  -7  -3   18.88    3.87
   5  -7  -3   20.61    1.32
   5  -7  -3   21.25    1.80
  -5  -7   3   18.28    1.58
  -5  -7   3   17.64    2.00
   5   7  -3   16.63    2.91
   5   7  -3   16.67    4.61
   5   7  -3   20.65    1.44
   3  -7  -3   16.83    1.65
  -3  -7   3   16.64    1.33
   3  -7  -3   17.09    1.04
   3  -7  -3   17.39    1.30
  -3  -7   3   16.05    1.82
   3  -7  -3   12.75    4.23
  -3  -7   3   16.44    3.69
   3   7  -3   17.73    1.22
   3   7  -3   17.97    2.14
   3   7  -3   16.34    3.34
  -1  -7   3    5.69    0.77
  -1  -7   3    5.36    0.98
   1  -7  -3    6.80    0.56
   1  -7  -3    6.57    0.82
  -1  -7   3    5.19    2.80
   1  -7  -3   11.08    4.21
   1  -7  -3    5.16    0.91
  -1   7   3    5.34    0.77
   1   7  -3    6.71    0.75
  -1  -7  -3    0.31    4.21
   1  -7   3    0.53    0.76
   1  -7   3    0.93    2.44
  -1  -7  -3    0.53    0.35
   1   7   3   -1.29    1.67
   1   7   3   -2.31    2.55
   1   7   3   -0.14    0.77
  -1   7  -3    0.55    0.39
  -3  -7  -3    7.83    1.02
   3  -7   3    8.40    1.23
   3  -7   3   10.02    2.63
  -3  -7  -3    8.69    1.09
   3  -7   3    9.27    0.96
  -3  -7  -3   10.30    1.51
   3   7   3    9.35    1.48
  -3   7  -3    8.47    0.98
   3   7   3   13.54    4.25
   3   7   3    9.02    3.10
   3   7   3    8.00    0.92
   5  -7   3    0.67    0.50
   5  -7   3    0.78    0.36
   5  -7   3   -0.75    0.97
  -5  -7  -3    0.60    0.75
   5  -7   3    0.16    0.54
   5   7   3   -0.09    0.27
   5   7   3    1.08    5.40
   5   7   3    0.17    0.45
   5   7   3    0.78    3.56
   7  -7   3    1.95    0.79
  -7  -7  -3    3.11    1.10
   7  -7   3   -1.11    1.72
   7   7   3    1.30    0.49
   7   7   3    2.94    0.69
   7   7   3    1.57    5.28
  -6  -8   3    1.84    1.24
   6  -8  -3    0.02    1.00
   6  -8  -3    0.75    0.58
   6   8  -3   -0.09    0.67
   6   8  -3   -7.54    5.31
   4  -8  -3    3.88    0.71
  -4  -8   3    2.56    1.12
   4  -8  -3    3.31    5.15
   4  -8  -3    6.33    1.29
   4   8  -3    4.92    0.77
   4   8  -3   11.49    5.53
   4   8  -3    6.68    3.93
  -2  -8   3    1.58    0.63
   2  -8  -3    1.11    0.96
   2  -8  -3   11.50    5.51
  -2  -8   3   -0.15    0.99
   2  -8  -3    1.00    0.34
   2   8  -3    2.61    2.15
   2   8  -3   -3.69    2.66
   2   8  -3    1.50    0.54
  -2   8   3   -0.08    0.97
   0  -8  -3    0.50    5.63
   0  -8   3   11.41    1.90
   0  -8   3   11.20    1.11
   0  -8  -3   12.61    1.81
   0  -8   3    7.82    3.69
   0   8  -3   11.97    1.19
   0   8   3   10.26    1.16
   0   8   3   12.95    2.10
  -2  -8  -3    6.64    1.25
   2  -8   3    3.73    1.18
   2   8   3    6.01    0.98
  -2   8  -3    5.11    0.81
   2   8   3    6.25    2.84
   4  -8   3    2.02    1.15
  -4  -8  -3    1.02    1.09
   4   8   3    3.82    6.32
   4   8   3    0.21    3.86
   4   8   3    1.20    0.59
   6  -8   3    6.25    1.60
   6  -8   3    7.00    0.99
  -6  -8  -3    5.81    1.55
   6  -8   3    7.73    1.22
   6   8   3    7.32    5.49
   5  -9  -3   12.09    1.45
  -5  -9   3   15.30    2.97
   5  -9  -3   10.32    1.76
   5   9  -3    9.31    1.35
   3  -9  -3    4.39    8.17
   1  -9  -3    0.90    1.25
  -1  -9   3   -0.05    1.22
   1   9  -3    1.23    0.77
   1  -9   3    2.77    1.34
  -1  -9  -3    0.60    1.24
   1  -9   3    0.84    0.87
   1   9   3    1.39    0.73
  -1   9  -3    1.06    0.82
  -3  -9  -3    1.97    1.33
   3  -9   3    1.82    1.55
   3   9   3    2.10    0.91
  12   0  -4    1.80    0.93
  12   0  -4   -2.23    1.39
  10   0  -4    0.10    0.89
  10   0  -4    0.02    0.49
 -10   0   4    0.01    0.43
  10   0  -4   -0.41    5.00
   8   0  -4   26.18    1.63
  -8   0   4   25.29    1.54
   8   0  -4   29.17    1.93
   8   0  -4   22.61    4.10
  -6   0   4    1.44    0.25
   6   0  -4    1.62    0.32
   6   0  -4    1.74    0.30
   6   0  -4    2.13    1.89
  -6   0   4    1.07    0.95
  -4   0   4   67.95    3.33
   4   0  -4   66.14    4.55
  -4   0   4   57.85    4.14
  -4   0   4   68.73    3.30
   4   0  -4   63.49    3.34
  -2   0   4  303.77   15.98
   2   0  -4  292.94   15.29
   2   0  -4  327.62   16.01
  -2   0   4  312.29   15.29
   0   0  -4   55.89    3.08
   0   0  -4   43.61    2.54
   0   0   4   50.10    2.99
   0   0   4   53.55    2.55
  -2   0  -4  168.36    9.27
   2   0   4  211.78    9.35
  -2   0  -4  181.57    9.36
   2   0   4  187.23    9.95
  -4   0  -4   67.02    3.72
   4   0   4   68.44    3.58
   4   0   4   73.98    3.70
  -4   0  -4   70.00    3.58
   4   0   4   74.88    4.82
   6   0   4  123.17    6.74
   6   0   4  134.66    6.74
   6   0   4  133.14    8.56
  -6   0  -4  130.22    6.59
   6   0   4  132.27    6.60
   8   0   4   33.35    2.25
   8   0   4   35.29    4.96
   8   0   4   33.53    5.81
   8   0   4   36.79    2.02
  -8   0  -4   36.24    1.99
  10   0   4   -3.64    5.12
  10   0   4   -0.08    0.85
  10   0   4   -0.23    0.55
 -10   0  -4   -0.14    0.47
  10   0   4    1.80    0.69
  10   0   4   -9.20    5.18
  12   0   4    1.86    1.85
  12   0   4   14.49    9.69
  12   0   4    3.63    1.06
  11  -1  -4    1.48    0.70
  11  -1  -4    0.75    6.76
  11  -1  -4    1.02    1.15
  11   1  -4    2.49    0.80
  11   1  -4    0.86    1.18
  11   1  -4    2.27    0.74
   9  -1  -4    0.58    3.69
  -9  -1   4    3.04    0.51
   9  -1  -4    3.29    0.82
  -9   1   4    4.51    0.60
   9   1  -4    3.49    0.58
   9   1  -4    2.83    0.57
   9   1  -4   -4.61    3.73
   7  -1  -4    5.12    0.56
   7  -1  -4    5.88    2.60
  -7  -1   4    4.58    0.54
  -7  -1   4    5.59    0.57
  -7   1   4    6.35    0.50
   7   1  -4    4.04    0.66
   7   1  -4    6.65    2.74
   7   1  -4    6.05    0.84
   7   1  -4    5.18    0.60
   5  -1  -4   61.44    4.67
   5  -1  -4   67.71    3.37
  -5  -1   4   62.33    4.54
  -5  -1   4   68.44    3.39
  -5   1   4   63.66    3.93
  -5   1   4   66.03    3.34
   5   1  -4   65.20    3.38
   5   1  -4   62.41    4.98
  -3  -1   4   -0.05    0.12
  -3  -1   4    0.60    0.77
   3  -1  -4    0.10    0.09
  -3  -1   4   -0.13    0.10
   3  -1  -4   -0.04    0.80
  -3   1   4   -0.58    0.62
   3   1  -4   -0.01    0.10
   3   1  -4    0.02    0.13
   3   1  -4    0.26    0.84
   1  -1  -4  156.61    8.15
  -1  -1   4  150.04    7.64
  -1  -1   4  159.78    8.34
   1   1  -4  156.00    7.64
   1   1  -4  164.29    8.25
  -1   1   4  145.83    7.68
  -1   1   4  146.94    8.13
  -1  -1  -4  169.98    8.74
   1  -1   4  171.52    9.08
   1  -1   4  166.76    8.71
  -1  -1  -4  183.52    8.68
  -1  -1  -4  195.64    9.53
  -1   1  -4  185.85    9.07
   1   1   4  160.09    8.68
  -1   1  -4  160.65    8.69
   1   1   4  173.22    8.79
  -1   1  -4  185.21    8.74
   1   1   4  184.36    9.44
   1   1   4  172.47    8.72
  -3  -1  -4   22.15    2.50
  -3  -1  -4   21.33    1.29
   3  -1   4   22.38    1.15
   3  -1   4   22.50    2.00
  -3  -1  -4   22.21    1.20
   3  -1   4   24.50    1.27
   3   1   4   21.26    2.37
  -3   1  -4   22.84    1.14
   3   1   4   21.93    1.31
  -3   1  -4   22.19    1.29
   3   1   4   19.41    1.23
   5  -1   4   12.90    2.17
   5  -1   4   16.27    0.94
  -5  -1  -4   17.74    1.19
   5  -1   4   14.88    1.09
  -5  -1  -4   16.50    0.98
   5   1   4   16.85    0.97
  -5   1  -4   16.07    0.92
   5   1   4   18.02    2.96
   5   1   4   16.38    1.10
   5   1   4   16.49    1.19
   7  -1   4  121.55    8.43
   7  -1   4  121.11    6.34
   7  -1   4  121.30    6.42
  -7  -1  -4  128.04    6.24
   7  -1   4  125.60    6.22
   7   1   4  127.42    6.25
   7   1   4  111.79    7.94
   7   1   4  112.57    6.45
   7   1   4  123.97    6.41
  -7   1  -4  129.55    6.18
   7   1   4  114.00    8.82
   9  -1   4   11.03    4.43
   9  -1   4    5.87    0.71
   9  -1   4    7.13    1.02
   9  -1   4   15.87    3.66
   9   1   4    9.98    4.39
   9   1   4    6.10    0.76
   9   1   4    6.44    4.46
  -9   1  -4    6.19    0.69
   9   1   4    6.74    1.13
   9   1   4    6.94    1.06
  11  -1   4    1.03    0.66
  11  -1   4   -1.98    1.08
  11  -1   4    0.58    6.31
  11  -1   4  -11.95    8.24
  11   1   4    6.19    6.95
 -11   1  -4    1.70    0.75
  11   1   4   -0.07    0.71
  11   1   4    1.39    0.97
  11   1   4    0.10    1.47
  12  -2  -4    1.82    1.52
  12  -2  -4    3.59    1.02
  12   2  -4   -0.83    1.36
  12   2  -4    3.74    1.05
  10  -2  -4   -3.44    4.70
  10  -2  -4    1.91    0.59
  10  -2  -4    2.06    1.05
  10   2  -4    1.64    0.92
  10   2  -4    1.98    0.85
  10   2  -4    5.85   11.77
  10   2  -4    1.76    0.57
   8  -2  -4   -4.37    4.79
  -8  -2   4    0.34    0.37
   8  -2  -4    1.04    0.35
   8   2  -4    0.93    0.55
   8   2  -4    1.39    0.63
   8   2  -4    0.29    3.19
   8   2  -4    0.83    0.40
   6  -2  -4    0.60    1.63
   6  -2  -4   -0.03    0.17
  -6  -2   4   -0.03    0.19
  -6  -2   4    0.05    0.29
  -6  -2   4   -0.94    1.31
   6   2  -4    0.09    0.24
   6   2  -4   -0.36    0.33
   6   2  -4    0.18    0.36
   6   2  -4   -0.98    2.04
   4  -2  -4   57.00    3.92
  -4  -2   4   59.52    2.95
  -4  -2   4   55.19    3.03
  -4  -2   4   52.58    4.18
   4  -2  -4   60.09    2.93
   4   2  -4   50.57    3.01
   4   2  -4   65.90    4.66
   4   2  -4   55.60    2.95
  -2  -2   4    2.32    0.94
   2  -2  -4    2.96    0.80
  -2  -2   4    2.38    0.35
  -2  -2   4    2.75    0.25
   2  -2  -4    2.31    0.29
   2   2  -4    3.09    1.04
   2   2  -4    3.45    0.39
   2   2  -4    2.65    0.24
  -2   2   4    2.50    0.76
   0  -2  -4  140.99    7.45
   0  -2  -4  152.64    7.37
   0  -2   4  145.19    7.33
   0  -2  -4  136.91    8.11
   0  -2  -4  142.39    7.36
   0  -2   4  153.62    7.99
   0   2  -4  164.98    7.76
   0   2   4  142.05    8.00
   0   2   4  158.18    7.37
   0   2  -4  146.53    7.38
   0   2  -4  153.43    7.34
   0   2   4  151.28    7.47
   0   2   4  135.25    7.36
   2  -2   4    2.83    0.23
  -2  -2  -4    2.16    0.35
  -2  -2  -4    0.30    1.18
   2  -2   4    2.28    0.18
   2  -2   4    2.33    0.27
  -2  -2  -4    2.67    0.32
  -2   2  -4    2.05    0.21
   2   2   4    2.16    0.25
   2   2   4    3.11    0.46
   2   2   4    2.51    1.11
   2   2   4    2.39    0.20
  -2   2  -4    2.06    0.31
   4  -2   4   22.02    1.19
   4  -2   4   21.92    1.18
  -4  -2  -4   22.81    1.37
   4  -2   4   22.77    2.06
  -4  -2  -4   23.66    1.27
   4  -2   4   21.36    1.32
  -4  -2  -4   22.95    1.38
   4   2   4   23.60    3.02
   4   2   4   22.09    1.44
   4   2   4   22.24    1.17
   4   2   4   19.22    1.27
  -6  -2  -4   -0.17    0.41
   6  -2   4    0.05    0.20
   6  -2   4   -0.12    1.66
   6  -2   4    0.42    0.24
   6  -2   4   -0.11    0.35
  -6  -2  -4    0.49    0.27
   6   2   4    0.48    0.37
  -6   2  -4    0.27    0.15
   6   2   4    0.07    0.55
   6   2   4    2.92    2.16
   6   2   4    0.19    0.22
   6   2   4   -1.21    1.63
   8  -2   4   16.21    1.31
   8  -2   4   14.15    1.06
   8  -2   4   15.69    1.42
   8  -2   4   19.79    3.72
   8  -2   4   15.13    1.01
   8   2   4   17.20    1.65
   8   2   4   22.37    4.35
   8   2   4    7.38    3.82
  -8   2  -4   14.53    0.95
   8   2   4   14.07    1.45
   8   2   4   15.57    1.10
  10  -2   4   50.95    8.76
  10  -2   4   38.13    2.81
  10  -2   4   42.16    2.81
  10  -2   4   48.26    6.90
  10  -2   4   37.93    2.34
  10   2   4   39.85    2.45
  10   2   4   36.08    3.22
  10   2   4   45.25    2.80
  10   2   4   51.19    7.99
  11  -3  -4    1.52    0.78
  11  -3  -4   -4.59    7.02
  11  -3  -4    2.35    1.30
  11   3  -4    3.35    1.31
  11   3  -4    4.86    7.33
  11   3  -4    1.96    0.84
  11   3  -4   -0.20    1.16
   9  -3  -4    4.25    0.64
  -9  -3   4    4.11    0.67
   9  -3  -4    4.96    1.00
   9  -3  -4   -0.35    3.60
  -9  -3   4    5.48    0.79
   9   3  -4    5.40    0.98
   9   3  -4   -0.91    5.50
   9   3  -4    5.51    0.87
  -7  -3   4    0.06    0.32
   7  -3  -4   -0.72    2.28
  -7  -3   4    0.39    0.41
  -7  -3   4    3.44    1.79
   7  -3  -4    0.52    0.28
   7   3  -4   -0.23    0.52
   7   3  -4    0.37    0.32
   7   3  -4    0.20    0.46
   5  -3  -4    1.77    0.28
  -5  -3   4    2.62    0.51
  -5  -3   4    0.65    1.51
  -5  -3   4    2.91    0.46
   5  -3  -4    1.54    1.40
   5   3  -4    3.06    0.54
   5   3  -4    2.28    0.35
   5   3  -4    2.32    0.49
  -3  -3   4   20.77    2.61
   3  -3  -4   20.66    1.94
  -3  -3   4   17.80    1.22
   3  -3  -4   19.28    1.07
  -3  -3   4   19.26    1.07
   3  -3  -4   16.94    1.08
   3   3  -4   20.87    1.24
   3   3  -4   17.33    1.04
   3   3  -4   20.40    2.81
  -3   3   4   16.89    1.06
   3   3  -4   17.71    1.06
   1  -3  -4   77.39    3.88
   1  -3  -4   73.93    3.78
   1  -3  -4   73.46    4.69
  -1  -3   4   70.50    4.80
  -1  -3   4   77.33    3.94
   1  -3  -4   72.64    3.75
  -1  -3   4   73.87    3.75
  -1   3   4   72.28    4.34
  -1   3   4   80.16    3.89
   1   3  -4   68.99    4.53
   1   3  -4   74.66    3.79
   1  -3   4    0.50    0.25
   1  -3   4    0.33    0.13
  -1  -3  -4    0.38    0.13
   1  -3   4    0.39    0.09
  -1  -3  -4    0.39    0.14
  -1  -3  -4    0.26    1.23
   1  -3   4    0.80    0.71
  -1  -3  -4    0.39    0.25
   1   3   4    0.27    0.13
   1   3   4    0.14    0.81
   1   3   4    0.41    0.12
   1   3   4    0.52    0.30
   3  -3   4    0.02    0.16
   3  -3   4    0.21    0.14
   3  -3   4    0.06    0.09
  -3  -3  -4    0.07    0.17
  -3  -3  -4    0.15    0.28
  -3  -3  -4    0.06    0.21
  -3  -3  -4   -0.69    1.60
   3   3   4    0.53    0.33
   3   3   4    0.12    0.14
   3   3   4    0.07    0.12
   3   3   4   -0.19    1.16
  -3   3  -4    0.17    0.15
   3   3   4   -0.43    0.97
  -5  -3  -4    0.20    0.32
   5  -3   4    0.71    1.24
  -5  -3  -4    0.12    0.25
   5  -3   4    0.43    0.19
   5  -3   4   -0.17    0.29
   5  -3   4    0.45    0.19
  -5  -3  -4   -0.19    0.35
   5   3   4    0.35    0.28
   5   3   4    0.32    1.93
   5   3   4    0.31    0.18
   5   3   4   -0.81    1.76
   5   3   4    0.58    0.54
   7  -3   4   16.10    1.05
   7  -3   4   15.38    2.91
   7  -3   4   13.92    0.97
   7  -3   4   12.20    1.24
   7   3   4   14.40    4.08
   7   3   4   13.96    0.90
   7   3   4    9.32    3.70
   7   3   4   15.74    1.64
   7   3   4   13.01    1.16
   9  -3   4   -0.46    3.81
   9  -3   4    0.74    0.46
  -9  -3  -4    1.02    0.63
   9  -3   4    0.03    0.47
   9  -3   4    1.49    3.33
   9  -3   4    0.32    0.64
   9  -3   4    0.19    0.76
   9   3   4   -0.38    4.72
   9   3   4    1.00    0.65
  11  -3   4    8.89    1.12
  11  -3   4   20.90    7.07
  11  -3   4    9.18    1.63
  11   3   4   10.96    1.14
  11   3   4    8.87    1.35
  11   3   4   -4.65    7.71
  10  -4  -4    0.76    1.07
  10  -4  -4   10.41    5.63
  10  -4  -4   -0.74    0.58
 -10  -4   4   -0.21    0.84
  10   4  -4    0.09    0.57
  10   4  -4    0.56    0.87
  10   4  -4    0.02    1.26
  10   4  -4   -3.87    5.32
  -8  -4   4    1.10    0.61
   8  -4  -4    0.68    2.96
   8  -4  -4   -0.31    0.46
  -8  -4   4   -0.13    0.45
   8  -4  -4    1.19    0.67
   8   4  -4    4.80    3.87
   8   4  -4   -0.58    4.99
   8   4  -4   -0.90    0.78
   8   4  -4    0.78    0.59
   6  -4  -4    0.88    0.34
   6  -4  -4    0.39    0.26
   6  -4  -4   -1.94    1.59
  -6  -4   4    0.42    0.32
  -6  -4   4    0.96    0.49
  -6  -4   4   -0.52    1.85
   6   4  -4    0.67    0.38
   6   4  -4    0.72    2.91
   6   4  -4    0.35    0.27
   6   4  -4    0.12    0.58
  -4  -4   4    5.64    0.80
  -4  -4   4    1.70    1.79
   4  -4  -4    5.11    0.53
   4  -4  -4    6.38    1.45
  -4  -4   4    5.76    0.55
   4  -4  -4    5.36    0.58
   4   4  -4    0.56    2.05
   4   4  -4    3.89    0.49
   4   4  -4    6.61    0.89
   2  -4  -4   23.09    1.55
   2  -4  -4   27.42    1.48
  -2  -4   4   27.92    3.37
  -2  -4   4   27.46    1.46
   2  -4  -4   27.39    2.73
  -2  -4   4   27.52    1.71
   2   4  -4   23.33    1.68
   2   4  -4   26.73    3.22
   2   4  -4   30.28    3.24
  -2   4   4   26.18    1.58
   2   4  -4   27.07    1.48
   0  -4  -4  235.85   11.40
   0  -4   4  220.79   12.45
   0  -4  -4  233.05   11.56
   0  -4   4  240.63   11.62
   0  -4  -4  227.65   11.35
   0  -4  -4  229.57   12.73
   0  -4   4  227.08   11.35
   0   4   4  229.06   12.24
   0   4  -4  229.90   11.66
   0   4   4  227.69   11.40
   0   4   4  234.52   11.58
   0   4  -4  222.05   11.41
   0   4  -4  214.00   11.75
   0   4   4  222.72   12.22
  -2  -4  -4   54.90    3.17
  -2  -4  -4   57.55    3.06
  -2  -4  -4   54.50    5.35
   2  -4   4   61.22    2.99
   2  -4   4   59.55    3.17
   2  -4   4   54.99    2.93
   2  -4   4   57.53    3.67
   2   4   4   55.78    4.33
   2   4   4   59.69    4.54
   2   4   4   57.28    2.97
  -2   4  -4   56.99    3.00
   2   4   4   55.89    2.94
   2   4   4   59.80    3.26
   4  -4   4    0.49    0.16
   4  -4   4   -0.07    0.31
   4  -4   4    0.52    0.21
   4  -4   4    0.15    0.28
  -4  -4  -4    0.14    0.37
  -4  -4  -4    0.61    0.36
  -4  -4  -4    0.30    0.27
   4   4   4    2.99    2.04
   4   4   4    0.13    0.21
   4   4   4    0.08    0.17
   4   4   4    0.28    1.79
   4   4   4   -0.50    0.46
   6  -4   4    0.32    0.43
  -6  -4  -4    0.31    0.44
   6  -4   4    0.49    0.29
   6  -4   4    1.19    0.29
  -6  -4  -4    0.12    0.45
  -6  -4  -4    0.18    0.48
   6  -4   4    0.97    0.45
   6   4   4    0.90    0.30
   6   4   4    0.56    0.73
   6   4   4   -4.34    2.41
   6   4   4    0.44    0.33
  -8  -4  -4    0.73    0.56
   8  -4   4    0.81    0.61
   8  -4   4    2.02    2.91
   8  -4   4    1.71    0.46
   8  -4   4    0.91    0.44
   8  -4   4    2.15    1.07
   8   4   4    0.87    0.39
   8   4   4    3.02    5.17
   8   4   4    0.07    1.06
   8   4   4    1.71    3.87
  10  -4   4    2.35    0.71
  10  -4   4   11.46    5.05
  10  -4   4    1.28    0.76
  10  -4   4    2.51    1.03
  10  -4   4    1.77    0.90
  10   4   4    1.26    0.58
  10   4   4    1.43    0.89
  10   4   4   -8.86    6.10
   9  -5  -4    4.22    4.56
   9  -5  -4    2.34    1.10
  -9  -5   4    0.55    0.81
   9   5  -4    6.39    1.43
   9   5  -4    3.59    1.75
   9   5  -4   -1.57    5.75
  -7  -5   4    7.40    1.21
   7  -5  -4    8.25    1.00
   7  -5  -4   12.32    2.72
  -7  -5   4    7.28    1.01
   7   5  -4    6.54    1.19
   7   5  -4    8.48    0.95
   7   5  -4    5.87    4.08
   7   5  -4   14.94    5.14
  -5  -5   4   18.53    3.23
   5  -5  -4   18.71    3.21
  -5  -5   4   21.89    1.72
   5  -5  -4   20.47    1.26
  -5  -5   4   21.50    1.38
   5  -5  -4   21.83    1.38
   5  -5  -4   20.76    1.40
   5   5  -4   23.07    1.35
   5   5  -4   18.95    4.29
   5   5  -4   16.39    3.64
   5   5  -4   21.13    1.28
   3  -5  -4    3.05    1.75
  -3  -5   4    0.46    0.47
   3  -5  -4    0.37    0.27
  -3  -5   4    1.18    1.98
  -3  -5   4    0.55    0.33
   3  -5  -4    0.77    0.42
   3   5  -4    3.03    2.12
   3   5  -4    0.50    1.92
   3   5  -4   -0.19    0.49
   3   5  -4    0.26    0.21
  -3   5   4    0.89    0.40
  -1  -5   4   33.97    3.99
   1  -5  -4   33.43    1.72
   1  -5  -4   34.60    2.03
   1  -5  -4   36.46    3.94
  -1  -5   4   32.28    1.77
  -1  -5   4   32.19    2.08
   1  -5  -4   32.15    1.80
   1   5  -4   30.53    3.05
   1   5  -4   31.73    1.81
  -1   5   4   29.55    2.85
   1   5  -4   31.19    2.95
  -1   5   4   29.21    1.79
  -1   5   4   34.28    2.57
  -1   5   4   34.10    2.04
   1  -5   4    9.86    0.75
  -1  -5  -4   10.10    1.04
   1  -5   4   11.80    1.02
  -1  -5  -4   10.96    0.81
   1  -5   4   10.78    2.17
  -1  -5  -4   10.66    0.74
   1   5   4    9.87    1.10
   1   5   4   10.27    1.97
   1   5   4   12.24    2.28
   1   5   4   11.71    0.78
  -1   5  -4   11.17    0.78
  -3  -5  -4   17.98    3.75
  -3  -5  -4   17.17    1.43
  -3  -5  -4   19.51    1.19
   3  -5   4   17.64    1.09
  -3  -5  -4   18.35    1.22
   3  -5   4   18.01    2.52
   3  -5   4   17.55    1.37
   3  -5   4   17.70    1.12
   3   5   4   19.22    3.28
   3   5   4   18.63    3.34
   3   5   4   18.40    1.04
   3   5   4   16.92    1.57
   3   5   4   18.92    1.11
   5  -5   4    0.70    0.48
  -5  -5  -4   -0.17    0.49
   5  -5   4    0.08    0.22
  -5  -5  -4   -0.26    0.51
   5  -5   4    0.34    0.40
   5  -5   4    0.35    0.31
   5   5   4    0.20    0.25
   5   5   4   -0.17    0.64
   5   5   4    0.32    0.27
   5   5   4    3.00    2.37
   7  -5   4   10.45    0.87
  -7  -5  -4    9.27    1.29
   7  -5   4    7.62    0.90
  -7  -5  -4   10.23    1.20
   7  -5   4   11.22    1.24
   7  -5   4   10.92    1.24
   7   5   4    9.79    4.44
   7   5   4    9.55    0.95
   7   5   4   14.47    5.49
   7   5   4    8.21    0.85
   7   5   4    9.24    1.53
   9  -5   4    8.16    1.30
   9  -5   4    7.29    3.79
   9  -5   4    9.11    1.21
   9  -5   4   12.53    1.73
   9  -5   4    8.09    1.26
   9   5   4    8.22    1.19
   9   5   4    9.17    6.03
   9   5   4    8.29    1.02
 -10  -6   4    2.75    1.38
  10  -6  -4    1.53    1.64
  10  -6  -4    4.73    1.07
  10   6  -4    1.72    0.92
  -8  -6   4   20.34    2.23
   8  -6  -4   21.59    1.61
   8  -6  -4   40.45    7.21
   8   6  -4   23.63    1.67
   8   6  -4   24.90    1.67
   6  -6  -4   -0.68    0.55
  -6  -6   4   -4.93    2.51
   6  -6  -4    0.99    0.35
   6  -6  -4   -0.43    0.49
  -6  -6   4   -0.39    0.51
  -6  -6   4    0.33    0.66
   6   6  -4    0.54    0.32
   6   6  -4    3.71    3.70
   6   6  -4   -0.10    0.40
   6   6  -4   -2.82    4.56
   6   6  -4   -0.61    0.99
  -4  -6   4   13.29    1.05
  -4  -6   4   14.24    1.55
  -4  -6   4   13.87    3.62
   4  -6  -4   13.46    2.90
   4  -6  -4   14.19    1.28
   4   6  -4   12.73    3.10
   4   6  -4   12.63    1.00
   4   6  -4   12.58    1.63
   4   6  -4   14.09    3.89
  -2  -6   4    1.69    2.24
  -2  -6   4    1.58    0.37
  -2  -6   4    0.70    0.61
   2  -6  -4    0.69    0.52
   2  -6  -4   -0.01    2.39
   2  -6  -4    1.08    0.37
   2   6  -4    1.11    0.34
   2   6  -4   -0.05    1.91
  -2   6   4    0.60    0.55
   2   6  -4   -0.87    1.93
   0  -6  -4   32.37    2.09
   0  -6  -4   30.60    1.66
   0  -6   4   36.87    4.30
   0  -6   4   32.25    2.14
   0  -6   4   31.05    1.71
   0  -6  -4   33.13    5.61
   0  -6  -4   29.45    1.75
   0   6   4   28.00    2.10
   0   6   4   28.97    1.76
   0   6   4   26.95    3.70
   0   6  -4   30.54    1.77
   0   6   4   28.75    3.03
   2  -6   4   13.57    0.94
  -2  -6  -4   14.03    4.16
  -2  -6  -4   11.75    1.32
   2  -6   4   15.29    2.70
   2  -6   4   15.17    1.39
  -2  -6  -4   12.78    0.97
   2   6   4   14.34    2.68
  -2   6  -4   12.35    0.96
   2   6   4   10.43    1.47
   2   6   4   13.17    0.92
   4  -6   4   11.05    0.89
   4  -6   4   11.93    0.77
   4  -6   4   14.10    1.34
   4  -6   4   11.01    0.92
   4  -6   4    9.23    2.40
  -4  -6  -4   11.58    1.33
  -4  -6  -4   11.13    1.14
   4   6   4   14.17    3.46
   4   6   4   12.05    0.90
   4   6   4    9.16    3.69
   4   6   4   11.79    0.79
   6  -6   4    2.87    0.65
   6  -6   4    2.65    0.84
   6   6   4    4.01    1.33
   6   6   4   -4.33    3.68
   6   6   4   -7.66    4.86
   8  -6   4    4.43    1.15
   8  -6   4    3.50    0.93
  -8  -6  -4    3.36    1.09
   8  -6   4    3.78    0.66
   8   6   4   11.90    5.68
   8   6   4    2.79    0.63
   8   6   4    3.84    0.70
   7  -7  -4   20.09    7.53
   7  -7  -4   14.24    1.61
  -7  -7   4   14.65    2.10
   7  -7  -4   14.35    1.29
   7   7  -4    5.04    5.56
   7   7  -4   16.17    1.44
   7   7  -4   15.41    1.06
  -5  -7   4   22.94    2.16
  -5  -7   4   24.39    1.74
  -5  -7   4   34.81    6.39
   5  -7  -4   24.11    1.47
   5  -7  -4   20.61    1.87
   5   7  -4   18.25    4.95
   5   7  -4   20.58    1.59
   3  -7  -4    6.06    0.61
   3  -7  -4    8.58    1.31
   3  -7  -4    8.18    3.63
  -3  -7   4    3.78    4.23
  -3  -7   4    5.93    1.08
   3  -7  -4    5.66    0.74
  -3  -7   4    6.52    0.93
   3   7  -4    8.67    2.86
   3   7  -4    4.12    1.08
  -3   7   4    7.70    1.31
   3   7  -4    5.63    0.77
   3   7  -4    9.26    4.42
  -1  -7   4    3.99    0.59
   1  -7  -4    2.95    4.04
   1  -7  -4    4.69    0.85
   1  -7  -4    4.36    0.70
  -1  -7   4    4.44    0.95
  -1  -7   4    7.21    3.08
   1  -7  -4    3.05    0.52
  -1   7   4    4.74    0.71
   1   7  -4    4.48    0.70
  -1  -7  -4    1.98    0.50
   1  -7   4    0.28    1.35
  -1  -7  -4    3.89    4.71
   1  -7   4    8.26    2.99
  -1  -7  -4    1.94    0.43
  -1  -7  -4    2.42    0.92
   1   7   4    2.28    1.95
   1   7   4    2.97    0.89
  -1   7  -4    2.14    0.51
   1   7   4    0.73    2.72
   3  -7   4    0.86    2.51
  -3  -7  -4   -0.88    0.51
   3  -7   4   -0.02    0.41
  -3  -7  -4   -0.13    0.67
   3  -7   4    2.41    1.42
  -3  -7  -4   -0.78    0.51
  -3   7  -4    0.15    0.46
   3   7   4    0.60    3.85
   3   7   4   -0.47    2.48
   3   7   4    0.56    1.03
   3   7   4    0.38    0.45
   5  -7   4    6.71    0.74
  -5  -7  -4    7.98    1.30
   5  -7   4    9.49    1.71
   5  -7   4    7.47    0.91
   5  -7   4    6.02    0.85
   5   7   4   10.57    4.14
   5   7   4   -6.00    5.27
   5   7   4    9.95    0.98
   5   7   4    8.54    0.73
   7  -7   4   11.49    1.12
   7  -7   4   13.31    1.47
  -7  -7  -4   11.67    1.64
   7  -7   4   13.62    2.22
   7   7   4   13.44    6.08
   7   7   4   11.45    1.29
   7   7   4   10.12    1.10
  -6  -8   4   44.48    3.34
   6  -8  -4   35.75    2.84
   6  -8  -4   43.34    2.90
   6  -8  -4   35.66    2.36
   6   8  -4   38.82    7.54
   6   8  -4   38.15    2.55
   4  -8  -4   14.22    6.00
  -4  -8   4    5.43    1.21
   4  -8  -4    4.47    0.56
   4  -8  -4    2.63    1.68
   4   8  -4   12.15    5.07
   4   8  -4    6.67    4.11
   4   8  -4    3.70    0.72
  -2  -8   4    4.30    4.26
   2  -8  -4   -1.74    5.14
   2  -8  -4    2.89    1.05
  -2  -8   4    4.41    1.15
  -2  -8   4    2.62    0.66
   2  -8  -4    2.91    0.46
   2   8  -4    4.01    0.70
  -2   8   4    3.42    1.23
   2   8  -4    0.63    2.10
   0  -8  -4    3.63    0.57
   0  -8  -4    5.98    1.13
   0  -8  -4   14.67    5.99
   0  -8   4   11.73    4.23
   0  -8   4    4.22    1.21
   0  -8   4    6.71    0.97
   0   8  -4    5.36    0.79
   0   8   4    4.37    0.72
   0   8   4    2.54    1.27
  -2  -8  -4    6.98    0.81
   2  -8   4    6.59    3.86
  -2  -8  -4    7.09    1.25
   2  -8   4    6.49    1.23
   2   8   4    5.51    3.04
   2   8   4    5.73    0.82
   2   8   4   11.56    4.68
  -2   8  -4    8.02    1.14
   4  -8   4   -1.24    1.04
   4  -8   4    0.63    0.43
  -4  -8  -4   -1.14    0.86
   4   8   4   -3.53    3.75
   4   8   4   -0.16    0.56
   4   8   4    8.75    6.46
   6  -8   4    1.64    0.69
   6  -8   4    2.59    1.40
  -6  -8  -4    1.04    1.21
   6   8   4    1.55    0.78
   6   8   4    1.38    0.65
   6   8   4    0.83    5.92
   5  -9  -4   -0.61    1.35
   5  -9  -4    0.26    0.78
   3  -9  -4    4.67    9.29
  -3  -9   4    1.76    1.47
   3  -9  -4    1.46    1.29
   3   9  -4    1.17    0.76
   1  -9  -4    4.32    1.39
  -1  -9   4    3.09    1.47
   1   9  -4    1.23    0.83
   1  -9   4    1.96    1.33
  -1  -9  -4    1.73    1.20
   1  -9   4    1.27    0.87
  -3  -9  -4    0.87    1.28
   3  -9   4    3.75    1.60
   3   9   4    2.82    0.88
   3   9   4    2.75    4.27
  12   0  -5   -1.05    0.88
  12   0  -5    0.65    1.40
 -10   0   5    0.05    0.43
  10   0  -5   -0.58    0.82
  10   0  -5   -0.26    0.51
   8   0  -5   -0.14    2.95
   8   0  -5   -0.07    0.34
  -6   0   5   -0.32    1.04
   6   0  -5    0.08    0.21
  -6   0   5    0.10    0.17
   6   0  -5    1.65    1.87
  -4   0   5    0.09    0.10
   4   0  -5    2.48    1.29
  -4   0   5    0.45    0.95
   4   0  -5    0.22    0.13
  -2   0   5   -0.18    0.70
  -2   0   5   -0.11    0.06
   2   0  -5    0.23    0.66
   2   0  -5   -0.23    0.06
  -2   0  -5   -0.05    0.14
   2   0   5   -0.08    0.58
  -2   0  -5   -0.24    0.70
  -2   0  -5    0.16    0.07
   2   0   5   -0.15    0.09
   4   0   5   -0.07    0.16
  -4   0  -5    0.19    0.12
   4   0   5    0.10    0.14
  -4   0  -5    0.07    0.24
   4   0   5   -0.24    1.08
   6   0   5   -0.11    0.19
  -6   0  -5   -0.12    0.19
   6   0   5    0.31    1.64
   6   0   5   -0.08    0.29
   6   0   5    0.34    0.39
  -6   0  -5   -0.62    0.35
   8   0   5    3.25    3.10
   8   0   5   -0.23    0.76
   8   0   5    2.85    2.35
   8   0   5    1.38    0.70
 -10   0  -5   -0.38    0.46
  10   0   5   -0.53    0.60
  10   0   5   -7.26    5.46
  10   0   5    6.12    5.17
  10   0   5   -0.56    0.52
  10   0   5   -1.80    0.91
  11  -1  -5    1.76    1.15
  11  -1  -5    2.30    0.79
  11  -1  -5    9.80    7.31
  11   1  -5    2.35    1.19
  11   1  -5    1.95    0.72
   9  -1  -5    0.44    0.42
   9  -1  -5   -1.90    3.68
   9   1  -5    0.32    0.44
   9   1  -5    0.21    0.49
  -9   1   5    0.86    0.34
   9   1  -5   -2.42    4.08
  -7  -1   5   18.38    2.68
   7  -1  -5   23.73    4.20
  -7  -1   5   18.04    1.16
   7  -1  -5   19.05    1.19
  -7  -1   5   19.66    1.18
   7   1  -5   19.15    1.22
  -7   1   5   19.38    1.13
   7   1  -5   16.79    1.20
   7   1  -5   19.08    3.63
   5  -1  -5    0.44    1.35
  -5  -1   5    0.29    1.15
  -5  -1   5    0.85    0.19
   5  -1  -5    0.75    0.20
  -5  -1   5    0.78    0.29
  -5   1   5    2.52    0.90
   5   1  -5    0.73    0.24
   5   1  -5    0.71    0.22
  -5   1   5    0.69    0.17
   5   1  -5    0.01    1.54
  -3  -1   5   24.44    2.57
   3  -1  -5   27.42    2.45
  -3  -1   5   28.14    1.51
  -3  -1   5   28.10    1.45
   3  -1  -5   26.84    1.45
  -3   1   5   26.70    2.31
   3   1  -5   28.70    2.71
   3   1  -5   27.15    1.47
  -1  -1   5  100.90    5.67
   1  -1  -5   94.95    5.48
  -1  -1   5  100.09    4.86
   1  -1  -5   94.34    4.88
   1   1  -5   96.29    5.49
   1   1  -5   98.51    4.86
  -1   1   5  104.52    4.92
   1   1  -5   95.68    4.86
  -1   1   5   92.27    5.47
   1  -1   5   23.33    1.22
  -1  -1  -5   24.46    1.17
  -1  -1  -5   24.20    2.23
   1  -1   5   24.27    1.77
  -1  -1  -5   23.76    1.25
   1   1   5   22.61    1.22
   1   1   5   21.96    1.30
  -1   1  -5   21.79    1.18
  -1   1  -5   24.40    1.25
   1   1   5   22.04    1.95
  -1   1  -5   20.50    1.75
  -3  -1  -5   39.75    1.93
   3  -1   5   34.06    2.72
   3  -1   5   35.94    1.97
   3  -1   5   36.46    1.86
   3  -1   5   38.15    1.87
  -3  -1  -5   35.92    3.44
   3   1   5   32.29    3.05
  -3   1  -5   33.48    2.01
  -3   1  -5   38.27    1.86
   3   1   5   37.03    1.97
   3   1   5   38.31    2.06
   5  -1   5   32.36    1.63
   5  -1   5   28.79    1.65
  -5  -1  -5   32.67    1.91
   5  -1   5   33.28    3.12
  -5  -1  -5   28.82    1.69
   5  -1   5   33.76    1.84
   5   1   5   32.66    1.82
   5   1   5   32.33    1.69
   5   1   5   30.70    1.91
   5   1   5   30.39    3.73
  -5   1  -5   28.37    1.63
  -5   1  -5   31.49    1.91
  -7  -1  -5   13.13    0.91
   7  -1   5   13.66    1.18
   7  -1   5   11.55    0.86
   7  -1   5   14.78    3.09
   7  -1   5   12.55    0.80
   7  -1   5   14.29    1.15
   7   1   5   13.28    1.12
   7   1   5   18.27    3.42
   7   1   5   11.73    0.87
   7   1   5   12.22    1.31
  -7   1  -5   11.92    0.81
   9  -1   5   -1.09    0.73
   9  -1   5    4.54    3.53
   9  -1   5    1.48    0.64
   9  -1   5    0.58    0.40
   9  -1   5   -0.29    0.38
   9  -1   5    2.59    3.96
   9   1   5    0.07    4.15
   9   1   5    0.35    0.43
  -9   1  -5    0.52    0.35
   9   1   5    1.08    0.58
   9   1   5   -0.21    0.82
  11  -1   5   10.44    7.73
  11  -1   5    2.66    1.90
  11  -1   5    6.01    1.26
  11  -1   5    7.80    0.97
  11   1   5    7.10    1.32
 -11   1  -5    7.44    0.89
  11   1   5    8.25    1.04
  11   1   5    7.28    1.79
  12  -2  -5   10.37    1.82
  12  -2  -5   11.22    1.75
  12   2  -5   14.10    1.69
  10  -2  -5    1.91    0.90
  10  -2  -5   -2.28    5.22
  10  -2  -5   -0.03    0.58
  10   2  -5   -0.67    0.52
  10   2  -5    0.70    0.78
  10   2  -5    0.04    0.88
  -8  -2   5    8.71    0.87
   8  -2  -5    6.30    3.19
   8  -2  -5    9.35    0.82
   8   2  -5    7.40    0.83
   8   2  -5   -0.23    3.66
   8   2  -5    6.01    0.98
   8   2  -5    8.34    1.15
  -6  -2   5    3.15    0.47
   6  -2  -5    5.11    1.99
  -6  -2   5    4.14    0.59
  -6  -2   5    1.62    1.78
   6  -2  -5    3.77    0.43
   6   2  -5    3.91    0.66
   6   2  -5    5.17    2.42
   6   2  -5    4.17    0.52
   4  -2  -5   21.80    1.22
   4  -2  -5   20.72    2.51
  -4  -2   5   21.97    1.23
  -4  -2   5   22.89    1.35
  -4  -2   5   20.83    2.77
   4   2  -5   22.35    1.25
   4   2  -5   21.55    1.36
  -4   2   5   19.75    1.88
   4   2  -5   25.61    3.23
  -2  -2   5    6.93    1.37
  -2  -2   5    6.63    0.57
  -2  -2   5    7.72    0.45
   2  -2  -5    8.69    1.38
   2  -2  -5    6.63    0.48
   2   2  -5    7.34    1.40
   2   2  -5    6.58    0.45
  -2   2   5    8.13    1.30
  -2   2   5    6.85    0.51
   0  -2  -5    2.96    1.07
   0  -2  -5    4.80    0.32
   0  -2   5    3.59    0.91
   0  -2  -5    4.93    0.33
   0  -2   5    4.72    0.29
   0  -2   5    4.88    0.28
   0  -2  -5    4.50    0.42
   0   2  -5    4.01    0.32
   0   2   5    4.73    0.48
   0   2   5    4.87    0.33
   0   2  -5    3.70    0.80
   0   2   5    4.34    0.98
   0   2  -5    4.83    0.31
  -2  -2  -5   80.63    3.77
  -2  -2  -5   74.29    3.83
   2  -2   5   70.41    3.70
   2  -2   5   69.10    3.67
  -2  -2  -5   77.00    5.17
   2  -2   5   71.43    4.13
   2   2   5   68.78    4.82
   2   2   5   74.69    3.66
  -2   2  -5   63.20    3.67
  -2   2  -5   76.66    3.76
   2   2   5   74.11    3.72
   2   2   5   75.75    3.86
  -4  -2  -5    2.29    0.40
  -4  -2  -5    2.72    0.36
   4  -2   5    1.16    1.03
   4  -2   5    2.77    0.46
   4  -2   5    2.76    0.27
   4  -2   5    2.86    0.28
   4   2   5    2.67    0.24
  -4   2  -5    2.09    0.40
   4   2   5    3.58    0.56
   4   2   5    2.87    1.42
   4   2   5    3.16    0.41
   6  -2   5    7.31    0.62
  -6  -2  -5   12.13    1.09
   6  -2   5    7.64    1.99
  -6  -2  -5    8.91    0.75
   6  -2   5    9.17    0.66
   6  -2   5   10.49    0.93
   6   2   5    9.48    1.09
  -6   2  -5    9.95    0.59
   6   2   5   10.47    2.93
   6   2   5    9.22    0.85
   8  -2   5   12.35    3.44
   8  -2   5    8.29    0.73
   8  -2   5    8.55    1.11
   8  -2   5    7.60    0.78
  -8   2  -5    7.49    0.64
   8   2   5    6.24    3.55
   8   2   5    8.00    1.06
   8   2   5    8.76    1.47
  10  -2   5    0.07    5.07
  10  -2   5   -0.07    0.58
  10  -2   5    1.38    0.90
  10  -2   5    6.43    5.13
  10  -2   5   -0.15    1.03
  10   2   5    1.87    0.79
  10   2   5    0.01    1.31
  11  -3  -5   10.49    1.64
  11  -3  -5   10.65    1.49
  11  -3  -5   18.57    8.21
  11   3  -5   11.92    1.60
  11   3  -5   16.85    2.37
   9  -3  -5    0.78    0.50
  -9  -3   5    0.47    0.50
   9  -3  -5   -0.40    3.96
  -9  -3   5    0.27    0.60
   9   3  -5    0.62    0.53
   9   3  -5   -0.74    0.77
   9   3  -5    0.92    1.12
  -7  -3   5   23.76    1.46
   7  -3  -5   30.96    4.35
  -7  -3   5   21.57    3.99
  -7  -3   5   21.82    1.58
   7  -3  -5   22.21    1.41
   7   3  -5   22.02    1.45
   7   3  -5   23.26    1.64
   7   3  -5   26.96    1.73
   5  -3  -5   90.00    4.61
  -5  -3   5   87.84    4.79
  -5  -3   5   84.41    4.69
  -5  -3   5   87.00    6.38
   5  -3  -5   90.90    5.85
   5   3  -5   85.56    4.69
   5   3  -5  104.40    4.82
   5   3  -5   85.44    4.63
   5   3  -5   99.34    7.96
  -3  -3   5    0.70    0.18
  -3  -3   5    0.16    0.25
   3  -3  -5    0.07    0.96
  -3  -3   5    1.59    1.31
   3  -3  -5    0.75    0.20
  -3   3   5    1.38    0.77
   3   3  -5    0.46    0.17
   3   3  -5    0.25    0.26
   3   3  -5    0.31    1.32
  -3   3   5    0.53    0.22
   1  -3  -5  209.59   10.00
   1  -3  -5  199.68   10.08
  -1  -3   5  203.13    9.96
   1  -3  -5  201.09    9.97
   1  -3  -5  205.73   10.97
  -1  -3   5  193.60   11.10
  -1  -3   5  206.07   10.16
  -1   3   5  192.82   10.65
   1   3  -5  198.15   10.74
  -1   3   5  192.23   10.09
   1   3  -5  200.23   10.00
  -1  -3  -5    4.76    0.54
   1  -3   5    6.22    1.14
  -1  -3  -5    4.70    1.63
  -1  -3  -5    5.30    0.41
  -1  -3  -5    4.83    0.38
   1  -3   5    4.93    0.32
   1  -3   5    6.27    0.59
  -1   3  -5    4.98    0.39
   1   3   5    4.25    1.12
   1   3   5    4.81    0.39
   1   3   5    5.90    0.65
   1   3   5    5.18    0.37
  -1   3  -5    4.86    0.39
   3  -3   5   24.72    1.30
  -3  -3  -5   24.36    1.35
  -3  -3  -5   21.50    1.40
   3  -3   5   23.98    1.83
   3  -3   5   24.85    1.35
   3  -3   5   23.09    1.23
  -3  -3  -5   24.13    1.51
  -3  -3  -5   23.25    4.09
   3   3   5   22.28    1.27
   3   3   5   23.31    1.56
   3   3   5   20.83    2.96
  -3   3  -5   24.65    1.31
   3   3   5   23.93    1.32
  -5  -3  -5    3.58    0.66
   5  -3   5    5.27    0.43
   5  -3   5    6.10    0.67
   5  -3   5    3.44    1.40
   5  -3   5    4.41    0.45
  -5  -3  -5    5.31    0.81
  -5  -3  -5    4.78    0.56
   5   3   5    5.55    0.41
   5   3   5    4.76    1.99
   5   3   5    6.16    0.88
   5   3   5    4.66    2.32
   5   3   5    4.13    0.56
   7  -3   5  124.69    8.08
   7  -3   5  114.40    6.35
  -7  -3  -5  106.06    6.64
   7  -3   5  135.60    6.38
   7  -3   5  126.81    6.61
   7   3   5  127.97    6.34
   7   3   5  126.09    6.80
   7   3   5  134.89    9.77
   7   3   5  134.59    9.91
   7   3   5  132.60    6.55
   9  -3   5    3.81    0.57
   9  -3   5    3.32    0.84
   9  -3   5    4.27    0.89
   9  -3   5    1.79    3.21
  -9  -3  -5    3.78    0.79
   9  -3   5    4.39    0.63
   9  -3   5    1.24    4.05
   9   3   5    4.82    0.64
   9   3   5    2.34    1.26
   9   3   5    2.57    0.74
   9   3   5    5.50    5.12
  11  -3   5    6.06    7.14
  11  -3   5   -0.98    0.72
  11  -3   5    1.62    1.18
  11   3   5   -4.01    8.18
  11   3   5   -1.37    1.01
  10  -4  -5    3.78    1.26
 -10  -4   5    2.74    0.89
  10  -4  -5    4.05    0.78
  10  -4  -5   -0.27    5.33
  10   4  -5    1.43    0.95
  10   4  -5    6.43    6.34
  10   4  -5    2.65    0.77
  -8  -4   5    2.58    0.74
   8  -4  -5    1.35    0.54
   8  -4  -5    1.63    0.47
  -8  -4   5    2.98    0.59
   8   4  -5    8.34    5.35
   8   4  -5    1.82    0.45
   8   4  -5    3.23    0.72
   8   4  -5    0.12    0.81
   6  -4  -5   20.21    1.30
   6  -4  -5   19.93    1.22
  -6  -4   5   22.01    3.99
  -6  -4   5   19.09    1.57
  -6  -4   5   21.25    1.32
   6  -4  -5   19.72    3.47
   6   4  -5   16.27    4.30
   6   4  -5   20.05    1.64
   6   4  -5   20.54    1.27
   6   4  -5   18.76    1.39
  -4  -4   5   47.25    2.51
  -4  -4   5   43.91    2.71
   4  -4  -5   46.30    2.52
  -4  -4   5   38.77    4.45
   4  -4  -5   55.62    3.88
   4  -4  -5   49.46    2.52
   4   4  -5   46.28    4.82
  -4   4   5   45.80    2.50
   4   4  -5   45.99    2.49
   4   4  -5   46.52    2.49
  -2  -4   5   13.47    2.48
  -2  -4   5   16.20    1.25
   2  -4  -5   16.62    0.96
   2  -4  -5   17.59    1.02
  -2  -4   5   16.93    1.00
   2  -4  -5   17.61    1.14
   2  -4  -5   20.37    2.68
   2   4  -5   16.14    1.01
   2   4  -5   17.39    2.74
  -2   4   5   16.59    1.15
   2   4  -5   19.94    2.88
  -2   4   5   15.43    1.74
  -2   4   5   15.71    1.86
   0  -4  -5   48.83    2.52
   0  -4  -5   46.57    4.38
   0  -4  -5   48.12    2.72
   0  -4   5   45.26    3.95
   0  -4  -5   49.78    2.56
   0  -4   5   46.95    2.76
   0  -4   5   49.74    2.51
   0   4  -5   48.03    2.57
   0   4   5   54.59    2.57
   0   4  -5   46.77    2.95
   0   4   5   46.73    2.75
   0   4   5   49.23    3.67
   0   4  -5   48.55    3.17
   0   4   5   51.15    3.52
  -2  -4  -5   -1.19    2.11
  -2  -4  -5    0.27    0.22
  -2  -4  -5    0.40    0.34
   2  -4   5    0.23    0.15
   2  -4   5    0.20    0.17
   2  -4   5    0.82    1.07
   2  -4   5   -0.13    0.26
  -2   4  -5   -0.18    0.18
   2   4   5    0.77    1.31
   2   4   5    0.34    0.46
   2   4   5    0.18    0.13
   2   4   5    0.09    1.20
  -4  -4  -5    5.49    0.82
   4  -4   5    5.34    0.76
   4  -4   5    6.55    0.44
   4  -4   5    4.90    1.37
  -4  -4  -5    7.28    0.65
   4  -4   5    7.19    0.55
  -4  -4  -5    6.03    0.75
   4  -4   5    6.68    0.66
   4   4   5    6.51    0.51
   4   4   5    6.97    2.41
   4   4   5    9.64    2.34
   4   4   5    6.01    1.14
   4   4   5    5.98    0.55
  -6  -4  -5    1.70    0.51
   6  -4   5    1.69    0.33
   6  -4   5    2.22    0.52
   6  -4   5    2.57    1.43
  -6  -4  -5    1.99    0.64
   6  -4   5    1.93    0.36
   6   4   5    0.84    0.78
   6   4   5    0.55    2.64
   6   4   5    1.46    0.39
   6   4   5    1.43    0.31
   8  -4   5    0.06    0.61
   8  -4   5   -0.06    0.42
  -8  -4  -5    1.66    0.65
   8  -4   5    0.08    0.44
   8  -4   5    2.28    2.97
   8   4   5    0.35    1.16
   8   4   5    0.17    0.34
   8   4   5   -1.87    3.60
  10  -4   5    5.21    1.35
  10  -4   5    3.37    5.29
  10  -4   5    5.71    1.22
  10  -4   5    6.82    0.92
  10   4   5    6.89    0.96
  10   4   5    6.55    6.67
  10   4   5    9.61    1.24
   9  -5  -5    1.12    0.60
   9  -5  -5   -2.06    4.29
   9   5  -5    1.22    1.48
   9   5  -5    1.22    5.87
   9   5  -5    1.11    1.04
  -7  -5   5    5.33    3.00
   7  -5  -5    6.22    2.84
  -7  -5   5    4.52    0.66
  -7  -5   5    3.29    0.79
   7  -5  -5    3.38    0.52
   7  -5  -5    5.53    0.89
   7   5  -5    2.69    1.01
   7   5  -5    7.38    3.88
   7   5  -5   -0.91    4.59
   7   5  -5    3.75    0.66
  -5  -5   5   17.97    1.22
   5  -5  -5   22.68    2.87
  -5  -5   5   18.07    1.61
   5  -5  -5   16.53    1.10
   5  -5  -5   17.21    1.25
  -5  -5   5   19.84    3.71
   5   5  -5   20.25    4.13
   5   5  -5   16.48    1.17
   5   5  -5   20.79    4.09
   5   5  -5   18.14    1.13
   5   5  -5   20.55    1.73
  -3  -5   5   13.61    2.90
   3  -5  -5   16.44    1.07
   3  -5  -5   15.33    1.23
  -3  -5   5   15.04    1.37
   3  -5  -5   19.89    2.82
  -3   5   5   18.13    1.24
   3   5  -5   17.70    3.03
   3   5  -5   15.33    3.01
   3   5  -5   16.65    1.08
   1  -5  -5   88.65    4.88
   1  -5  -5   86.03    6.50
  -1  -5   5   93.82    5.00
   1  -5  -5   92.26    4.63
   1  -5  -5   95.57    4.71
  -1  -5   5   93.44    6.66
  -1  -5   5   93.40    4.66
   1   5  -5   87.10    5.77
  -1   5   5   86.12    5.65
   1   5  -5   93.56    5.65
  -1   5   5   86.53    5.46
  -1   5   5   89.52    4.90
   1   5  -5   97.06    4.72
  -1  -5  -5    1.99    2.45
   1  -5   5    4.84    1.95
  -1  -5  -5    4.42    0.69
  -1  -5  -5    3.36    0.46
  -1  -5  -5    3.59    0.50
   1  -5   5    4.42    0.69
  -1   5  -5    4.39    0.47
   1   5   5    6.46    1.66
   1   5   5    7.00    2.04
   1   5   5    2.76    0.64
   1   5   5    4.20    0.49
  -3  -5  -5   21.90    1.61
   3  -5   5   24.50    2.99
   3  -5   5   21.58    1.29
   3  -5   5   20.61    1.22
  -3  -5  -5   21.28    1.40
  -3  -5  -5   21.66    4.30
   3  -5   5   23.49    1.59
  -3   5  -5   20.11    1.30
   3   5   5   27.69    3.97
   3   5   5   14.85    2.89
   3   5   5   21.72    1.22
   3   5   5   21.30    1.26
   5  -5   5   26.07    1.79
  -5  -5  -5   24.00    1.84
  -5  -5  -5   25.11    1.78
   5  -5   5   23.89    1.49
   5  -5   5   24.36    1.40
   5  -5   5   26.16    1.59
   5   5   5   26.01    1.48
   5   5   5   23.93    4.31
   5   5   5   21.81    2.07
   5   5   5   26.60    1.47
   7  -5   5    8.33    1.29
   7  -5   5    5.82    0.87
   7  -5   5    7.89    0.83
  -7  -5  -5    6.81    0.91
   7  -5   5    6.51    0.76
  -7  -5  -5    7.11    1.23
   7   5   5    9.19    5.96
   7   5   5    6.31    0.72
   7   5   5    7.63    4.19
   7   5   5    6.05    1.35
   9  -5   5   10.09    1.24
   9  -5   5    7.35    1.14
   9  -5   5   10.06    1.73
   9  -5   5    8.76    1.66
   9   5   5    3.27    6.39
   9   5   5    8.41    1.31
   9   5   5    7.40    0.99
 -10  -6   5    3.75    1.41
  10  -6  -5    3.06    1.68
  10   6  -5    1.89    1.06
   8  -6  -5   40.00    5.44
  -8  -6   5   38.11    2.97
   8  -6  -5   43.03    2.45
   8   6  -5   43.55    2.49
   8   6  -5   36.60    7.31
   8   6  -5   37.67    2.44
  -6  -6   5    8.82    3.91
   6  -6  -5   13.14    1.25
  -6  -6   5   14.78    1.31
  -6  -6   5   11.92    1.64
   6  -6  -5   15.61    1.25
   6  -6  -5   17.10    1.09
   6   6  -5   21.49    5.67
   6   6  -5   17.11    4.41
   6   6  -5   14.38    1.01
   6   6  -5   14.06    1.17
  -4  -6   5    1.08    0.65
   4  -6  -5   -0.81    0.49
  -4  -6   5    0.16    2.82
   4  -6  -5    0.24    2.48
  -4  -6   5   -0.16    0.40
   4   6  -5    0.10    0.79
   4   6  -5    2.15    2.56
   4   6  -5   -1.88    3.22
  -4   6   5    0.48    0.46
   2  -6  -5   -1.82    4.40
  -2  -6   5    0.99    2.13
   2  -6  -5    0.31    0.53
  -2  -6   5    1.71    0.39
   2  -6  -5    1.62    0.40
  -2  -6   5    0.67    0.56
   2  -6  -5    1.51    0.26
   2   6  -5    0.91    0.33
   2   6  -5    0.75    1.98
  -2   6   5    0.98    0.56
   2   6  -5   -1.44    1.88
   0  -6   5   18.34    3.48
   0  -6  -5   20.52    1.29
   0  -6   5   22.41    1.71
   0  -6  -5   20.54    4.37
   0  -6  -5   21.49    1.69
   0  -6   5   21.13    1.25
   0  -6  -5   20.60    1.21
   0   6   5   16.49    2.86
   0   6   5   21.49    1.32
   0   6   5   19.00    1.72
   0   6  -5   19.61    1.30
   0   6   5   19.62    3.52
  -2  -6  -5    6.88    1.13
  -2  -6  -5   11.43    4.22
   2  -6   5    7.19    1.12
   2  -6   5    8.53    2.56
  -2  -6  -5    5.39    0.73
   2  -6   5    6.58    0.69
   2   6   5    4.79    2.18
   2   6   5    8.05    2.96
   2   6   5    6.88    0.68
  -2   6  -5    5.73    0.73
   4  -6   5    7.10    1.29
   4  -6   5    7.37    2.28
   4  -6   5    8.20    0.83
  -4  -6  -5   10.22    1.29
   4  -6   5    6.45    0.71
  -4  -6  -5    9.06    1.11
   4  -6   5    7.77    0.60
   4   6   5    9.28    0.78
   4   6   5    8.67    0.66
   4   6   5    5.01    3.06
   6  -6   5    5.47    0.93
   6  -6   5    4.83    0.62
   6  -6   5    2.28    0.94
  -6  -6  -5    3.01    0.94
   6  -6   5    3.83    0.60
  -6  -6  -5    4.32    0.91
   6   6   5    4.33    0.59
   6   6   5    3.42    3.76
   6   6   5    5.17    0.68
   6   6   5    0.34    5.38
   8  -6   5    0.86    0.88
   8  -6   5   -0.04    0.56
   8  -6   5    0.95    1.33
   8   6   5    0.04    0.55
   8   6   5   -5.69    5.48
   8   6   5    0.07    0.58
  -7  -7   5   15.98    2.05
   7  -7  -5   12.56    1.53
   7  -7  -5   13.90    1.28
   7  -7  -5   18.98    5.10
   7   7  -5   14.36    1.39
   7   7  -5   13.59    1.00
   7   7  -5   22.90    6.35
   5  -7  -5   26.64    4.83
   5  -7  -5   28.62    1.71
  -5  -7   5   26.94    1.93
  -5  -7   5   30.38    2.54
  -5  -7   5   21.34    4.63
   5  -7  -5   28.14    2.08
   5   7  -5   27.99    1.86
   5   7  -5   24.98    5.42
  -3  -7   5    6.60    1.18
  -3  -7   5    6.60    0.96
   3  -7  -5    7.11    0.94
   3  -7  -5    6.25    3.76
   3  -7  -5    8.22    1.12
   3  -7  -5    5.87    0.86
   3   7  -5    8.59    3.08
   3   7  -5    6.27    0.81
  -3   7   5    5.60    0.99
   3   7  -5    2.77    3.36
   1  -7  -5    8.19    4.37
  -1  -7   5    6.49    1.05
  -1  -7   5    8.26    0.80
  -1  -7   5   14.37    3.75
   1  -7  -5    6.75    0.81
   1  -7  -5    7.26    1.33
   1  -7  -5    5.91    0.66
   1   7  -5    6.86    0.80
  -1  -7  -5    7.35    0.92
  -1  -7  -5    8.25    1.42
  -1  -7  -5    8.90    0.90
   1  -7   5    9.26    3.39
  -1  -7  -5   15.32    5.65
   1  -7   5    8.94    0.82
   1  -7   5    9.29    1.57
  -1   7  -5    9.49    0.95
   1   7   5   11.96    2.59
   1   7   5   10.00    1.42
   1   7   5    6.95    3.32
   3  -7   5   17.07    3.40
   3  -7   5   15.88    1.84
  -3  -7  -5   13.46    1.33
   3  -7   5   15.42    1.22
  -3  -7  -5   15.16    1.38
  -3  -7  -5   15.10    1.63
   3   7   5   14.98    1.29
   3   7   5   20.61    4.81
   3   7   5   12.21    2.13
  -3   7  -5   15.31    1.21
   3   7   5   15.20    3.59
  -5  -7  -5    2.38    0.89
   5  -7   5    1.24    0.39
   5  -7   5    1.93    1.03
  -5  -7  -5    1.79    0.89
   5  -7   5    1.62    0.45
   5   7   5   13.85    5.97
   5   7   5    1.78    0.57
   5   7   5    2.25    0.41
   5   7   5    2.71    4.04
   7  -7   5    1.79    0.75
   7  -7   5    1.06    0.61
   7  -7   5   -0.22    1.35
  -7  -7  -5    0.06    0.99
   7   7   5    0.61    0.51
   7   7   5    0.33    0.62
   7   7   5    5.87    5.66
   6  -8  -5    0.44    1.05
  -6  -8   5    3.75    1.33
   6  -8  -5    1.88    0.69
   6   8  -5   -2.24    5.57
   6   8  -5    3.66    0.89
  -4  -8   5    1.87    1.13
   4  -8  -5   -2.49    5.56
   4  -8  -5    2.06    0.48
  -4  -8   5    8.93    4.31
   4  -8  -5    2.93    1.54
   4   8  -5   -5.87    4.72
   4   8  -5    0.72    0.56
   4   8  -5    2.89    4.09
  -2  -8   5    0.99    0.63
   2  -8  -5    1.69    0.46
   2  -8  -5    6.33    5.90
   2  -8  -5    1.79    0.98
  -2  -8   5    1.72    1.04
  -2  -8   5    6.64    4.75
   2   8  -5    1.95    0.55
  -2   8   5    2.33    1.13
   0  -8  -5    6.67    1.16
   0  -8   5    3.68    1.17
   0  -8   5    5.34    0.72
   0  -8   5   11.02    4.33
   0  -8  -5    4.54    0.68
   0  -8  -5    0.60    6.91
   0   8   5    3.17    1.42
   0   8   5    5.95    0.79
   0   8  -5    5.25    0.79
   2  -8   5   32.25    1.98
  -2  -8  -5   26.36    2.59
   2  -8   5   40.01    5.44
   2  -8   5   30.75    2.74
  -2  -8  -5   32.79    2.13
  -2   8  -5   35.02    2.19
   2   8   5   40.76    6.19
   2   8   5   33.96    5.58
   2   8   5   30.89    2.08
   4  -8   5    2.88    1.32
  -4  -8  -5    2.51    0.93
   4  -8   5    3.06    0.51
  -4  -8  -5    4.62    1.30
   4  -8   5    1.71    3.66
   4   8   5   21.97    7.30
   4   8   5    3.72    4.14
   4   8   5    2.73    0.71
   6  -8   5    0.72    0.65
  -6  -8  -5   -2.17    1.19
   6  -8   5   -2.09    1.52
   6   8   5    0.98    0.70
   6   8   5   -0.39    0.81
  -3  -9   5   14.33    2.18
   3  -9  -5   13.01    1.82
   3   9  -5   18.91    1.66
  -1  -9   5    4.06    5.26
   1  -9  -5    0.38    1.32
  -1  -9   5    3.39    1.40
   1   9  -5    3.36    0.94
  -1  -9  -5    7.76    1.60
   1  -9   5    6.94    1.02
   1  -9   5    4.42    1.56
  -1   9  -5    7.12    1.04
   1   9   5    7.07    1.07
  -3  -9  -5    2.44    1.44
   3   9   5    2.49    0.90
   3   9   5    1.65    4.59
  12   0  -6   22.68    2.04
  12   0  -6   21.22    2.91
  10   0  -6    5.87    1.12
  10   0  -6    6.44    5.96
 -10   0   6    4.75    0.71
  10   0  -6    6.38    0.98
   8   0  -6   39.64    2.30
   8   0  -6   41.37    6.08
   6   0  -6   38.92    4.52
  -6   0   6   36.46    3.56
   6   0  -6   38.35    2.09
   4   0  -6   11.39    0.71
  -4   0   6   10.48    0.67
  -4   0   6   11.61    0.68
   4   0  -6   14.29    2.41
  -4   0   6   10.66    1.90
  -2   0   6   31.75    2.65
   2   0  -6   32.81    2.62
  -2   0   6   34.51    1.70
   2   0  -6   32.43    1.71
   0   0   6  434.55   23.31
   0   0   6  415.20   22.68
   0   0  -6  528.54   23.46
  -2   0  -6  207.99   10.89
   2   0   6  185.59   10.76
  -2   0  -6  188.09    9.91
   2   0   6  217.86    9.99
   4   0   6   25.93    2.95
   4   0   6   28.14    1.36
  -4   0  -6   25.48    1.36
  -4   0  -6   22.67    1.54
   4   0   6   24.46    1.47
   6   0   6   15.03    0.91
   6   0   6   14.86    1.17
  -6   0  -6   12.70    0.89
   6   0   6   10.42    2.58
   6   0   6   15.43    1.14
  -6   0  -6   15.91    1.27
   8   0   6   25.51    1.55
   8   0   6   29.36    1.88
  -8   0  -6   24.35    1.50
   8   0   6   23.57    4.69
   8   0   6   23.68    1.99
 -10   0  -6   10.54    1.08
  10   0   6   10.67    1.15
  10   0   6    9.54    5.57
  10   0   6   12.04    1.00
  10   0   6    7.92    5.87
  10   0   6   10.41    1.57
  10   0   6   11.44    2.04
  11  -1  -6   19.96    2.45
  11  -1  -6   13.33   10.59
  11  -1  -6   24.25    1.86
  11   1  -6   22.75    1.83
  11   1  -6   26.97    2.55
   9  -1  -6   -0.63    0.39
   9  -1  -6   -0.16    3.89
   9   1  -6   -3.06    4.32
  -9   1   6   -0.69    0.33
   9   1  -6    1.12    0.48
   9   1  -6   -0.05    1.13
  -7  -1   6   20.75    1.31
  -7  -1   6   23.13    1.32
   7  -1  -6   22.41    1.36
  -7  -1   6   22.93    3.10
  -7   1   6   22.63    2.48
  -7   1   6   21.44    1.27
   7   1  -6   20.79    1.36
   7   1  -6   22.14    4.20
   5  -1  -6    0.72    0.18
   5  -1  -6    2.29    1.62
  -5  -1   6    0.76    0.21
  -5  -1   6    1.52    1.32
  -5  -1   6    0.54    0.24
  -5   1   6    0.35    0.15
   5   1  -6    0.85    0.23
  -5   1   6    1.47    1.12
   5   1  -6    1.36    1.69
   3  -1  -6   -0.03    0.90
  -3  -1   6    0.12    0.93
  -3  -1   6   -0.10    0.13
   3  -1  -6   -0.11    0.08
  -3  -1   6   -0.15    0.08
  -3   1   6   -0.23    0.82
   3   1  -6    0.98    0.92
  -3   1   6    0.08    0.09
   3   1  -6    0.00    0.11
   1  -1  -6    7.65    1.39
   1  -1  -6    7.43    0.46
  -1  -1   6    9.45    1.57
  -1  -1   6    7.39    0.41
  -1   1   6    6.61    1.21
   1   1  -6    6.84    0.42
   1   1  -6    8.12    1.31
   1   1  -6    7.24    0.43
  -1  -1  -6   84.29    4.13
  -1  -1  -6   77.88    5.08
   1  -1   6   71.64    4.66
   1  -1   6   84.23    4.10
  -1  -1  -6   82.52    4.04
  -1   1  -6   83.10    4.06
   1   1   6   81.12    4.94
   1   1   6   81.02    4.19
  -1   1  -6   79.61    4.72
  -1   1  -6   86.47    4.13
   1   1   6   78.46    4.10
  -3  -1  -6   15.34    1.04
  -3  -1  -6   17.89    0.93
   3  -1   6   15.61    0.85
   3  -1   6   14.20    1.93
  -3  -1  -6   16.41    2.77
   3  -1   6   16.60    0.85
   3  -1   6   17.98    0.99
   3   1   6   14.88    0.96
  -3   1  -6   17.20    1.05
   3   1   6   16.52    1.09
  -3   1  -6   15.57    0.85
   3   1   6   14.54    2.19
  -5  -1  -6    6.27    0.90
   5  -1   6    4.90    1.67
   5  -1   6    6.84    0.68
   5  -1   6    6.27    0.41
   5  -1   6    6.28    0.47
  -5  -1  -6    7.12    0.53
   5   1   6    7.12    0.87
   5   1   6    5.18    0.61
  -5   1  -6    4.50    0.75
   5   1   6    6.18    2.06
  -5   1  -6    6.06    0.43
   7  -1   6    0.06    0.40
  -7  -1  -6   -0.44    0.28
   7  -1   6   -0.32    0.23
   7  -1   6   -2.76    2.46
   7  -1   6    0.42    0.50
   7  -1   6    0.12    0.19
   7   1   6   -0.24    0.35
  -7   1  -6    0.09    0.19
   7   1   6    0.99    0.62
   7   1   6   -1.12    2.29
   7   1   6   -0.01    0.29
   9  -1   6    1.03    0.38
   9  -1   6    0.78    0.45
   9  -1   6    0.34    0.87
   9  -1   6    0.35    0.55
   9  -1   6   -2.74    4.23
  -9  -1  -6    0.24    0.68
   9  -1   6    4.76    3.11
   9   1   6   -0.13    0.45
  -9   1  -6    0.92    0.37
   9   1   6    0.96    0.95
   9   1   6    0.66    4.51
   9   1   6    0.50    0.68
   9   1   6    2.39    4.60
  11  -1   6    1.52    0.85
  11  -1   6    1.79    7.74
  11  -1   6    0.22    1.14
  11   1   6    8.44    7.28
  11   1   6    1.81    1.00
  11   1   6    2.37    1.67
 -11   1  -6    3.22    0.97
  12  -2  -6   16.81    1.86
  12  -2  -6   18.14    2.80
  12   2  -6   14.03    1.84
  12   2  -6   17.09    2.90
  10  -2  -6    4.00    0.73
  10  -2  -6   14.12    5.84
  10   2  -6    2.87    0.71
  10   2  -6    2.09    0.97
  -8  -2   6   26.71    4.27
   8  -2  -6   28.17    4.59
   8  -2  -6   26.95    1.74
  -8  -2   6   30.38    1.81
   8   2  -6   28.68    1.80
   8   2  -6   37.86    6.99
   8   2  -6   28.98    1.86
   8   2  -6   30.08    2.07
   6  -2  -6    2.05    0.34
   6  -2  -6    0.01    1.86
  -6  -2   6    3.90    1.70
  -6  -2   6    2.19    0.45
  -6  -2   6    2.93    0.44
   6   2  -6    2.38    0.40
  -6   2   6    2.37    0.92
   6   2  -6    6.37    2.76
   6   2  -6    3.28    0.62
   4  -2  -6    3.64    0.34
  -4  -2   6    3.53    1.51
  -4  -2   6    2.60    0.34
  -4  -2   6    3.92    0.51
   4  -2  -6    2.29    1.38
   4   2  -6    3.98    1.77
   4   2  -6    2.87    0.37
  -4   2   6    3.05    1.17
  -2  -2   6  104.02    5.00
  -2  -2   6   95.67    5.13
  -2  -2   6   94.47    6.19
   2  -2  -6  101.05    5.86
  -2   2   6  101.38    5.06
  -2   2   6   85.43    5.74
   2   2  -6  106.35    6.14
   2   2  -6  106.93    5.01
   0  -2   6    2.78    0.21
   0  -2  -6    2.61    0.25
   0  -2   6    2.44    0.18
   0  -2  -6    2.01    1.13
   0  -2   6    3.17    0.93
   0  -2  -6    2.55    0.25
   0   2  -6    2.66    0.79
   0   2  -6    2.67    0.23
   0   2   6    2.67    0.25
   0   2   6    2.41    0.42
   0   2   6    3.39    0.98
   0   2  -6    2.66    0.25
   2  -2   6  118.88    6.13
  -2  -2  -6  115.95    6.22
   2  -2   6  119.01    6.17
  -2  -2  -6  128.31    7.75
   2  -2   6  118.27    6.72
   2   2   6  124.65    6.12
  -2   2  -6  122.32    6.14
   2   2   6  130.03    6.34
   2   2   6  130.12    6.19
   2   2   6  122.51    7.41
  -2   2  -6  123.18    6.23
   4  -2   6   15.02    1.06
   4  -2   6   16.15    0.91
  -4  -2  -6   13.45    2.80
   4  -2   6   14.18    2.12
  -4  -2  -6   18.07    1.18
   4  -2   6   16.65    0.90
  -4  -2  -6   17.08    1.00
   4   2   6   16.70    0.89
   4   2   6   15.48    2.80
   4   2   6   17.65    1.28
   4   2   6   17.00    1.04
  -4   2  -6   15.99    1.14
   6  -2   6   43.65    2.23
   6  -2   6   37.44    2.44
  -6  -2  -6   40.11    2.57
  -6  -2  -6   42.54    2.34
   6  -2   6   43.98    2.25
   6  -2   6   40.47    4.22
   6   2   6   46.73    2.67
   6   2   6   40.23    5.00
   6   2   6   43.61    2.43
   6   2   6   43.90    2.20
   8  -2   6   -0.03    3.10
   8  -2   6    0.76    0.64
   8  -2   6    0.67    0.36
   8   2   6    0.15    3.69
   8   2   6    0.65    0.87
   8   2   6    0.59    0.52
   8   2   6    5.23    3.89
  10  -2   6   -0.98    5.43
  10  -2   6    1.52    1.13
  10  -2   6   -0.42    0.76
  10  -2   6    0.74    0.51
  10  -2   6    3.27    5.26
  10   2   6   -1.08    0.75
  10   2   6   -0.93    1.45
  10   2   6   -4.53    5.71
  11  -3  -6   16.41    7.93
  11   3  -6    3.92    1.23
   9  -3  -6    1.75    4.19
  -9  -3   6    0.98    0.58
   9  -3  -6    0.81    0.52
   9   3  -6    0.18    0.42
   9   3  -6    1.37    0.83
   9   3  -6    5.65    5.66
  -7  -3   6    0.07    0.32
   7  -3  -6    0.67    2.47
  -7  -3   6   -0.42    2.00
  -7  -3   6    0.58    0.41
   7  -3  -6    0.85    0.28
   7   3  -6   -0.13    0.32
   7   3  -6   -0.55    0.42
   7   3  -6    0.70    0.61
  -5  -3   6    1.62    0.53
   5  -3  -6    1.48    1.60
  -5  -3   6    1.35    0.43
  -5  -3   6    2.79    1.95
   5  -3  -6    1.75    0.28
   5   3  -6    1.60    0.30
   5   3  -6    1.99    2.22
   5   3  -6    0.91    0.40
  -3  -3   6    4.65    0.40
   3  -3  -6    4.59    0.45
   3  -3  -6    4.76    1.34
   3  -3  -6    3.71    0.42
  -3  -3   6    6.31    1.86
  -3  -3   6    5.44    0.63
   3   3  -6    6.31    1.94
   3   3  -6    4.56    0.41
  -3   3   6    4.81    0.48
  -3   3   6    5.43    1.27
   1  -3  -6    2.17    0.24
  -1  -3   6    1.15    0.27
   1  -3  -6    0.87    1.13
  -1  -3   6    0.03    1.14
   1  -3  -6    1.55    0.32
  -1  -3   6    1.72    0.22
   1  -3  -6    1.30    0.22
   1   3  -6    1.50    0.96
   1   3  -6    1.78    0.18
  -1   3   6    2.01    0.91
   1   3  -6    1.48    0.25
  -1   3   6    2.03    0.39
   1  -3   6   13.69    0.71
  -1  -3  -6   13.60    0.78
   1  -3   6   13.63    1.94
  -1  -3  -6   14.20    0.96
  -1  -3  -6   12.30    2.18
   1  -3   6   14.74    0.74
  -1  -3  -6   13.19    0.83
   1   3   6   11.09    2.04
  -1   3  -6   13.57    0.79
  -1   3  -6   12.49    0.80
   1   3   6   13.43    1.04
   1   3   6   13.04    0.78
   1   3   6   12.93    0.78
  -3  -3  -6    1.88    0.40
  -3  -3  -6    1.92    0.37
  -3  -3  -6    4.82    2.26
   3  -3   6    1.66    0.27
   3  -3   6    1.53    0.26
  -3  -3  -6    1.37    0.27
   3  -3   6    0.95    0.85
   3   3   6    1.54    0.46
   3   3   6    1.69    0.29
   3   3   6    0.45    1.21
   3   3   6    1.68    0.24
  -3   3  -6    1.65    0.34
   5  -3   6    0.80    0.36
   5  -3   6    0.59    0.21
   5  -3   6    0.40    0.20
  -5  -3  -6    0.88    0.45
  -5  -3  -6    0.06    0.25
   5  -3   6   -0.98    1.24
   5   3   6   -0.34    0.49
   5   3   6   -1.01    1.90
   5   3   6   -0.04    0.25
   5   3   6    0.45    0.18
   7  -3   6   21.88    1.23
   7  -3   6   17.40    1.46
  -7  -3  -6   15.62    1.69
   7  -3   6   20.80    3.16
   7  -3   6   21.16    1.22
   7   3   6   22.45    1.50
   7   3   6   20.91    1.17
   7   3   6   19.72    4.30
   7   3   6   18.50    1.88
   9  -3   6    9.39    0.98
   9  -3   6    5.61    4.35
  -9  -3  -6   10.43    1.35
   9  -3   6    8.24    0.95
   9  -3   6    9.35    1.46
   9   3   6   11.02    1.39
   9   3   6   10.16    0.82
   9   3   6    6.47    5.13
   9   3   6   12.64    2.37
  11  -3   6   -1.02    0.77
  11  -3   6    0.76    1.25
  11   3   6  -15.72    8.14
  11   3   6   -0.76    1.14
 -10  -4   6    1.06    0.87
  10  -4  -6    1.32    0.68
  10  -4  -6    5.48    6.03
  10   4  -6    0.06    0.73
  10   4  -6    0.88    1.00
  10   4  -6   -0.01    1.30
  -8  -4   6   -0.23    2.74
   8  -4  -6    1.82    0.59
   8  -4  -6    1.96    0.47
  -8  -4   6    1.69    0.65
   8  -4  -6    1.81    3.28
  -8  -4   6    1.48    0.56
   8   4  -6    8.38    5.39
   8   4  -6    1.19    0.52
   8   4  -6    1.82    0.71
   8   4  -6    3.08    0.94
  -6  -4   6    2.35    2.30
  -6  -4   6    2.79    0.69
  -6  -4   6    2.64    0.46
   6  -4  -6    7.30    2.39
   6  -4  -6    2.51    0.39
   6   4  -6    1.58    3.26
   6   4  -6    1.66    0.73
   6   4  -6    3.16    0.55
   6   4  -6    2.65    0.42
   4  -4  -6   -0.30    0.24
  -4  -4   6   -1.04    1.82
   4  -4  -6   -1.83    1.43
  -4  -4   6    0.20    0.23
  -4  -4   6   -0.03    0.34
   4  -4  -6    0.14    0.27
   4   4  -6    0.22    0.24
  -4   4   6   -0.14    0.25
   4   4  -6    0.31    0.22
   4   4  -6    0.18    0.51
   2  -4  -6    1.12    1.43
  -2  -4   6   -0.21    0.17
   2  -4  -6   -0.02    0.14
  -2  -4   6    0.01    0.27
   2  -4  -6    0.27    0.19
  -2  -4   6    0.57    1.55
   2  -4  -6    0.31    0.29
   2   4  -6    0.25    0.17
  -2   4   6    0.52    1.05
  -2   4   6    0.13    0.32
   2   4  -6    0.26    1.48
   0  -4   6    3.39    1.64
   0  -4   6    3.68    0.32
   0  -4   6    3.32    0.58
   0  -4  -6    3.41    0.35
   0  -4  -6    3.37    0.60
   0  -4  -6    2.57    1.77
   0  -4  -6    3.22    0.36
   0   4  -6    3.76    0.90
   0   4   6    3.29    0.57
   0   4   6    2.87    1.26
   0   4  -6    3.49    1.06
   0   4  -6    3.60    0.39
   2  -4   6   27.94    1.93
   2  -4   6   34.74    1.72
  -2  -4  -6   29.39    1.76
  -2  -4  -6   29.15    5.13
   2  -4   6   32.63    1.64
   2  -4   6   34.21    2.93
  -2  -4  -6   31.83    1.69
  -2  -4  -6   31.59    1.93
   2   4   6   30.91    3.49
   2   4   6   30.29    1.69
   2   4   6   32.50    1.69
  -2   4  -6   30.73    1.72
   2   4   6   29.57    2.23
  -4  -4  -6    2.30    0.57
   4  -4   6    2.39    0.37
  -4  -4  -6    2.47    0.42
   4  -4   6    4.48    1.17
   4  -4   6    2.74    0.29
  -4  -4  -6    3.44    3.16
  -4  -4  -6    2.19    0.52
   4  -4   6    2.19    0.37
   4   4   6    1.61    0.62
   4   4   6    3.16    2.02
   4   4   6    2.33    0.38
   4   4   6    2.65    2.06
   4   4   6    2.39    0.36
  -6  -4  -6    3.24    0.77
   6  -4   6    3.92    0.52
   6  -4   6    5.25    1.71
   6  -4   6    2.30    0.37
   6  -4   6    2.74    0.57
   6   4   6    3.28    0.51
   6   4   6    2.68    0.37
   6   4   6    3.99    1.03
  -8  -4  -6    8.00    1.20
   8  -4   6    8.45    0.89
   8  -4   6    8.04    3.18
   8  -4   6    7.24    0.81
   8  -4   6    8.62    1.32
   8   4   6    7.70    4.57
   8   4   6    4.86    1.51
   8   4   6    7.28    1.00
   8   4   6    7.35    0.73
  10  -4   6   17.13    2.05
  10  -4   6   15.19    1.41
  10   4   6   24.35    7.75
  10   4   6   11.69    1.18
  10   4   6   13.61    1.81
   9  -5  -6    3.87    0.66
  -9  -5   6    3.34    0.93
   9   5  -6    4.13    6.11
   9   5  -6    2.40    1.50
   9   5  -6    2.59    1.38
   9   5  -6    3.62    0.76
   7  -5  -6   11.87    1.12
  -7  -5   6    9.93    3.44
  -7  -5   6   11.71    1.08
  -7  -5   6    9.83    1.37
   7  -5  -6    9.51    0.91
   7   5  -6    8.66    1.11
   7   5  -6   13.73    4.75
   7   5  -6    9.22    5.29
   7   5  -6   10.38    1.90
   5  -5  -6   43.08    2.40
   5  -5  -6   44.01    2.34
  -5  -5   6   42.71    2.74
   5  -5  -6   48.34    4.66
  -5  -5   6   40.50    5.60
  -5  -5   6   39.13    2.38
   5   5  -6   43.29    2.78
   5   5  -6   41.52    2.32
   5   5  -6   43.24    2.40
   5   5  -6   49.94    6.18
   5   5  -6   39.85    6.55
   3  -5  -6   24.49    1.60
  -3  -5   6   24.00    4.27
   3  -5  -6   24.63    1.45
  -3  -5   6   25.00    1.78
   3  -5  -6   28.30    3.68
  -3  -5   6   22.85    1.49
   3   5  -6   21.52    3.79
  -3   5   6   24.00    1.59
   3   5  -6   22.68    3.51
   3   5  -6   24.11    1.44
   1  -5  -6   57.12    2.75
  -1  -5   6   53.63    5.03
   1  -5  -6   46.72    2.96
  -1  -5   6   56.45    2.76
  -1  -5   6   49.44    3.07
   1  -5  -6   56.57    2.81
   1  -5  -6   50.68    5.17
   1   5  -6   54.08    3.84
  -1   5   6   50.67    4.11
   1   5  -6   48.47    4.13
  -1   5   6   53.60    3.04
  -1   5   6   46.99    3.80
   1   5  -6   53.47    2.82
   1  -5   6   15.75    0.88
   1  -5   6   15.70    1.27
  -1  -5  -6   15.15    3.51
   1  -5   6   13.86    2.69
  -1  -5  -6   14.55    1.23
  -1  -5  -6   14.87    0.97
  -1   5  -6   14.58    0.97
   1   5   6   12.88    2.41
   1   5   6   14.09    1.33
   1   5   6   14.03    2.46
   1   5   6   15.99    0.98
   3  -5   6    1.21    0.26
   3  -5   6    1.52    0.31
   3  -5   6    0.64    1.60
  -3  -5  -6    2.11    0.41
   3  -5   6    1.15    0.54
  -3  -5  -6    1.56    0.44
  -3  -5  -6    8.65    4.34
   3  -5   6    1.17    0.20
  -3  -5  -6    1.52    0.48
   3   5   6    2.70    2.25
   3   5   6    1.45    0.32
   3   5   6    1.58    0.27
   3   5   6    2.76    2.14
  -3   5  -6    1.37    0.36
  -5  -5  -6    2.76    0.55
  -5  -5  -6    1.59    0.98
   5  -5   6    2.17    0.61
  -5  -5  -6    1.08    0.65
   5  -5   6    2.40    0.47
   5  -5   6    2.32    0.32
   5  -5   6    2.97    1.38
   5  -5   6    2.08    0.39
   5   5   6    1.89    0.37
   5   5   6    3.14    5.68
   5   5   6    2.07    0.38
   5   5   6    1.87    0.88
   7  -5   6    9.41    2.13
   7  -5   6    8.46    1.19
   7  -5   6    9.15    0.90
   7  -5   6    7.15    0.81
  -7  -5  -6    6.99    1.17
   7  -5   6    8.99    1.34
   7   5   6   10.04    0.82
   7   5   6    8.04    4.27
   7   5   6    7.74    0.96
   7   5   6    7.23    1.75
   9  -5   6   -0.05    0.99
   9  -5   6    1.19    1.12
   9  -5   6    0.14    0.62
   9  -5   6    1.22    0.69
   9   5   6    0.23    0.69
   9   5   6   -7.32    5.71
   9   5   6    1.36    0.55
  -8  -6   6    1.65    0.94
   8  -6  -6    1.13    0.58
   8   6  -6    1.45    0.64
   8   6  -6   -5.20    5.43
   8   6  -6   -0.43    0.65
   6  -6  -6   59.05    3.09
  -6  -6   6   58.71    3.60
   6  -6  -6   53.45    3.12
  -6  -6   6   55.18    3.14
   6  -6  -6   57.04    3.01
  -6  -6   6   49.93    7.28
   6   6  -6   45.36    3.64
   6   6  -6   55.42    7.76
   6   6  -6   44.41    7.30
   6   6  -6   58.83    3.11
   6   6  -6   56.27    2.93
   4  -6  -6   -0.05    0.53
  -4  -6   6   -3.55    2.92
  -4  -6   6    0.31    0.40
   4  -6  -6    2.09    2.88
   4   6  -6    0.70    0.39
   4   6  -6    1.48    3.29
  -4   6   6    0.86    0.54
   4   6  -6    1.94    2.88
  -2  -6   6    0.06    0.31
   2  -6  -6    0.43    0.25
   2  -6  -6   -2.98    2.68
   2  -6  -6   -0.11    0.49
  -2  -6   6    0.36    2.48
   2  -6  -6   -0.36    0.29
  -2  -6   6    0.44    0.59
   2   6  -6    0.20    0.29
  -2   6   6    0.93    0.58
   2   6  -6   -0.33    1.94
   2   6  -6   -3.21    1.93
   0  -6   6  113.20    5.70
   0  -6  -6  114.82    5.77
   0  -6   6  100.80    8.27
   0  -6  -6  103.07    6.00
   0  -6  -6  113.03    5.71
   0  -6  -6  114.33    9.32
   0  -6   6  119.04    6.16
   0   6  -6  112.47    5.79
   0   6   6  117.01    6.12
   0   6   6  107.08    7.41
   0   6   6  109.88    7.06
   0   6   6  114.60    5.76
   2  -6   6    7.40    1.18
  -2  -6  -6    3.48    4.17
  -2  -6  -6    7.97    1.15
   2  -6   6    9.79    2.77
  -2  -6  -6    6.78    0.83
   2   6   6    8.81    2.51
   2   6   6    7.27    0.72
  -2   6  -6    8.15    0.79
   2   6   6    7.58    3.06
   4  -6   6    2.72    0.77
   4  -6   6    5.38    0.70
  -4  -6  -6    3.47    0.73
   4  -6   6    4.86    2.49
   4  -6   6    3.33    0.53
  -4  -6  -6    4.48    0.71
  -4  -6  -6    3.68    0.76
   4  -6   6    3.85    0.45
   4   6   6    0.68    1.12
   4   6   6   10.33    5.30
   4   6   6    3.31    0.50
   4   6   6    4.40    0.64
  -6  -6  -6   15.13    1.61
   6  -6   6   13.44    1.17
   6  -6   6   11.97    0.97
  -6  -6  -6   17.18    1.82
   6  -6   6   10.34    1.08
   6   6   6   13.86    1.05
   6   6   6   11.67    1.00
   6   6   6   12.67    4.74
   8  -6   6    0.05    1.19
   8  -6   6   -0.50    0.60
   8  -6   6   -0.21    0.82
   8  -6   6    1.64    1.22
   8   6   6   -0.53    0.59
   8   6   6    0.49    0.59
   8   6   6    3.26    5.76
   7  -7  -6    0.91    0.68
   7  -7  -6    6.55    5.21
   7  -7  -6    0.74    0.61
  -7  -7   6    1.75    1.06
   7   7  -6   -2.18    5.67
   7   7  -6    1.55    0.72
   5  -7  -6    0.76    0.71
  -5  -7   6    1.44    0.94
  -5  -7   6    2.09    4.09
   5  -7  -6   -2.78    3.88
  -5  -7   6    1.52    0.66
   5  -7  -6    1.11    0.43
   5   7  -6    1.16    3.89
   5   7  -6    0.36    0.50
   3  -7  -6    4.15    3.86
   3  -7  -6    0.44    0.71
   3  -7  -6    1.61    0.37
   3  -7  -6    1.12    0.51
  -3  -7   6    1.04    0.54
  -3  -7   6    0.92    0.83
  -3  -7   6   -2.05    3.96
   3   7  -6    1.32    2.77
  -3   7   6    1.26    0.76
   3   7  -6    0.79    0.46
   3   7  -6    4.06    3.09
  -1  -7   6    0.24    0.39
  -1  -7   6    0.63    0.76
   1  -7  -6    1.12    0.36
  -1  -7   6    3.29    3.50
   1  -7  -6   -0.16    0.69
   1  -7  -6    1.59    0.46
   1  -7  -6    6.88    4.84
   1   7  -6    0.93    0.42
  -1  -7  -6    4.70    0.67
   1  -7   6    6.68    1.16
   1  -7   6   11.72    3.79
  -1  -7  -6   14.78    5.58
  -1  -7  -6    7.38    1.06
   1  -7   6    6.87    0.72
  -1  -7  -6    4.49    0.81
   1   7   6    6.85    2.47
   1   7   6    6.04    1.27
  -1   7  -6    5.40    0.85
   1   7   6    5.22    0.84
   1   7   6    4.61    5.34
   3  -7   6    2.05    0.89
  -3  -7  -6    2.33    0.66
  -3  -7  -6    1.91    0.96
  -3  -7  -6    1.12    0.84
   3  -7   6    6.06    3.39
   3   7   6    1.09    0.54
   3   7   6   -0.06    1.17
  -3   7  -6    2.83    0.60
   5  -7   6    1.11    1.01
   5  -7   6    0.69    0.39
   5  -7   6    1.35    0.61
  -5  -7  -6   -0.11    0.92
  -5  -7  -6    1.07    0.87
   5  -7   6   -1.09    3.47
   5   7   6    1.25    4.04
   5   7   6    1.65    0.43
   5   7   6    0.54    0.52
   5   7   6    3.77    7.14
   7  -7   6   -0.61    1.33
   7  -7   6    2.54    0.65
   7  -7   6    2.07    0.77
  -7  -7  -6    2.66    1.16
   7   7   6    2.19    0.61
   7   7   6    2.68    0.77
   7   7   6    3.21    6.31
  -6  -8   6    0.19    1.26
   6  -8  -6    1.94    1.07
   6  -8  -6   -0.50    0.64
   6   8  -6   -4.49    5.52
   6   8  -6    0.20    0.73
  -4  -8   6    3.24    1.31
  -4  -8   6   -4.07    4.93
   4  -8  -6    2.65    0.55
   4  -8  -6   -0.72    1.46
   4  -8  -6   13.12    6.11
   4   8  -6    0.50    5.17
   4   8  -6    2.08    0.68
   4   8  -6    4.06    4.09
   2  -8  -6    0.29    0.90
   2  -8  -6   -6.87    5.93
  -2  -8   6   -0.32    1.00
  -2  -8   6    0.93    0.66
   2  -8  -6    1.25    0.49
  -2  -8   6    5.16    4.53
   2   8  -6    0.58    0.55
  -2   8   6    1.71    1.11
   0  -8  -6   -9.40    7.16
   0  -8  -6    4.04    1.10
   0  -8   6    3.49    1.17
   0  -8   6    4.91    0.70
   0  -8  -6    4.05    0.68
   0  -8   6    0.26    4.24
   0   8   6    0.88    2.51
   0   8  -6    5.04    0.74
   0   8   6    8.47    3.25
   2  -8   6   49.23    7.75
   2  -8   6   47.11    2.67
  -2  -8  -6   46.56    3.12
   2  -8   6   44.46    3.45
  -2  -8  -6   51.26    3.37
   2   8   6   46.47    2.76
   2   8   6   54.59    8.99
  -2   8  -6   46.68    2.82
   2   8   6   40.58    6.36
   4  -8   6   15.07    2.53
   4  -8   6   10.29    0.88
  -4  -8  -6   13.82    1.89
   4  -8   6    8.85    4.56
  -4  -8  -6   10.50    1.58
   4   8   6   14.07    4.79
   4   8   6    7.51    1.21
   4   8   6   -1.57    6.82
   6  -8   6   -1.23    1.63
  -6  -8  -6    0.62    1.49
   6   8   6   -0.12    0.69
   6   8   6   -1.34    0.79
   6   8   6   -7.37    6.21
  -3  -9   6   -0.61    1.40
  -3  -9   6   -0.28    6.09
   3  -9  -6    0.19    1.29
   3   9  -6    2.49    0.89
  -1  -9   6    3.08    1.43
  -1  -9   6    5.66    1.02
   1  -9  -6    3.89    1.30
  -1  -9   6    8.74    6.28
   1   9  -6    2.53    0.89
   1  -9   6   15.72    7.44
   1  -9   6    7.69    1.80
  -1   9  -6   11.08    1.31
  -3  -9  -6    2.17    1.62
   3  -9   6    7.12    1.89
   3   9   6    3.86    5.08
   3   9   6    4.37    1.01
  12   0  -7   -1.27    1.44
  12   0  -7   -0.14    0.93
  10   0  -7    0.28    0.57
  10   0  -7    1.29    0.82
  -8   0   7   -1.44    1.69
   8   0  -7    0.26    0.38
   8   0  -7    2.19    3.37
   6   0  -7    1.51    2.45
  -6   0   7    1.15    1.47
  -4   0   7    0.06    0.13
  -4   0   7   -0.25    1.00
   4   0  -7    1.42    1.31
   4   0  -7    0.33    0.15
   2   0  -7    0.26    0.76
  -2   0   7   -0.77    0.86
   2   0  -7    0.12    0.08
   0   0  -7    0.09    0.09
   0   0   7    0.31    0.09
   0   0   7    0.33    0.67
   0   0  -7   -0.39    0.73
  -2   0  -7    0.42    1.05
   2   0   7    0.85    0.83
  -4   0  -7   -0.28    0.26
   4   0   7    0.09    1.30
   4   0   7   -0.05    0.20
  -4   0  -7    0.02    0.14
   6   0   7    0.21    0.22
   6   0   7    1.04    2.07
  -6   0  -7    0.25    0.51
   6   0   7    0.07    0.33
  -6   0  -7   -0.24    0.20
   6   0   7    0.30    0.46
   8   0   7    1.19    0.83
   8   0   7    1.12    0.58
  -8   0  -7   -0.20    0.32
   8   0   7   -0.27    0.32
  10   0   7    1.45    0.77
  10   0   7   -1.10    6.00
  10   0   7    2.06    1.23
 -10   0  -7    0.24    0.54
  10   0   7    0.61    0.58
  10   0   7   -0.45    0.40
  11  -1  -7    2.08    1.25
  11   1  -7    0.09    0.68
  11   1  -7   -1.11    1.10
   9  -1  -7    3.25    4.47
  -9  -1   7    1.38    0.75
   9  -1  -7    1.34    0.48
   9   1  -7    0.55    0.45
  -9   1   7    0.47    0.36
   9   1  -7    5.94    4.74
  -7  -1   7   -0.62    1.81
   7  -1  -7   -0.12    0.25
   7  -1  -7   -1.05    2.51
  -7  -1   7    0.38    0.28
  -7  -1   7    0.10    0.28
  -7   1   7   -0.38    1.35
   7   1  -7   -0.02    0.31
   7   1  -7   -1.48    2.60
   5  -1  -7   34.96    1.94
  -5  -1   7   36.88    1.93
  -5  -1   7   38.29    1.99
  -5  -1   7   33.87    3.72
   5  -1  -7   39.04    3.90
   5   1  -7   34.53    1.95
  -5   1   7   33.41    3.34
   5   1  -7   30.86    4.14
   3  -1  -7   10.30    0.63
  -3  -1   7   12.17    2.08
   3  -1  -7   12.17    1.97
  -3  -1   7   10.69    0.62
  -3   1   7    8.30    1.74
   3   1  -7    7.97    1.67
   3   1  -7   10.09    0.64
   1  -1  -7   18.83    2.08
   1  -1  -7   15.50    0.90
  -1  -1   7   17.28    0.86
  -1  -1   7   16.91    1.96
  -1   1   7   14.68    1.80
   1   1  -7   15.72    1.80
   1   1  -7   17.56    0.89
   1   1  -7   15.10    0.87
   1  -1   7   10.46    1.51
   1  -1   7   10.51    0.62
  -1  -1  -7   11.50    0.67
  -1  -1  -7   11.43    2.09
  -1   1  -7   11.74    1.60
  -1   1  -7    9.92    0.57
   1   1   7    9.29    1.58
  -1   1  -7    9.55    0.65
   1   1   7   10.89    0.64
  -3  -1  -7    7.64    2.01
   3  -1   7    6.54    1.51
  -3  -1  -7    6.26    0.47
   3  -1   7    6.98    0.53
   3   1   7    6.53    0.52
  -3   1  -7    5.86    1.45
  -3   1  -7    6.87    0.39
  -3   1  -7    7.10    0.62
   3   1   7    5.37    1.63
   3   1   7    7.14    0.69
   5  -1   7    0.73    0.18
   5  -1   7    0.73    0.27
  -5  -1  -7    0.24    0.22
  -5  -1  -7    0.41    0.41
   5  -1   7    0.26    1.45
   5  -1   7    0.54    0.12
   5   1   7    0.48    0.28
  -5   1  -7    0.18    0.34
   5   1   7    0.81    1.68
  -5   1  -7    0.42    0.15
   7  -1   7    9.18    0.63
   7  -1   7    8.60    1.02
   7  -1   7    8.02    3.01
  -7  -1  -7    9.27    0.82
   7  -1   7   10.58    0.76
   7  -1   7   10.54    1.26
  -7   1  -7   10.01    0.67
   7   1   7    9.62    1.01
   7   1   7   12.45    3.20
   7   1   7   11.96    1.45
   9  -1   7    9.30    0.96
  -9  -1  -7    7.36    1.07
   9  -1   7   10.93    0.79
   9  -1   7   11.99    4.76
   9  -1   7    8.94    1.33
   9   1   7   13.79    5.05
   9   1   7   10.03    1.90
  -9   1  -7    9.22    0.83
   9   1   7   20.84    4.95
   9   1   7    9.84    1.36
  11  -1   7  -14.35    7.06
  11  -1   7    2.97    1.25
  11  -1   7   -0.85    0.75
  11   1   7   -1.06    1.07
  11   1   7   -3.76    7.78
  12  -2  -7    1.31    0.99
  12  -2  -7    2.74    1.54
  12   2  -7   -0.51    1.56
  12   2  -7    1.59    1.04
  10  -2  -7    0.52    0.58
  10  -2  -7   -5.80    5.43
  10   2  -7    0.92    0.95
  10   2  -7   -0.56    0.57
   8  -2  -7   20.83    1.41
  -8  -2   7   23.00    1.48
   8  -2  -7   18.30    4.16
  -8  -2   7   20.04    3.53
   8   2  -7   22.57    1.49
   8   2  -7   22.32    5.27
   6  -2  -7    4.71    2.25
   6  -2  -7    0.97    0.26
  -6  -2   7    0.73    0.28
  -6  -2   7    0.45    1.74
  -6  -2   7    0.90    0.34
  -6   2   7    2.10    1.23
   6   2  -7   -2.41    2.42
   6   2  -7    1.34    0.32
   4  -2  -7   46.52    2.38
   4  -2  -7   42.47    3.74
  -4  -2   7   46.70    2.52
  -4  -2   7   43.70    2.37
  -4  -2   7   44.09    4.29
   4   2  -7   50.46    4.54
   4   2  -7   45.27    2.39
  -4   2   7   43.30    3.50
  -2  -2   7    0.05    0.19
   2  -2  -7    1.00    1.02
  -2  -2   7    0.01    1.06
   2   2  -7    0.28    0.12
   2   2  -7    0.31    0.99
  -2   2   7    0.35    0.20
  -2   2   7   -0.26    0.93
   0  -2  -7   68.21    4.84
   0  -2   7   73.88    3.57
   0  -2  -7   73.08    3.61
   0  -2  -7   77.41    3.58
   0  -2   7   72.07    4.62
   0   2  -7   64.35    3.58
   0   2   7   70.22    3.61
   0   2   7   70.66    3.72
   0   2   7   67.97    4.55
   0   2  -7   70.44    4.28
   0   2  -7   68.87    3.58
  -2  -2  -7   69.76    5.10
   2  -2   7   65.21    3.26
   2  -2   7   61.97    4.00
  -2  -2  -7   67.59    3.34
  -2   2  -7   64.13    3.33
  -2   2  -7   60.38    3.22
   2   2   7   64.18    3.28
   2   2   7   62.62    3.43
   2   2   7   57.40    4.51
   4  -2   7    0.44    0.27
  -4  -2  -7    0.66    0.38
  -4  -2  -7    0.70    0.23
   4  -2   7    0.34    0.13
  -4  -2  -7   -0.15    2.07
   4  -2   7    0.43    1.17
   4   2   7    0.48    0.12
   4   2   7    0.33    1.49
   4   2   7    0.66    0.59
   4   2   7    0.44    0.21
  -4   2  -7    0.21    0.32
   6  -2   7   24.95    1.60
  -6  -2  -7   20.98    1.73
   6  -2   7   23.39    1.29
   6  -2   7   30.29    3.90
   6  -2   7   22.23    1.31
  -6  -2  -7   26.81    1.46
   6   2   7   22.49    1.84
   6   2   7   23.47    1.52
   6   2   7   21.42    3.87
   6   2   7   23.62    1.25
   8  -2   7    1.60    0.35
  -8  -2  -7    0.76    0.89
   8  -2   7    0.59    0.57
   8  -2   7    1.55    0.40
   8  -2   7    2.58    3.34
   8   2   7    1.60    0.58
   8   2   7    1.37    0.28
   8   2   7    1.75    3.70
   8   2   7    6.77    3.94
  10  -2   7    0.88    0.62
  10  -2   7    2.60    1.39
  10  -2   7   -0.77    0.94
  10  -2   7    8.41    5.43
  10  -2   7   -7.82    5.28
  10   2   7    1.30    0.87
  10   2   7  -10.70    6.05
  11  -3  -7   10.52    8.21
  11  -3  -7    3.77    0.94
  11  -3  -7    2.38    1.44
  11   3  -7    2.83    1.30
  11   3  -7    5.61    1.04
   9  -3  -7    1.91    4.30
   9  -3  -7    0.16    0.47
  -9  -3   7    1.25    0.51
  -9  -3   7   -0.78    2.84
   9   3  -7   10.11    6.48
   9   3  -7   -0.04    0.51
   7  -3  -7   -2.48    3.83
  -7  -3   7    0.59    0.44
  -7  -3   7    0.26    0.36
  -7  -3   7    2.34    2.28
   7  -3  -7    0.38    0.32
   7   3  -7   -0.61    0.50
   7   3  -7    0.31    0.35
  -5  -3   7   70.97    3.73
   5  -3  -7   78.51    5.22
   5  -3  -7   67.18    3.53
  -5  -3   7   60.78    5.73
   5   3  -7   63.97    3.55
  -5   3   7   65.44    4.08
   5   3  -7   71.91    6.27
  -3  -3   7    0.77    1.59
  -3  -3   7    0.96    0.34
   3  -3  -7    1.21    1.39
  -3  -3   7    1.24    0.23
   3  -3  -7    1.11    0.24
   3   3  -7    0.89    0.21
  -3   3   7    1.23    1.15
  -3   3   7    0.99    0.28
   3   3  -7    2.31    1.46
   1  -3  -7  122.30    7.48
  -1  -3   7  128.78    7.72
   1  -3  -7  123.95    6.30
   1  -3  -7  121.48    6.20
  -1  -3   7  121.19    6.15
   1  -3  -7  131.70    6.20
  -1   3   7  109.23    7.08
  -1   3   7  129.85    6.35
   1   3  -7  120.03    6.21
   1   3  -7  121.96    6.14
   1   3  -7  123.90    7.06
   1  -3   7   79.94    4.05
  -1  -3  -7   76.64    4.25
  -1  -3  -7   78.68    4.08
   1  -3   7   83.57    5.16
  -1  -3  -7   84.50    5.89
  -1  -3  -7   88.31    4.16
  -1   3  -7   82.11    4.12
   1   3   7   81.36    4.11
  -1   3  -7   76.17    4.10
   1   3   7   81.27    4.31
   1   3   7   76.57    5.36
   3  -3   7   13.57    0.79
  -3  -3  -7   12.36    0.98
  -3  -3  -7   14.58    0.87
   3  -3   7   12.87    0.84
   3  -3   7   15.30    1.95
   3   3   7   14.20    0.85
   3   3   7   10.57    2.28
   3   3   7   11.99    0.77
  -3   3  -7   13.04    0.81
  -3   3  -7   14.81    1.00
   3   3   7   13.73    1.49
   5  -3   7   42.56    3.69
  -5  -3  -7   38.49    2.47
   5  -3   7   42.06    2.18
   5  -3   7   40.70    2.32
  -5  -3  -7   43.16    2.30
   5  -3   7   42.96    2.14
   5   3   7   35.63    4.81
   5   3   7   41.72    2.29
   5   3   7   38.92    2.59
   5   3   7   41.98    2.14
  -7  -3  -7   15.42    1.75
   7  -3   7   19.20    1.13
   7  -3   7   20.92    1.12
   7  -3   7   17.62    1.45
   7  -3   7   19.32    3.19
   7   3   7   17.69    1.68
   7   3   7   24.94    4.37
   7   3   7   14.44    1.91
   7   3   7   17.45    1.06
   7   3   7   17.37    4.16
   9  -3   7   10.66    0.99
   9  -3   7   10.33    0.97
   9  -3   7    9.70    1.57
   9  -3   7   16.72    4.56
   9   3   7   10.32    0.83
   9   3   7   12.56    1.50
   9   3   7   11.23    2.27
   9   3   7   11.07    5.76
 -10  -4   7    9.53    1.60
  10  -4  -7    8.37    6.29
  10  -4  -7   10.11    1.36
  10   4  -7    8.66    1.17
   8  -4  -7   -2.56    3.30
  -8  -4   7    1.24    0.59
   8  -4  -7    0.67    0.50
  -8  -4   7   -1.33    3.22
  -8  -4   7    0.00    0.52
   8  -4  -7   -0.17    0.39
   8   4  -7    2.75    5.30
   8   4  -7    0.29    0.47
  -6  -4   7   32.87    1.97
  -6  -4   7   39.32    5.34
   6  -4  -7   37.35    4.60
   6  -4  -7   36.23    1.95
  -6  -4   7   35.47    2.26
   6   4  -7   23.33    4.65
   6   4  -7   31.89    2.05
   6   4  -7   35.82    1.99
  -4  -4   7   23.51    1.69
   4  -4  -7   23.74    1.44
  -4  -4   7   25.09    1.42
  -4  -4   7   24.04    4.00
   4  -4  -7   24.59    1.47
   4  -4  -7   30.61    3.64
   4   4  -7   27.16    5.05
   4   4  -7   24.62    1.42
  -4   4   7   24.47    1.46
   2  -4  -7    1.05    0.23
   2  -4  -7   -0.88    1.67
   2  -4  -7    1.13    0.34
  -2  -4   7    0.23    1.79
  -2  -4   7    0.77    0.22
  -2  -4   7    1.20    0.46
   2  -4  -7    0.84    0.25
  -2   4   7    0.75    0.37
   2   4  -7    1.01    0.24
   2   4  -7   -0.03    1.52
  -2   4   7    1.25    1.28
   0  -4  -7   62.28    5.17
   0  -4   7   53.89    3.19
   0  -4   7   55.33    2.90
   0  -4  -7   55.17    3.14
   0  -4  -7   60.80    2.98
   0  -4   7   54.78    4.64
   0  -4  -7   58.78    2.97
   0   4  -7   52.83    3.82
   0   4   7   57.96    4.30
   0   4  -7   55.89    2.98
   0   4   7   60.27    3.23
   0   4  -7   57.90    3.54
  -2  -4  -7   13.69    1.10
  -2  -4  -7   12.92    0.94
   2  -4   7   13.97    0.79
   2  -4   7   15.76    2.50
  -2  -4  -7   14.04    3.12
  -2  -4  -7   13.64    0.83
   2  -4   7   14.72    0.75
   2  -4   7   15.47    1.15
   2   4   7   11.32    2.19
   2   4   7   13.11    0.85
   2   4   7   12.73    0.84
  -2   4  -7   13.56    0.86
   2   4   7   13.56    1.25
   4  -4   7   19.57    1.22
  -4  -4  -7   20.37    1.42
  -4  -4  -7   17.81    4.24
   4  -4   7   20.72    2.42
  -4  -4  -7   18.68    1.43
   4  -4   7   20.25    1.07
   4  -4   7   20.99    1.18
  -4  -4  -7   19.63    1.27
   4   4   7   22.32    3.60
   4   4   7   23.18    3.98
   4   4   7   19.77    1.15
   4   4   7   17.50    1.80
   4   4   7   19.95    1.20
   6  -4   7   46.03    4.07
   6  -4   7   45.67    2.61
  -6  -4  -7   43.18    2.87
   6  -4   7   47.78    2.59
   6  -4   7   46.30    2.38
   6   4   7   41.22    3.05
   6   4   7   31.06    6.06
   6   4   7   46.90    2.55
   6   4   7   47.26    2.40
   8  -4   7    1.72    0.46
  -8  -4  -7    2.58    1.89
   8  -4   7    2.63    3.04
   8  -4   7    1.70    0.77
   8  -4   7    1.21    0.47
   8   4   7    1.78    0.60
   8   4   7   10.41    4.53
   8   4   7    1.29    0.39
  10  -4   7    4.29    1.18
  10  -4   7    3.52    0.75
  10   4   7    4.33    1.02
  10   4   7   -1.19    7.23
   9  -5  -7    8.84    5.12
  -9  -5   7    8.99    1.71
   9  -5  -7    9.47    1.20
   9   5  -7   23.72    7.09
   9   5  -7   11.43    1.34
   9   5  -7   10.55    1.92
  -7  -5   7   -2.39    3.17
  -7  -5   7    0.83    0.73
   7  -5  -7   -0.30    0.34
   7  -5  -7   -0.14    0.56
  -7  -5   7   -0.97    0.47
   7  -5  -7    1.11    3.16
   7   5  -7   -0.14    0.44
   7   5  -7   -1.74    5.01
   7   5  -7   -0.33    0.54
  -5  -5   7   42.84    2.77
   5  -5  -7   46.62    2.39
  -5  -5   7   44.75    5.58
  -5  -5   7   44.46    2.43
   5  -5  -7   41.55    2.41
   5  -5  -7   42.13    6.33
   5   5  -7   43.09    2.37
   5   5  -7   36.98    6.53
   3  -5  -7   10.29    0.97
  -3  -5   7   10.32    1.12
   3  -5  -7   10.17    2.72
  -3  -5   7    9.44    0.74
  -3  -5   7    5.73    2.88
   3  -5  -7    8.68    0.77
  -3   5   7    9.64    0.99
   3   5  -7    9.04    0.77
   3   5  -7    8.12    2.65
   3   5  -7    8.88    2.66
   1  -5  -7   31.17    1.70
  -1  -5   7   28.30    4.30
   1  -5  -7   28.57    4.28
   1  -5  -7   31.43    1.75
  -1  -5   7   31.67    2.06
   1  -5  -7   31.82    1.96
  -1  -5   7   32.15    1.69
   1   5  -7   31.46    3.02
   1   5  -7   32.13    1.77
   1   5  -7   27.78    3.52
  -1   5   7   26.82    3.27
  -1   5   7   28.15    3.12
   1  -5   7    8.40    0.95
   1  -5   7    6.85    0.52
  -1  -5  -7    6.56    0.93
  -1  -5  -7    9.90    3.18
   1  -5   7    5.92    2.35
  -1  -5  -7    7.37    0.65
   1   5   7    6.65    1.07
   1   5   7    7.41    2.14
  -1   5  -7    7.06    0.63
   1   5   7    7.75    0.63
   1   5   7    4.92    1.78
  -3  -5  -7    0.20    0.39
   3  -5   7    0.47    0.28
  -3  -5  -7    0.35    0.32
   3  -5   7    0.28    0.14
   3  -5   7    0.27    0.20
   3  -5   7    0.58    0.45
  -3  -5  -7    0.04    0.42
   3  -5   7    3.94    1.89
   3   5   7    1.66    2.32
   3   5   7    1.01    2.10
   3   5   7    0.10    0.26
   3   5   7    0.11    0.19
  -3   5  -7    0.32    0.30
  -5  -5  -7    2.38    0.70
  -5  -5  -7    1.55    0.48
  -5  -5  -7    1.33    0.56
   5  -5   7    1.76    0.42
   5  -5   7    1.21    0.37
   5  -5   7    1.01    0.66
   5  -5   7    0.84    1.67
   5  -5   7    1.21    0.28
   5   5   7    1.60    0.35
   5   5   7    2.07    2.73
   5   5   7   -0.29    0.84
   5   5   7    2.00    3.37
   5   5   7    1.69    0.36
  -7  -5  -7   44.13    3.00
   7  -5   7   41.07    2.28
   7  -5   7   43.02    2.36
   7  -5   7   38.63    2.54
   7   5   7   41.84    2.30
   7   5   7   40.91    2.43
   7   5   7   42.31    7.88
   9  -5   7    1.12    1.14
   9  -5   7   -0.41    0.60
   9  -5   7    1.06    0.95
   9   5   7   -0.41    0.58
   9   5   7    0.23    0.73
   9   5   7    6.72    6.47
   8  -6  -7   -0.45    4.87
   8  -6  -7    1.53    0.59
  -8  -6   7   -0.74    4.26
  -8  -6   7    2.02    1.00
   8   6  -7    0.29    5.72
   8   6  -7    1.42    0.74
   8   6  -7    1.99    0.74
  -6  -6   7    5.14    3.48
   6  -6  -7    4.69    0.75
  -6  -6   7    5.55    1.14
   6  -6  -7    5.20    0.88
   6  -6  -7   13.72    3.85
  -6  -6   7    7.20    0.99
   6   6  -7    6.03    5.08
   6   6  -7    6.49    0.78
   6   6  -7    3.27    4.26
   6   6  -7    6.63    0.85
  -4  -6   7    9.21    0.89
   4  -6  -7    9.00    0.74
  -4  -6   7    5.94    4.68
  -4  -6   7    8.33    1.32
   4  -6  -7    9.23    0.90
   4  -6  -7    6.60    1.07
   4  -6  -7   11.01    3.43
   4   6  -7    4.61    3.56
   4   6  -7   11.25    3.44
   4   6  -7    8.79    0.85
  -4   6   7    8.95    1.09
  -2  -6   7    0.41    0.34
   2  -6  -7    1.72    0.59
  -2  -6   7   -1.63    2.70
   2  -6  -7    0.65    0.30
   2  -6  -7    2.97    3.05
  -2  -6   7    1.16    0.61
  -2   6   7    0.79    1.52
  -2   6   7    0.83    0.65
   2   6  -7    1.77    2.23
   2   6  -7    0.19    0.32
   2   6  -7    0.54    2.05
  -2   6   7    1.38    1.45
   0  -6  -7   24.59    1.47
   0  -6  -7   23.04    1.41
   0  -6   7   24.05    1.38
   0  -6  -7   22.26    4.80
   0  -6  -7   23.11    1.77
   0  -6   7   21.60    3.98
   0  -6   7   22.58    1.83
   0   6  -7   24.08    1.47
   0   6   7   25.28    1.95
   0   6   7   23.93    3.51
   0   6   7   27.18    3.66
   2  -6   7   75.36    3.87
  -2  -6  -7   71.58    9.49
   2  -6   7   72.58    4.35
  -2  -6  -7   72.93    4.04
  -2  -6  -7   71.06    4.36
   2  -6   7   76.62    6.58
   2   6   7   78.25    5.09
   2   6   7   81.29    4.00
  -2   6  -7   78.96    4.02
   2   6   7   80.54    6.25
   2   6   7   72.13    7.08
   4  -6   7    1.75    0.29
  -4  -6  -7    1.52    0.59
   4  -6   7    4.24    2.82
  -4  -6  -7    1.56    0.69
  -4  -6  -7    2.25    0.64
   4  -6   7    1.25    0.43
   4  -6   7    1.95    0.32
   4   6   7    1.88    0.91
   4   6   7    2.23    3.00
   4   6   7    4.96    4.11
   4   6   7    1.74    0.43
   4   6   7    1.51    0.34
   6  -6   7    1.87    0.90
  -6  -6  -7   -0.14    1.01
   6  -6   7    0.64    0.50
  -6  -6  -7    0.55    0.73
   6  -6   7    1.18    0.37
   6  -6   7    1.59    0.52
   6   6   7    0.53    0.42
   6   6   7   -0.51    0.44
   6   6   7   -6.42    3.65
   8  -6   7   -0.01    0.83
   8  -6   7    1.68    0.91
   8  -6   7    2.03    1.32
   8  -6   7    2.00    0.89
   8   6   7    7.26    6.43
   8   6   7    2.83    0.68
   7  -7  -7    8.20    5.86
  -7  -7   7    7.97    4.66
   7   7  -7    5.81    5.78
  -5  -7   7   13.45    2.03
  -5  -7   7   11.69    1.24
   5  -7  -7   11.59    4.89
  -5  -7   7   13.66    4.88
   5  -7  -7    9.37    1.02
   5  -7  -7    9.08    1.41
   5   7  -7   13.47    4.46
   5   7  -7   11.37    1.14
   3  -7  -7   16.13    4.65
  -3  -7   7   14.25    4.83
  -3  -7   7   14.17    1.18
   3  -7  -7   16.33    1.54
  -3  -7   7    9.64    1.72
   3  -7  -7   14.73    1.01
   3  -7  -7   13.04    1.22
   3   7  -7   10.47    3.50
   3   7  -7    9.88    3.66
  -3   7   7   11.21    1.59
   3   7  -7   15.77    1.19
  -1  -7   7   48.42    3.48
  -1  -7   7   52.96    2.91
   1  -7  -7   52.78    2.98
   1  -7  -7   56.95    3.36
   1  -7  -7   61.07    9.16
  -1  -7   7   54.90    7.57
   1  -7  -7   52.77    2.88
   1   7  -7   55.14    3.00
  -1   7   7   54.31    4.69
  -1   7   7   54.20    5.13
   1  -7   7   14.15    1.10
  -1  -7  -7   13.43    1.16
  -1  -7  -7   13.72    1.13
   1  -7   7   14.65    1.73
  -1  -7  -7   12.98    1.65
   1  -7   7   16.26    4.29
  -1  -7  -7    7.38    6.30
  -1   7  -7   13.89    1.16
   1   7   7   10.10    1.94
   1   7   7   12.28    4.09
   1   7   7   14.46    1.18
   1   7   7   20.42    3.38
   3  -7   7    4.39    0.67
  -3  -7  -7    3.33    0.91
  -3  -7  -7    5.87    0.86
   3  -7   7    5.08    1.08
   3  -7   7    2.16    3.74
   3   7   7    4.30    0.79
   3   7   7    4.67    3.21
  -3   7  -7    5.63    0.75
  -5  -7  -7   10.71    1.90
   5  -7   7   10.01    0.88
   5  -7   7   18.99    4.20
  -5  -7  -7    8.80    1.62
   5  -7   7   12.36    2.05
   5  -7   7   12.46    1.36
   5  -7   7   11.47    0.88
   5   7   7    9.79    1.04
   5   7   7   10.73    1.15
   5   7   7   16.67    5.13
   7  -7   7    0.82    0.72
   7  -7   7    0.22    1.35
   7   7   7    0.17    0.56
   7   7   7    0.21    0.71
   7   7   7    1.98    6.41
  -6  -8   7   -0.55    1.37
  -6  -8   7   -5.88    5.50
   6  -8  -7    1.85    1.00
   6  -8  -7    0.29    0.70
   6   8  -7    1.45    0.85
   6   8  -7   -0.75    6.04
   4  -8  -7    3.42    6.52
  -4  -8   7   -5.12    4.93
   4  -8  -7    0.76    0.55
   4  -8  -7    0.30    1.07
  -4  -8   7    1.12    1.18
   4   8  -7   -4.51    4.21
   4   8  -7   -8.36    5.57
   4   8  -7    0.26    0.55
   2  -8  -7    4.67    1.07
  -2  -8   7    3.29    1.26
   2  -8  -7    4.48    0.66
   2  -8  -7    5.71    7.07
  -2  -8   7    5.02    0.80
  -2  -8   7    3.86    5.33
   2   8  -7    4.03    0.71
  -2   8   7    2.91    1.27
   0  -8  -7   12.64    1.25
   0  -8   7   15.88    1.27
   0  -8   7   16.14    2.17
   0  -8   7   19.02    5.62
   0  -8  -7   12.86    1.90
   0   8  -7   13.68    1.37
   0   8   7    7.89    3.17
   0   8   7   16.72    4.13
   2  -8   7    6.78    4.82
   2  -8   7    4.91    1.35
  -2  -8  -7    5.94    0.93
  -2  -8  -7    4.17    1.29
   2  -8   7    4.38    0.71
   2   8   7    2.85    5.44
  -2   8  -7    7.59    1.14
   2   8   7    4.92    0.83
   4  -8   7    4.51    4.86
   4  -8   7    1.71    0.47
   4  -8   7    4.45    1.43
  -4  -8  -7    4.58    1.82
  -4  -8  -7    1.35    1.06
   4   8   7    2.16    0.80
   4   8   7    1.18    4.63
   3  -9  -7    7.47    1.62
  -3  -9   7   12.93    7.23
  -3  -9   7    9.20    1.84
   3   9  -7   10.42    1.59
  -1  -9   7   -0.03    0.99
  -1  -9   7    6.91    6.75
   1  -9  -7    0.34    1.25
  -1  -9   7    1.52    1.50
   1   9  -7    4.36    0.92
   1  -9   7    2.29    6.51
  -1  -9  -7    1.47    1.44
  -1   9  -7    0.85    0.91
  -3  -9  -7    1.66    1.81
   3  -9   7    3.11    1.75
  -3   9  -7    3.19    1.02
   3   9   7    1.50    0.94
  12   0  -8   53.90    3.35
  12   0  -8   51.42    4.10
  10   0  -8   22.08    6.83
   8   0  -8    5.89    0.78
   8   0  -8   11.99    4.13
  -8   0   8    6.24    2.31
   6   0  -8    5.92    2.61
  -6   0   8    1.12    0.25
   6   0  -8    1.37    0.30
  -6   0   8    1.27    1.84
  -6   0   8    1.37    0.26
   4   0  -8    7.39    1.91
  -4   0   8   11.38    0.73
   4   0  -8   10.56    0.71
  -4   0   8   11.43    2.20
  -4   0   8   11.63    0.68
  -2   0   8   54.21    3.98
   2   0  -8   50.49    2.69
   2   0  -8   55.42    3.84
   0   0   8   54.67    2.78
   0   0   8   45.25    3.58
   0   0  -8   55.38    2.78
   0   0  -8   60.62    3.86
  -2   0  -8   60.42    4.24
  -2   0  -8   55.89    2.76
   2   0   8   46.82    2.82
   2   0   8   55.58    3.91
  -2   0  -8   57.93    2.91
   4   0   8   -0.53    1.31
  -4   0  -8    1.23    0.20
   4   0   8    1.60    0.29
  -4   0  -8    1.21    0.41
  -6   0  -8    2.78    0.40
  -6   0  -8    1.95    0.62
   6   0   8    2.03    0.46
   6   0   8    0.59    2.15
   6   0   8    3.21    0.63
  -8   0  -8    7.46    0.75
   8   0   8    8.54    4.33
   8   0   8    8.33    1.26
   8   0   8    8.79    1.18
 -10   0  -8    1.55    0.58
  10   0   8    0.93    1.37
  10   0   8    0.04    0.80
  10   0   8   -4.38    5.95
  11  -1  -8    3.39    1.24
  11  -1  -8    4.17    0.91
  11   1  -8    6.33    1.41
  11   1  -8    4.62    0.93
  -9  -1   8    1.51    0.45
  -9  -1   8    1.89    2.51
   9  -1  -8    1.29    0.50
   9  -1  -8    4.43    4.63
  -9   1   8    0.43    0.38
   9   1  -8    1.47    0.53
   9   1  -8   -6.88    4.57
  -7  -1   8   22.24    4.01
  -7  -1   8   20.41    1.27
   7  -1  -8   19.61    1.28
  -7  -1   8   19.81    1.23
   7  -1  -8   20.23    4.02
  -7   1   8   20.13    3.32
   7   1  -8   17.93    5.11
   7   1  -8   19.15    1.30
  -5  -1   8   57.31    2.85
   5  -1  -8   56.09    2.88
  -5  -1   8   48.81    4.80
   5  -1  -8   54.87    4.93
  -5  -1   8   53.81    2.92
   5   1  -8   56.34    2.89
  -5   1   8   50.62    4.39
   5   1  -8   52.70    5.30
   3  -1  -8    0.61    0.14
  -3  -1   8    0.97    0.17
  -3  -1   8    0.68    1.19
   3  -1  -8    1.82    1.19
  -3   1   8    1.20    1.17
   3   1  -8    0.72    1.31
   3   1  -8    0.78    0.17
   1  -1  -8  220.76   12.34
   1  -1  -8  217.46   11.36
  -1  -1   8  245.19   12.54
   1   1  -8  240.60   12.26
   1   1  -8  213.61   11.34
  -1   1   8  231.09   12.36
   1   1  -8  232.18   11.32
   1  -1   8    9.94    0.63
  -1  -1  -8   11.86    0.70
  -1  -1  -8    8.99    1.84
   1  -1   8   11.95    1.69
  -1   1  -8    9.69    0.58
   1   1   8   11.50    0.66
  -1   1  -8   10.05    0.68
  -1   1  -8   10.70    1.68
  -3  -1  -8   12.31    0.79
   3  -1   8   14.71    0.85
   3  -1   8   10.84    1.92
  -3  -1  -8   11.80    2.43
  -3  -1  -8   14.38    0.98
   3   1   8   12.85    1.02
  -3   1  -8   15.55    0.99
  -3   1  -8   16.37    2.48
   3   1   8   12.52    0.84
   3   1   8    8.83    1.79
  -5  -1  -8    5.58    0.50
   5  -1   8    4.44    0.60
  -5  -1  -8    4.15    0.65
   5  -1   8    6.94    2.14
   5   1   8    3.61    0.57
   5   1   8    4.29    0.70
  -5   1  -8    4.60    0.81
   5   1   8    2.68    1.80
  -5   1  -8    4.42    0.35
   7  -1   8   16.70    1.31
  -7  -1  -8   16.84    1.09
   7  -1   8   14.52    0.99
   7  -1   8   15.59    1.54
   7  -1   8   20.12    3.62
  -7   1  -8   15.54    0.94
   7   1   8   16.86    3.43
   7   1   8   13.41    1.72
   9  -1   8   21.19    1.82
   9  -1   8   22.80    2.43
   9  -1   8   22.36    1.44
   9  -1   8   22.81    5.42
  -9  -1  -8   22.40    1.54
   9   1   8   20.93    5.51
  -9   1  -8   22.04    1.36
   9   1   8   20.20    1.77
   9   1   8   22.17    2.44
   9   1   8   17.34    5.90
  11  -1   8    3.11    7.83
  11  -1   8    3.46    1.26
  11   1   8    7.05    1.57
  11   1   8   12.63    8.47
  12  -2  -8    3.62    1.20
  12  -2  -8    4.57    2.08
  12   2  -8    4.81    1.16
  12   2  -8    4.81    1.72
  10  -2  -8    0.65    0.61
  10  -2  -8    8.69    6.03
 -10  -2   8    0.98    0.50
  10   2  -8   -0.73    0.94
  10   2  -8    1.07    0.62
  -8  -2   8    1.18    2.56
   8  -2  -8    6.32    3.47
  -8  -2   8    3.30    0.49
  -8  -2   8    4.18    0.76
   8   2  -8    2.65    0.81
   8   2  -8   -2.70    4.29
   6  -2  -8    1.15    0.27
  -6  -2   8    3.75    2.06
  -6  -2   8    1.70    0.31
  -6  -2   8    1.11    0.39
   6  -2  -8    0.75    2.67
   6   2  -8    1.69    0.35
  -6   2   8    1.95    1.40
   6   2  -8    5.49    2.87
   4  -2  -8   15.10    2.73
  -4  -2   8   13.91    0.81
  -4  -2   8   11.93    0.93
   4  -2  -8   13.27    0.81
  -4  -2   8   17.28    3.11
   4   2  -8   12.14    2.47
   4   2  -8   12.31    0.83
  -4   2   8   13.39    0.80
  -4   2   8   10.67    2.01
  -2  -2   8   16.19    0.83
  -2  -2   8   14.88    2.37
   2  -2  -8   13.52    0.86
   2  -2  -8   12.48    2.31
  -2  -2   8   12.32    0.99
  -2   2   8   11.81    2.15
  -2   2   8   16.09    0.97
   2   2  -8   15.76    0.83
   2   2  -8   15.15    0.85
   2   2  -8   19.03    2.36
   0  -2  -8    1.00    0.19
   0  -2   8    1.16    0.19
   0  -2   8    1.96    1.14
   0  -2  -8    1.51    0.21
   0  -2  -8    2.12    1.36
   0   2   8    0.84    0.17
   0   2   8    1.50    0.33
   0   2   8    1.09    1.06
   0   2  -8    0.94    0.18
   0   2  -8    0.49    0.93
  -2  -2  -8    1.78    1.65
  -2  -2  -8    0.62    0.23
  -2  -2  -8    0.65    0.11
   2  -2   8    0.32    0.16
   2  -2   8    0.07    0.97
  -2   2  -8   -0.66    0.91
   2   2   8    0.86    0.36
   2   2   8    0.76    1.02
  -2   2  -8    0.51    0.13
  -2   2  -8    0.37    0.23
   2   2   8    0.39    0.15
  -4  -2  -8    0.54    2.39
  -4  -2  -8    1.69    0.42
   4  -2   8    1.55    0.22
  -4  -2  -8    1.57    0.30
   4  -2   8    0.78    1.37
   4  -2   8    1.84    0.35
   4   2   8    4.33    1.92
   4   2   8    1.83    0.32
  -4   2  -8    0.87    0.39
   4   2   8    0.89    0.49
  -6  -2  -8    0.02    0.27
  -6  -2  -8   -0.01    0.55
   6  -2   8   -0.16    0.21
   6  -2   8   -0.26    0.37
   6  -2   8    0.26    0.16
   6  -2   8    0.58    2.05
   6   2   8   -0.35    2.44
   6   2   8   -0.90    0.60
  -6   2  -8    0.21    0.57
   6   2   8    0.28    0.32
   8  -2   8   17.29    0.99
   8  -2   8   17.20    1.45
   8  -2   8   15.19    1.10
  -8  -2  -8   12.92    1.91
   8  -2   8   14.31    4.02
   8   2   8   27.89    4.63
   8   2   8   16.66    2.04
   8   2   8   13.74    1.39
   8   2   8   21.73    4.81
  10  -2   8    2.74    0.92
  10  -2   8    4.10    1.61
  10  -2   8    2.13    0.64
  10  -2   8   -0.65    5.36
  10   2   8   11.81    6.97
  10   2   8    0.78    0.87
 -11  -3   8    4.81    0.94
  11  -3  -8    4.52    1.04
  11   3  -8    6.16    1.47
  11   3  -8    3.00    0.93
  -9  -3   8    0.99    3.18
  -9  -3   8    2.10    0.68
   9  -3  -8    6.08    4.58
  -9  -3   8    2.94    0.91
   9  -3  -8    2.13    0.60
   9   3  -8    0.57    0.96
   9   3  -8    3.08    0.64
   7  -3  -8   -2.98    2.77
  -7  -3   8    3.33    2.58
  -7  -3   8    0.60    0.32
   7  -3  -8    0.39    0.33
  -7  -3   8    0.43    0.50
   7   3  -8    0.71    0.34
  -5  -3   8   34.92    2.06
   5  -3  -8   32.10    1.82
  -5  -3   8   34.09    1.86
   5  -3  -8   35.27    4.04
  -5  -3   8   27.17    4.35
  -5   3   8   30.34    3.12
   5   3  -8   30.85    1.84
   5   3  -8   43.93    5.35
  -3  -3   8   22.11    1.19
   3  -3  -8   22.12    3.03
  -3  -3   8   23.35    3.33
  -3  -3   8   19.35    1.39
  -3   3   8   21.92    1.32
  -3   3   8   20.21    2.66
   3   3  -8   20.69    1.19
   3   3  -8   19.26    3.16
  -1  -3   8    0.00    0.12
   1  -3  -8   -0.04    0.12
  -1  -3   8   -0.29    0.23
   1  -3  -8   -1.59    1.31
  -1  -3   8    0.76    1.42
   1  -3  -8    0.09    0.16
   1   3  -8    1.68    1.15
  -1   3   8   -0.21    1.00
  -1   3   8   -0.17    0.29
   1   3  -8    0.13    0.11
   1   3  -8    0.06    0.16
   1  -3   8    1.18    1.27
  -1  -3  -8    0.69    0.16
  -1  -3  -8   -0.28    1.83
   1  -3   8    0.36    0.12
  -1  -3  -8    0.54    0.22
   1   3   8    0.24    0.34
  -1   3  -8    0.27    0.14
  -1   3  -8    0.83    0.82
   1   3   8   -0.66    1.02
  -1   3  -8    0.41    0.21
   1   3   8    0.25    0.14
  -3  -3  -8    5.07    0.49
   3  -3   8    4.76    0.46
   3  -3   8    3.75    1.26
  -3  -3  -8    3.18    2.57
   3   3   8    5.74    0.86
  -3   3  -8    5.26    0.43
   3   3   8    4.74    0.47
   3   3   8    5.28    0.40
  -3   3  -8    5.87    0.65
   3   3   8    3.58    1.78
   5  -3   8    0.09    0.32
   5  -3   8    1.04    1.54
  -5  -3  -8    0.02    0.44
  -5  -3  -8    0.43    0.32
   5   3   8    0.20    0.25
   5   3   8   -0.09    0.16
   5   3   8    0.18    0.60
   5   3   8    0.08    1.98
  -7  -3  -8   -0.64    0.82
   7  -3   8    1.00    2.51
   7  -3   8    0.51    0.49
   7  -3   8    0.07    0.27
   7  -3   8    0.68    0.29
   7   3   8    0.35    0.47
   7   3   8    0.46    0.23
   7   3   8   -2.29    3.02
   7   3   8    2.52    3.42
   7   3   8   -0.31    0.88
   9  -3   8    1.13    0.48
   9  -3   8    3.25    4.24
   9  -3   8   -0.18    0.75
   9   3   8   -0.03    0.65
   9   3   8   -4.88    4.93
  10  -4  -8    0.51    0.74
 -10  -4   8   -0.08    0.80
  10  -4  -8   -2.45    6.55
  10   4  -8   -1.53    1.07
  10   4  -8    0.48    0.72
  -8  -4   8   20.53    4.35
  -8  -4   8   26.21    1.69
   8  -4  -8   22.42    1.68
  -8  -4   8   22.53    1.86
   8  -4  -8   26.12    1.62
   8   4  -8   25.33    1.92
   8   4  -8   25.13    1.68
   8   4  -8   25.81    6.71
   6  -4  -8   59.08    5.56
  -6  -4   8   51.19    2.81
  -6  -4   8   48.82    3.04
  -6  -4   8   47.48    6.00
   6  -4  -8   53.39    2.80
   6   4  -8   52.78    2.93
   6   4  -8   50.13    2.82
   4  -4  -8    9.75    0.76
   4  -4  -8    6.68    2.33
  -4  -4   8    7.64    0.67
  -4  -4   8    9.07    1.02
  -4  -4   8    9.68    2.92
  -4   4   8    8.27    0.78
   4   4  -8    9.23    2.69
  -4   4   8    9.11    1.69
   4   4  -8    7.96    0.65
   2  -4  -8    1.30    0.34
  -2  -4   8    1.83    0.51
  -2  -4   8    0.51    2.02
   2  -4  -8    1.53    0.26
  -2  -4   8    1.59    0.27
   2  -4  -8    1.78    2.02
   2  -4  -8    1.64    0.38
   2   4  -8    2.87    1.60
   2   4  -8    1.91    0.31
  -2   4   8    2.49    1.53
  -2   4   8    1.43    0.47
   2   4  -8    1.93    0.22
   0  -4  -8    0.69    0.37
   0  -4  -8    0.47    0.20
   0  -4   8    0.51    0.33
   0  -4   8   -0.22    1.68
   0  -4  -8    0.86    2.23
   0  -4   8    0.51    0.18
   0  -4  -8    0.43    0.21
   0   4  -8    0.47    0.22
   0   4   8    1.25    0.47
   0   4  -8    0.62    0.19
   0   4   8    2.53    1.47
   0   4  -8    0.74    0.96
   2  -4   8    6.56    1.85
  -2  -4  -8    4.32    0.68
  -2  -4  -8    5.37    0.72
  -2  -4  -8    4.98    0.43
   2  -4   8    5.24    0.40
  -2  -4  -8    3.08    3.11
   2   4   8    5.16    1.85
   2   4   8    5.18    0.47
   2   4   8    4.87    0.46
  -2   4  -8    4.58    0.48
   2   4   8    7.12    1.03
  -2   4  -8    4.17    0.60
   4  -4   8   -0.69    1.39
   4  -4   8   -0.26    0.21
   4  -4   8   -0.12    0.24
  -4  -4  -8   -0.15    0.29
  -4  -4  -8    2.25    3.60
  -4  -4  -8    0.09    0.45
   4   4   8    0.00    0.22
   4   4   8   -0.17    0.23
   4   4   8    0.70    1.98
   6  -4   8    9.44    1.02
  -6  -4  -8   10.84    1.54
  -6  -4  -8    9.32    1.01
   6  -4   8    8.20    2.38
   6   4   8    9.12    1.42
   6   4   8    9.22    1.06
   6   4   8   13.05    4.11
   6   4   8   14.14    3.69
   6   4   8   10.01    0.71
   8  -4   8    4.21    0.58
   8  -4   8    4.55    0.85
   8  -4   8    0.32    3.31
   8  -4   8    3.64    0.50
   8   4   8    5.34    5.02
   8   4   8    3.59    0.68
  10  -4   8   -1.41    1.18
  10   4   8   -1.02    0.92
  -9  -5   8   18.72    4.97
   9  -5  -8   11.48    1.25
  -9  -5   8   11.10    1.80
   9  -5  -8   15.24    5.79
   9   5  -8    9.46    1.34
  -7  -5   8    0.28    0.95
   7  -5  -8    0.60    0.39
   7  -5  -8    0.79    0.64
  -7  -5   8    0.63    3.57
  -7  -5   8   -0.15    0.50
   7  -5  -8   -2.23    3.32
   7   5  -8   -8.86    5.13
   7   5  -8   -0.35    0.43
   7   5  -8   -1.13    0.54
   5  -5  -8   16.52    1.22
  -5  -5   8   16.78    1.20
   5  -5  -8   21.74    3.72
  -5  -5   8   17.80    1.59
  -5  -5   8   19.42    4.24
   5   5  -8   17.69    4.42
  -5   5   8   19.05    1.22
   5   5  -8   16.20    1.18
  -3  -5   8    4.10    0.55
   3  -5  -8    5.80    0.63
   3  -5  -8    5.09    0.77
  -3  -5   8    6.81    3.23
  -3  -5   8    3.58    0.69
   3  -5  -8    4.86    0.52
   3  -5  -8    5.53    2.85
  -3   5   8    4.96    1.71
  -3   5   8    4.96    1.43
   3   5  -8    4.41    0.58
  -3   5   8    4.48    0.71
   3   5  -8    6.62    2.52
   1  -5  -8    6.96    0.63
   1  -5  -8    7.94    0.88
  -1  -5   8    7.62    0.56
   1  -5  -8    5.68    0.65
  -1  -5   8    5.48    0.90
  -1  -5   8    8.66    2.57
   1  -5  -8    9.83    2.80
   1   5  -8    9.49    1.74
  -1   5   8    5.84    1.90
  -1   5   8    6.22    1.74
  -1   5   8    5.99    0.99
   1   5  -8    5.33    0.60
   1   5  -8    5.90    1.98
  -1  -5  -8   25.77    1.78
  -1  -5  -8   32.72    5.14
   1  -5   8   26.51    1.40
   1  -5   8   24.79    1.81
   1  -5   8   25.15    4.26
   1   5   8   27.61    3.63
   1   5   8   29.70    3.58
   1   5   8   25.54    1.90
  -1   5  -8   25.74    1.52
   3  -5   8    0.37    2.04
  -3  -5  -8    0.85    0.54
   3  -5   8    1.43    0.53
   3  -5   8    1.18    0.24
  -3  -5  -8    0.77    0.48
   3   5   8    4.25    2.31
   3   5   8    1.38    0.33
   3   5   8   -0.18    1.90
   3   5   8    0.91    0.25
  -3   5  -8    1.16    0.32
   5  -5   8    3.86    2.08
   5  -5   8    6.84    1.27
  -5  -5  -8    6.48    0.93
   5  -5   8    6.33    0.69
   5  -5   8    6.76    0.76
  -5  -5  -8    6.02    0.99
   5   5   8   10.02    3.35
   5   5   8    7.01    0.69
   5   5   8    5.93    1.30
   5   5   8    7.79    0.73
   5   5   8   10.05    3.98
   7  -5   8   45.47    2.65
   7  -5   8   43.21    3.08
   7  -5   8   51.09    5.27
  -7  -5  -8   47.77    3.42
   7  -5   8   49.46    3.17
   7   5   8   47.87    2.72
   7   5   8   48.40    2.57
   7   5   8   45.57    8.33
   9  -5   8   -1.88    0.92
   9  -5   8   -0.47    1.32
   9   5   8    0.30    0.78
   9   5   8   -4.59    6.91
   8  -6  -8    7.68    5.45
  -8  -6   8   -0.39    4.74
   8  -6  -8    1.42    0.62
  -8  -6   8    0.99    1.01
   8   6  -8   -3.93    6.44
   8   6  -8    1.94    0.70
   8   6  -8    1.50    0.73
  -6  -6   8    4.12    3.86
  -6  -6   8    4.57    1.07
   6  -6  -8    5.14    0.74
  -6  -6   8    3.76    0.73
   6  -6  -8   12.32    4.49
   6   6  -8   -5.48    5.05
   6   6  -8    4.71    0.70
   6   6  -8    5.26    0.76
   6   6  -8   -0.90    3.79
   4  -6  -8    0.88    0.33
   4  -6  -8    0.06    0.40
  -4  -6   8    0.45    0.64
  -4  -6   8    3.80    4.06
  -4  -6   8    0.25    0.43
   4  -6  -8    1.08    3.42
   4  -6  -8    1.19    0.55
   4   6  -8   -1.83    3.14
   4   6  -8   -0.61    3.30
   4   6  -8    0.97    0.43
  -4   6   8    0.60    0.61
  -2  -6   8    1.09    0.47
   2  -6  -8    0.81    0.52
  -2  -6   8    1.07    3.23
   2  -6  -8   -4.13    3.05
  -2   6   8    0.18    0.66
   2   6  -8    0.37    0.34
  -2   6   8    2.45    1.81
   2   6  -8    3.00    2.14
   2   6  -8   -0.45    1.98
  -2   6   8   -1.26    1.73
   0  -6  -8    4.97    0.64
   0  -6  -8    5.90    3.98
   0  -6   8    6.00    3.03
   0  -6   8    4.64    0.58
   0  -6  -8    5.54    0.66
   0  -6   8    8.18    1.19
   0  -6  -8    5.55    0.88
   0   6   8    4.83    2.16
   0   6   8    5.79    2.64
   0   6  -8    4.65    0.67
   0   6   8    4.32    0.96
   2  -6   8   58.08    2.94
  -2  -6  -8   58.59    3.17
  -2  -6  -8   59.78    9.48
   2  -6   8   51.24    6.26
  -2  -6  -8   52.19    3.46
   2   6   8   54.49    3.54
   2   6   8   57.82    6.60
   2   6   8   59.68    3.07
   2   6   8   52.16    5.50
  -2   6  -8   60.64    3.12
   4  -6   8    5.51    0.61
  -4  -6  -8    6.97    1.25
  -4  -6  -8    6.59    0.83
   4  -6   8    8.91    1.39
   4  -6   8   12.43    3.27
  -4  -6  -8    5.37    6.00
  -4  -6  -8    7.11    1.26
   4   6   8    7.26    3.27
   4   6   8    8.22    0.70
   4   6   8    7.43    4.52
   4   6   8    4.92    1.20
   4   6   8    7.75    0.79
   6  -6   8    2.57    0.62
   6  -6   8    1.40    3.18
  -6  -6  -8    4.55    1.22
   6  -6   8    2.64    0.97
   6  -6   8    1.40    0.62
   6   6   8    3.18    0.57
   6   6   8    3.09    0.58
   6   6   8   10.76    4.82
   8  -6   8   -0.44    0.79
   8  -6   8    0.44    1.23
   8   6   8   -2.14    6.48
   8   6   8   -0.08    0.69
   8   6   8    0.25    0.65
   7  -7  -8   13.95    6.50
  -7  -7   8    5.04    1.40
   7  -7  -8    4.50    0.82
  -7  -7   8    3.25    5.71
   7   7  -8   14.81    6.43
   7   7  -8    6.05    0.99
   5  -7  -8    1.33    0.53
   5  -7  -8    3.34    5.20
  -5  -7   8    1.35    1.06
  -5  -7   8   -6.95    4.43
   5  -7  -8    1.25    0.49
  -5  -7   8    1.97    0.70
   5  -7  -8    1.68    0.70
   5   7  -8    1.54    0.61
   5   7  -8    3.70    4.18
   5   7  -8   -4.24    5.67
   3  -7  -8    4.62    0.72
   3  -7  -8    5.25    0.94
  -3  -7   8    3.16    0.99
   3  -7  -8    4.76    4.59
  -3  -7   8    1.31    4.06
  -3  -7   8    5.79    0.90
   3  -7  -8    3.34    0.68
  -3   7   8    7.15    1.09
   3   7  -8    4.62    0.67
   3   7  -8   12.41    3.30
   3   7  -8    2.73    3.44
  -1  -7   8   28.52    1.74
  -1  -7   8   29.44    2.39
   1  -7  -8   30.01    6.23
  -1  -7   8   41.58    7.56
   1  -7  -8   28.23    1.74
   1  -7  -8   27.14    1.82
  -1   7   8   35.96    4.43
  -1   7   8   28.73    2.49
  -1   7   8   30.28    4.82
   1   7  -8   28.36    1.81
  -1  -7  -8   19.15    1.82
  -1  -7  -8   15.94    6.61
  -1  -7  -8   20.51    1.49
  -1  -7  -8   21.59    1.42
   1  -7   8   17.99    4.85
   1  -7   8   20.79    2.03
   1  -7   8   21.18    1.28
  -1   7  -8   21.33    1.46
   1   7   8   16.63    2.30
   1   7   8   25.41    4.67
   1   7   8   16.93    4.31
  -3  -7  -8    0.34    0.70
  -3  -7  -8    0.99    0.75
   3  -7   8    0.32    0.39
   3  -7   8    1.96    0.84
   3  -7   8    0.16    0.26
   3  -7   8    4.60    4.11
  -3   7  -8    0.91    0.57
   3   7   8    0.93    0.53
   3   7   8   -3.15    3.11
  -5  -7  -8    2.84    1.20
   5  -7   8    0.44    0.37
   5  -7   8   -1.07    1.13
   5  -7   8   -0.54    4.03
   5  -7   8    1.01    0.40
  -5  -7  -8    2.06    0.94
   5   7   8    5.32    4.35
   5   7   8    1.50    0.63
   5   7   8    1.36    0.46
   7  -7   8    5.75    1.13
   7  -7   8    6.39    1.84
   7   7   8   -0.13    6.66
   7   7   8    7.66    1.15
   7   7   8    5.70    0.95
   6  -8  -8    0.36    0.93
   6  -8  -8    2.41    0.75
  -6  -8   8    0.82    1.49
  -6  -8   8    2.40    6.66
   6   8  -8  -10.92    6.49
  -4  -8   8   -7.84    5.56
  -4  -8   8    1.82    0.97
   4  -8  -8    0.17    0.59
   4  -8  -8    2.01    7.18
   4  -8  -8    0.42    0.91
  -4  -8   8    2.15    1.28
   4   8  -8   -1.36    0.60
  -4   8   8    1.60    1.12
   4   8  -8    5.28    4.46
   2  -8  -8   10.86    1.15
  -2  -8   8   16.96    6.38
   2  -8  -8   10.59    1.49
   2  -8  -8   28.63    8.40
  -2  -8   8   11.26    1.29
  -2  -8   8    9.33    1.55
  -2   8   8   13.72    1.74
   2   8  -8    9.54    1.20
   0  -8  -8   37.20    2.82
   0  -8   8   57.31    9.78
   0  -8   8   32.49    3.08
   0  -8   8   36.35    2.20
   0  -8  -8   32.70    2.23
   0   8  -8   37.55    2.32
   0   8   8   34.54    4.63
   0   8   8   41.37    5.93
  -2  -8  -8    8.99    1.43
   2  -8   8    9.02    1.67
   2  -8   8    4.51    5.23
  -2  -8  -8   12.10    1.63
   2  -8   8    8.39    1.02
   2   8   8   10.01    4.00
  -2   8  -8    8.84    1.23
   4  -8   8    3.61    0.68
   4  -8   8    2.40    1.49
  -4  -8  -8    3.62    1.15
   4   8   8    4.09    0.84
   4   8   8    0.58    4.61
  -3  -9   8   -3.84    7.60
  -3  -9   8    2.20    1.66
   3  -9  -8    1.25    1.28
   3   9  -8    0.94    1.13
  -1  -9   8    0.67    1.55
   1  -9  -8   -0.49    1.29
  -1  -9   8   10.81    7.08
   1  -9   8    4.14    1.75
   1  -9   8   14.32    7.19
  -1  -9  -8    5.66    1.46
  -1   9  -8    3.74    0.93
  12   0  -9    1.94    0.94
  12   0  -9   -1.80    1.66
  10   0  -9    7.73    7.60
  -8   0   9   -1.25    2.22
   8   0  -9   -3.85    3.73
  -8   0   9   -0.02    0.28
   8   0  -9   -0.61    0.34
  -6   0   9    0.31    0.22
  -6   0   9   -0.80    2.12
  -6   0   9    0.05    0.18
   6   0  -9    0.21    0.24
   6   0  -9    2.22    2.42
  -4   0   9   -0.02    1.34
  -4   0   9    0.00    0.14
   4   0  -9   -0.67    1.56
   4   0  -9    0.00    0.17
   2   0  -9    0.13    0.09
   2   0  -9    0.06    0.11
   2   0  -9    0.14    0.94
  -2   0   9   -0.55    1.04
   0   0   9   -0.70    0.90
   0   0  -9    0.11    0.11
   0   0   9    0.13    0.10
   0   0  -9    0.12    0.97
   2   0   9   -0.02    0.12
  -2   0  -9   -0.02    0.10
   2   0   9   -1.23    0.96
  -2   0  -9   -0.26    0.20
  -2   0  -9    1.96    1.40
  -4   0  -9   -0.85    1.89
   4   0   9   -1.59    1.42
   4   0   9    0.04    0.18
  -4   0  -9    0.01    0.15
  -4   0  -9    0.30    0.35
   6   0   9    0.56    0.55
  -6   0  -9    0.08    0.23
   6   0   9    1.55    2.31
   6   0   9    0.07    0.35
  -6   0  -9    0.59    0.61
   8   0   9    2.17    3.67
   8   0   9   -0.61    1.03
  -8   0  -9    0.07    0.36
   8   0   9    0.37    0.52
  -8   0  -9    0.73    0.96
 -10   0  -9   -1.14    0.63
  10   0   9    0.57    0.85
  10   0   9   -2.89    6.27
  11  -1  -9   11.15    1.45
  11   1  -9    8.86    1.60
  11   1  -9    7.35    1.04
  -9  -1   9    3.63    3.07
  -9  -1   9    2.44    0.52
   9  -1  -9   14.52    5.10
   9  -1  -9    3.28    0.62
   9   1  -9    1.96    0.57
   9   1  -9   -3.55    5.40
  -7  -1   9   17.52    1.11
   7  -1  -9   13.35    3.50
  -7  -1   9   17.02    1.14
  -7  -1   9   18.52    3.39
   7  -1  -9   15.98    1.16
  -7  -1   9   17.32    1.15
   7   1  -9   32.77    5.86
   7   1  -9   16.94    1.19
  -7   1   9   19.44    3.02
  -5  -1   9    2.82    1.85
   5  -1  -9   -1.30    1.90
   5  -1  -9    3.34    0.43
  -5  -1   9    3.76    0.38
  -5  -1   9    2.88    0.47
   5   1  -9    3.01    0.43
  -5   1   9    4.08    1.87
   5   1  -9    4.81    2.55
   3  -1  -9    0.90    0.18
  -3  -1   9    1.09    0.18
  -3  -1   9    2.80    1.63
   3  -1  -9    1.16    1.35
   3   1  -9   -0.42    1.33
  -3   1   9   -0.35    1.27
   3   1  -9    0.78    0.20
   1  -1  -9   -0.26    1.10
   1  -1  -9    0.36    0.13
  -1  -1   9   -0.04    1.06
   1   1  -9   -1.70    0.97
  -1   1   9   -1.46    0.79
   1   1  -9    0.13    0.11
   1   1  -9    0.24    0.10
   1  -1   9    1.48    0.22
   1  -1   9   -0.22    0.97
  -1  -1  -9    1.22    0.24
  -1  -1  -9   -1.52    1.28
  -1  -1  -9    1.33    0.17
  -1   1  -9    1.38    0.16
   1   1   9    0.90    1.21
  -1   1  -9   -0.02    1.06
  -1   1  -9    1.24    0.24
   1   1   9    1.26    0.21
  -3  -1  -9    5.78    0.66
   3  -1   9    6.06    0.50
   3  -1   9    5.05    1.54
  -3  -1  -9    5.11    0.44
  -3  -1  -9    5.99    2.18
   3   1   9    3.62    1.51
   3   1   9    5.77    0.49
  -3   1  -9    6.94    1.79
  -3   1  -9    5.83    0.65
   3   1   9    6.19    0.74
   5  -1   9    7.52    2.27
   5  -1   9    7.53    0.74
  -5  -1  -9    7.86    0.64
   5   1   9    9.60    0.75
   5   1   9    7.66    1.07
  -5   1  -9    8.35    1.01
   5   1   9    7.70    2.44
  -5   1  -9    7.83    0.51
   7  -1   9    3.15    0.70
   7  -1   9    3.70    0.85
   7  -1   9    1.35    2.86
  -7  -1  -9    3.95    0.51
   7   1   9    2.70    0.96
   7   1   9    5.52    3.11
   7   1   9    2.61    0.58
  -7   1  -9    2.25    0.83
  -7   1  -9    3.43    0.41
   9  -1   9   -0.64    0.70
  -9  -1  -9   -0.93    0.54
   9  -1   9   -0.63    1.30
   9   1   9    0.14    1.23
   9   1   9   -0.16    0.62
  -9   1  -9    0.53    0.39
   9   1   9    2.14    5.16
  12  -2  -9   23.44    3.16
  12   2  -9   15.80    2.20
  10  -2  -9    7.45    1.17
 -10  -2   9    8.39    0.97
  10  -2  -9   10.26    6.96
 -10  -2   9    9.28    3.89
  10   2  -9    6.24    1.27
  10   2  -9    8.04    1.21
   8  -2  -9    1.67    0.45
  -8  -2   9    1.84    0.50
  -8  -2   9    3.23    3.16
  -8  -2   9    0.56    0.42
   8  -2  -9   -2.28    3.63
   8   2  -9    1.32    0.88
  -8   2   9   -1.93    1.46
   8   2  -9    1.69    5.19
   6  -2  -9   85.87    4.49
  -6  -2   9   85.62    4.47
  -6  -2   9   86.44    7.13
   6  -2  -9   86.24    6.89
  -6  -2   9   96.49    4.62
  -6   2   9   78.91    5.94
   6   2  -9   83.39    4.50
   4  -2  -9    6.33    2.11
   4  -2  -9    3.42    0.38
  -4  -2   9    4.41    0.39
  -4  -2   9    4.01    0.58
  -4  -2   9    2.06    1.81
  -4   2   9    3.78    0.43
   4   2  -9    2.56    1.94
   4   2  -9    2.76    0.42
  -4   2   9    4.23    1.67
  -2  -2   9   -0.01    0.11
   2  -2  -9   -0.02    0.11
  -2  -2   9   -1.06    1.27
   2  -2  -9    1.03    1.38
  -2   2   9   -0.15    1.19
  -2   2   9   -0.11    0.24
   2   2  -9    0.12    0.11
   2   2  -9    0.14    0.13
   2   2  -9   -0.90    1.11
   0  -2   9   31.14    3.16
   0  -2  -9   31.03    1.67
   0  -2   9   29.86    1.62
   0  -2  -9   33.00    3.52
   0  -2  -9   29.46    1.61
   0   2  -9   29.56    1.64
   0   2  -9   31.61    2.71
   0   2   9   34.43    3.03
   0   2   9   30.80    1.82
  -2  -2  -9   66.27    5.71
   2  -2   9   71.63    4.69
  -2  -2  -9   72.65    3.70
  -2  -2  -9   71.34    3.51
   2  -2   9   68.12    3.59
  -2   2  -9   64.90    3.54
   2   2   9   67.42    3.81
   2   2   9   77.32    3.64
  -2   2  -9   70.88    3.69
   2   2   9   67.46    5.08
  -2   2  -9   71.45    4.55
   4  -2   9    4.61    1.74
  -4  -2  -9    8.87    3.21
  -4  -2  -9    6.88    0.58
  -4  -2  -9    8.03    0.87
   4  -2   9    5.53    0.59
   4   2   9    6.69    0.59
   4   2   9    7.19    2.11
   4   2   9    5.94    1.02
  -6  -2  -9   24.68    1.85
  -6  -2  -9   20.68    1.36
   6  -2   9   21.76    1.46
   6  -2   9   23.78    4.18
  -6   2  -9   23.84    1.78
   6   2   9   22.70    1.92
   6   2   9   19.00    1.42
   6   2   9   19.24    3.96
  -8  -2  -9    9.33    1.19
   8  -2   9    4.30    3.69
   8  -2   9    9.96    1.24
   8  -2   9    7.43    0.73
   8   2   9    6.49    1.38
   8   2   9    6.14    1.07
   8   2   9   13.18    4.67
  10  -2   9   -0.37    0.87
  10  -2   9    5.14    6.42
  10  -2   9    0.64    2.27
  10   2   9   -0.78    7.10
  10   2   9   -0.18    0.87
  11  -3  -9    1.03    0.89
  11   3  -9   -1.40    1.29
   9  -3  -9   13.93    1.29
  -9  -3   9   13.91    1.40
  -9  -3   9    9.77    4.26
   9  -3  -9   17.85    5.46
   9   3  -9   12.92    1.84
   9   3  -9   15.74    1.31
  -7  -3   9    6.49    0.98
  -7  -3   9    6.73    0.70
  -7  -3   9    3.36    3.01
   7  -3  -9    6.40    0.85
   7  -3  -9    4.43    3.17
   7   3  -9    4.95    0.77
   5  -3  -9   10.98    4.05
  -5  -3   9   18.10    3.37
  -5  -3   9   13.24    0.88
   5  -3  -9   12.81    0.87
  -5  -3   9   13.76    1.14
   5   3  -9   14.13    3.30
  -5   3   9   12.47    2.37
   5   3  -9   12.42    0.90
  -3  -3   9    9.21    2.36
   3  -3  -9   10.67    2.25
  -3  -3   9   10.12    0.66
   3   3  -9    6.11    2.06
   3   3  -9    9.36    0.66
   3   3  -9   10.08    0.61
  -3   3   9   12.18    2.20
  -3   3   9   10.28    0.83
  -1  -3   9   23.85    1.20
   1  -3  -9   19.84    1.26
   1  -3  -9   22.60    3.52
  -1  -3   9   26.29    1.55
  -1  -3   9   21.50    3.43
   1  -3  -9   23.31    1.28
  -1   3   9   22.01    1.46
   1   3  -9   23.99    2.68
   1   3  -9   21.85    1.22
  -1   3   9   20.35    2.67
   1  -3   9    6.26    0.44
   1  -3   9    7.27    1.84
  -1  -3  -9    6.88    0.46
  -1  -3  -9    6.78    0.58
   1   3   9    6.07    1.81
  -1   3  -9    6.20    0.47
   1   3   9    6.16    0.50
  -1   3  -9    5.73    1.27
  -1   3  -9    6.52    0.57
   1   3   9    5.72    0.83
   3  -3   9    4.50    0.43
   3  -3   9    4.33    1.50
  -3  -3  -9    2.86    2.66
  -3  -3  -9    3.66    0.65
  -3   3  -9    4.08    0.68
   3   3   9    4.41    1.92
   3   3   9    4.30    0.75
   3   3   9    4.27    0.45
  -3   3  -9    3.28    0.38
   5  -3   9    5.16    1.99
   5  -3   9    5.30    0.47
  -5  -3  -9    6.83    0.68
   5  -3   9    5.88    0.68
  -5  -3  -9    7.59    1.04
   5   3   9    5.92    0.44
   5   3   9    5.49    0.64
   5   3   9    7.04    1.26
   5   3   9    8.36    2.49
  -5   3  -9    3.96    0.70
  -7  -3  -9    0.32    0.93
  -7  -3  -9    0.73    0.54
   7  -3   9   -2.10    2.80
   7  -3   9    0.79    0.32
   7  -3   9    1.11    0.28
   7  -3   9    0.72    0.80
   7   3   9    4.68    3.66
   7   3   9    1.42    0.47
   7   3   9   -0.88    0.96
   9  -3   9    0.50    0.48
   9  -3   9    0.73    0.83
   9  -3   9    2.75    4.58
   9   3   9    9.29    6.06
   9   3   9    1.85    0.75
  10  -4  -9    1.46    0.80
  10  -4  -9    3.60    6.77
  10   4  -9    0.55    1.15
  10   4  -9    1.62    0.85
   8  -4  -9   12.07    4.49
   8  -4  -9   18.52    1.31
  -8  -4   9   19.97    4.82
  -8  -4   9   16.46    1.58
  -8  -4   9   13.59    1.30
   8   4  -9   20.10    6.58
   8   4  -9   17.61    1.35
   8   4  -9   17.86    1.66
   6  -4  -9   51.97    5.94
  -6  -4   9   57.96    3.16
  -6  -4   9   55.96    2.87
   6  -4  -9   43.93    2.91
   6   4  -9   51.90    2.87
   4  -4  -9    5.79    0.66
  -4  -4   9    6.54    0.97
  -4  -4   9    4.96    0.56
   4  -4  -9    5.86    2.37
  -4  -4   9    6.88    2.76
  -4   4   9    4.87    1.84
   4   4  -9    5.39    2.85
  -4   4   9    5.34    0.70
   4   4  -9    5.41    0.54
   2  -4  -9    8.45    0.76
   2  -4  -9    8.39    0.68
  -2  -4   9    8.75    0.61
  -2  -4   9    6.16    2.60
   2  -4  -9   12.06    2.79
  -2  -4   9    7.92    0.94
  -2   4   9    8.76    0.95
   2   4  -9    8.01    2.02
   2   4  -9    9.40    0.67
   2   4  -9    8.73    0.54
  -2   4   9    7.35    1.91
   0  -4   9    0.10    1.79
   0  -4   9    0.04    0.13
   0  -4  -9   -1.11    2.16
   0  -4   9   -0.25    0.37
   0  -4  -9    0.17    0.22
   0   4  -9   -0.04    0.20
   0   4  -9   -0.12    0.20
   0   4   9    1.15    1.43
   0   4  -9   -0.47    1.12
  -2  -4  -9  150.34   11.72
  -2  -4  -9  158.25    8.01
   2  -4   9  164.07    7.99
   2  -4   9  160.62    9.49
  -2  -4  -9  167.41    8.16
  -2   4  -9  160.26    8.10
  -2   4  -9  159.44    8.05
   2   4   9  161.62    8.07
   2   4   9  148.01    9.82
   2   4   9  161.29    8.37
  -4  -4  -9    0.45    0.32
  -4  -4  -9    0.63    0.50
   4  -4   9   -0.36    1.51
   4  -4   9    0.46    0.27
   4   4   9    0.84    0.26
   4   4   9    0.59    0.28
   4   4   9    0.43    2.22
   6  -4   9   21.45    3.15
  -6  -4  -9   23.02    2.09
   6  -4   9   21.53    1.30
   6  -4   9   24.32    1.52
  -6  -4  -9   20.41    1.54
   6   4   9   18.34    4.31
   6   4   9   22.27    2.29
   6   4   9   21.40    1.25
   6   4   9   21.10    1.43
   6   4   9   23.71    4.67
   8  -4   9    5.20    0.79
   8  -4   9    4.29    0.64
   8  -4   9    3.95    0.82
   8  -4   9   12.74    3.81
   8   4   9    3.72    0.78
   8   4   9   14.51    5.43
  -9  -5   9   -0.35    4.72
  -9  -5   9    3.73    1.03
   9  -5  -9    2.62    0.76
   9  -5  -9    6.04    6.15
   9   5  -9    4.18    0.88
  -7  -5   9   -0.34    1.30
   7  -5  -9    2.35    3.77
   7  -5  -9   -0.49    0.37
  -7  -5   9    0.14    0.53
   7   5  -9    0.18    0.47
   7   5  -9    1.56    0.64
   7   5  -9   -6.13    5.65
  -5  -5   9    1.84    0.66
   5  -5  -9   -0.88    2.94
  -5  -5   9    1.13    3.45
   5  -5  -9    1.25    0.33
   5  -5  -9    2.28    0.51
  -5  -5   9    1.58    0.42
   5   5  -9    7.16    3.78
  -5   5   9    1.66    0.45
   5   5  -9    2.20    0.46
  -3  -5   9   12.13    3.58
   3  -5  -9    8.39    0.72
   3  -5  -9    9.94    3.25
   3  -5  -9    9.00    0.93
  -3  -5   9    9.70    1.15
  -3  -5   9   10.47    0.74
   3  -5  -9    9.42    0.80
  -3   5   9    8.32    2.15
   3   5  -9    8.77    0.77
  -3   5   9   11.32    1.86
  -3   5   9    9.18    1.07
   3   5  -9    6.99    3.48
  -1  -5   9   30.83    1.56
   1  -5  -9   34.90    5.65
   1  -5  -9   26.49    1.60
  -1  -5   9   34.35    4.97
   1  -5  -9   26.97    1.64
   1  -5  -9   28.88    1.85
  -1  -5   9   26.29    1.97
  -1   5   9   22.94    3.33
   1   5  -9   24.66    3.18
   1   5  -9   28.43    3.77
   1   5  -9   29.55    1.66
  -1   5   9   30.47    2.00
  -1  -5  -9    7.96    0.72
   1  -5   9    7.45    1.02
  -1  -5  -9    1.06    3.43
   1  -5   9    9.00    0.55
  -1  -5  -9    8.77    0.79
   1  -5   9    6.64    2.96
  -1  -5  -9    6.99    0.98
   1   5   9   10.58    2.49
  -1   5  -9    8.44    0.70
   1   5   9    8.54    1.27
   3  -5   9    8.02    1.21
   3  -5   9    4.74    2.60
   3  -5   9    6.83    0.54
  -3  -5  -9    5.38    0.96
   3   5   9    7.30    0.62
   3   5   9    2.57    2.41
   3   5   9    7.15    0.65
  -3   5  -9    6.50    0.67
  -5  -5  -9   13.13    1.64
   5  -5   9   16.06    1.66
   5  -5   9   16.06    2.83
  -5  -5  -9   17.51    1.35
   5  -5   9   16.19    1.12
   5   5   9   19.28    4.56
   5   5   9   17.22    1.08
   5   5   9   11.57    3.65
   5   5   9   11.75    2.16
   7  -5   9    0.22    0.51
   7  -5   9    0.13    2.81
   7  -5   9   -1.32    0.93
   7  -5   9   -0.45    0.60
   7   5   9    0.43    4.40
   7   5   9    0.65    0.50
   7   5   9   -0.82    0.43
   9  -5   9    1.02    1.44
   9  -5   9    3.20    1.06
   9   5   9    2.97    0.86
   8  -6  -9    0.23    5.87
   8  -6  -9    0.02    0.63
  -8  -6   9   -4.90    4.78
  -8  -6   9    0.41    1.07
   8   6  -9    0.43    6.06
   8   6  -9    1.20    0.69
   8   6  -9    0.48    0.75
  -6  -6   9    2.32    0.62
   6  -6  -9    0.90    0.42
  -6  -6   9    0.05    4.16
  -6  -6   9    2.20    0.90
   6  -6  -9   -2.36    4.41
   6   6  -9    1.92    4.32
   6   6  -9    1.15    0.53
   6   6  -9    0.80    0.44
   6   6  -9   -3.61    5.17
  -4  -6   9   27.28    4.89
   4  -6  -9   16.68    1.43
   4  -6  -9   20.28    4.81
  -4  -6   9   20.16    1.28
   4  -6  -9   18.97    1.25
   4  -6  -9   17.64    1.33
  -4  -6   9   17.04    1.82
   4   6  -9   16.22    4.28
   4   6  -9   18.81    1.35
   4   6  -9   22.17    4.50
   2  -6  -9   13.88    4.31
   2  -6  -9   14.15    0.98
   2  -6  -9   14.42    1.33
  -2  -6   9   12.36    1.09
  -2  -6   9   13.45    1.56
  -2  -6   9   10.07    3.93
   2   6  -9   15.82    3.10
   2   6  -9   18.39    2.91
  -2   6   9   15.36    2.89
  -2   6   9   13.62    2.77
  -2   6   9   11.56    1.48
   0  -6  -9   12.14    0.98
   0  -6   9   12.42    1.45
   0  -6  -9   11.28    0.93
   0  -6  -9   11.58    1.30
   0  -6  -9   16.85    4.67
   0  -6   9   12.71    0.84
   0  -6   9   16.31    3.97
   0   6   9   13.70    3.20
   0   6   9   10.22    2.83
   0   6  -9   13.37    0.97
  -2  -6  -9    1.48    0.61
  -2  -6  -9    1.33    0.57
   2  -6   9    1.26    0.67
  -2  -6  -9    1.56    5.10
   2  -6   9   -1.17    3.33
   2  -6   9    0.92    0.26
  -2   6  -9    1.52    0.42
   2   6   9    4.40    2.43
   2   6   9   -0.70    0.78
   2   6   9   -1.42    2.99
  -4  -6  -9    2.62    0.72
   4  -6   9    6.51    3.68
  -4  -6  -9    3.79    0.87
   4  -6   9    2.89    0.49
   4  -6   9    1.38    0.74
  -4  -6  -9    4.51    0.86
   4   6   9    3.19    0.49
   4   6   9   12.36    4.66
   4   6   9    2.95    2.84
   4   6   9    3.99    0.53
   6  -6   9   12.02    3.91
   6  -6   9   11.78    1.11
  -6  -6  -9   12.20    1.79
   6  -6   9   13.17    1.98
   6   6   9   13.90    1.11
   6   6   9   13.81    1.14
   6   6   9   10.07    4.70
   8  -6   9   -0.65    0.81
   8  -6   9    2.06    1.36
   8   6   9   -0.31    0.70
  -7  -7   9   -1.07    5.95
   7  -7  -9    4.50    7.28
  -7  -7   9    0.35    1.26
   7  -7  -9   -0.83    0.64
   7   7  -9    6.22    6.52
   7   7  -9    0.49    0.77
  -5  -7   9    1.47    0.69
  -5  -7   9    7.69    5.51
   5  -7  -9    4.73    5.86
   5  -7  -9    3.08    0.60
   5  -7  -9    3.02    0.60
   5  -7  -9    4.01    0.79
  -5  -7   9    2.85    1.17
   5   7  -9    6.45    4.76
   5   7  -9    3.78    0.74
   5   7  -9    7.22    5.78
   3  -7  -9    3.87    5.32
   3  -7  -9   12.64    1.06
  -3  -7   9   24.20    5.69
  -3  -7   9   12.72    1.79
  -3  -7   9   13.67    1.15
   3   7  -9    6.75    3.65
   3   7  -9   10.93    1.13
   3   7  -9   13.86    3.86
  -1  -7   9   13.49    1.06
   1  -7  -9   13.94    1.13
   1  -7  -9   10.86    1.19
   1  -7  -9   11.78    1.54
  -1  -7   9   14.85    5.18
   1  -7  -9    9.17    5.95
  -1  -7   9   13.87    1.82
  -1   7   9   14.05    3.61
  -1   7   9   13.54    2.03
   1   7  -9   13.01    1.14
  -1   7   9   17.54    3.25
  -1  -7  -9    5.61    1.04
  -1  -7  -9    5.42    0.83
   1  -7   9    0.24    4.38
   1  -7   9    5.38    1.08
  -1  -7  -9    6.72    6.78
   1  -7   9    6.69    0.76
  -1  -7  -9    6.09    0.81
   1   7   9    6.33    4.03
   1   7   9    6.21    3.13
  -1   7  -9    6.13    0.86
   1   7   9    6.97    1.44
   3  -7   9    8.27    4.18
   3   7   9    4.78    4.98
   3   7   9   -1.41    3.43
  -5  -7  -9    2.41    1.41
   5  -7   9    1.04    1.19
   5  -7   9    0.89    4.76
   5   7   9   -5.83    4.24
   5   7   9    2.78    0.70
  -6  -8   9    9.31    1.91
   6  -8  -9   10.06    1.40
  -6  -8   9   12.60    7.37
   6   8  -9    6.80    1.55
   6   8  -9    6.91    6.95
  -4  -8   9    5.01    6.27
  -4  -8   9   -0.78    0.93
   4  -8  -9    2.01    1.00
  -4  -8   9    4.44    1.35
   4  -8  -9    1.92    0.70
   4   8  -9    1.85    0.80
   4   8  -9    7.03    4.81
  -4   8   9    2.70    1.55
  -2  -8   9   -6.85    5.81
  -2  -8   9   -0.21    1.11
   2  -8  -9    0.48    1.00
   2   8  -9    1.83    0.62
  -2   8   9    3.36    1.41
   0  -8  -9    6.82    0.97
   0  -8   9    5.59    7.12
   0  -8  -9    7.67    1.27
   0  -8   9    8.25    1.08
   0  -8   9    8.94    1.61
   0   8   9    1.33    3.70
   0   8  -9    8.68    1.27
   2  -8   9    4.60    5.58
   2   8   9    3.51    5.93
   2   8   9    1.27    3.95
  -4  -8  -9   -0.31    1.12
   4  -8   9   -0.46    1.52
   4   8   9   -6.35    4.89
  -1  -9   9   18.72    3.20
   1  -9  -9   13.55    2.47
  -1  -9   9   26.42    9.05
   1   9  -9   18.13    1.96
  -1  -9  -9    1.51    1.33
   1  -9   9   -1.34    1.73
   1  -9   9   -0.46    8.06
  -1   9  -9    0.38    0.95
  12   0 -10    0.06    1.30
  12   0 -10    4.67    1.85
  10   0 -10    2.28    0.75
   8   0 -10    8.60    4.44
  -8   0  10   10.32    0.84
  -8   0  10   14.28    3.39
   8   0 -10    8.70    1.40
  -6   0  10   37.81    4.88
   6   0 -10   39.77    5.47
   6   0 -10   39.11    2.26
  -6   0  10   40.75    2.21
  -6   0  10   44.53    2.22
   4   0 -10   76.38    5.91
  -4   0  10   70.98    5.86
   4   0 -10   81.78    3.99
   2   0 -10   31.18    1.74
  -2   0  10   38.42    3.60
   2   0 -10   34.08    3.30
   2   0 -10   33.09    1.77
   0   0 -10   71.26    3.67
   0   0 -10   75.32    4.98
   0   0  10   68.32    3.66
   0   0  10   73.27    4.95
   2   0  10   94.43    6.04
   2   0  10   87.80    4.70
  -2   0 -10  103.33    6.37
  -2   0 -10   87.90    4.61
   4   0  10    0.01    0.19
  -4   0 -10    0.51    0.38
   4   0  10    1.87    1.66
  -4   0 -10    0.09    0.16
  -4   0 -10    0.08    2.22
   6   0  10   30.10    4.93
  -6   0 -10   25.50    1.38
   6   0  10   26.54    1.91
   6   0  10   20.22    1.53
   8   0  10    2.61    1.26
   8   0  10   -1.54    4.47
   8   0  10    1.29    0.59
  -8   0 -10   -0.37    0.37
  10   0  10   -2.47    7.25
  10   0  10   -0.08    0.94
  11  -1 -10    0.33    0.84
  11   1 -10    3.19    1.34
  11   1 -10   -0.11    0.77
  -9  -1  10    4.14    3.85
   9  -1 -10    3.76    5.17
  -9  -1  10    7.41    0.89
   9  -1 -10    7.98    1.04
  -9   1  10    5.70    2.67
   9   1 -10   16.78    6.46
   9   1 -10    7.68    0.99
   7  -1 -10    1.59    3.26
  -7  -1  10    1.35    2.77
   7   1 -10    3.79    3.40
   7   1 -10    3.66    0.53
  -7   1  10    4.22    2.56
  -5  -1  10  104.96    5.46
   5  -1 -10  105.58    5.40
  -5  -1  10  101.69    5.42
   5  -1 -10  110.72    7.52
  -5  -1  10  103.60    7.68
  -5   1  10  103.13    5.32
   5   1 -10  116.36    7.85
  -5   1  10  111.10    7.43
   5   1 -10  101.20    5.40
  -3  -1  10   22.69    3.64
   3  -1 -10   30.62    3.42
  -3  -1  10   29.56    1.60
   3  -1 -10   30.49    1.64
   3   1 -10   36.14    3.51
   3   1 -10   31.78    1.65
  -3   1  10   29.77    3.44
   1  -1 -10   55.13    4.47
   1  -1 -10   61.03    3.12
  -1  -1  10   56.46    4.58
   1   1 -10   65.33    3.11
   1   1 -10   60.20    3.05
   1   1 -10   59.38    4.38
   1  -1  10   57.14    2.78
   1  -1  10   52.45    4.04
  -1  -1 -10   52.90    2.82
  -1  -1 -10   56.17    4.64
   1   1  10   49.82    2.78
   1   1  10   51.30    4.17
  -1   1 -10   54.99    2.82
  -1   1 -10   49.06    2.69
  -1   1 -10   60.49    4.25
   3  -1  10    5.27    1.72
  -3  -1 -10    6.47    0.71
   3  -1  10    4.69    0.48
  -3  -1 -10    4.89    0.43
  -3  -1 -10    3.29    2.46
  -3   1 -10    0.64    1.76
   3   1  10    5.81    0.82
  -3   1 -10    5.18    0.65
   3   1  10    3.15    1.64
   3   1  10    5.80    0.51
   5  -1  10   14.67    2.91
   5  -1  10   13.97    1.00
  -5  -1 -10   13.50    0.89
   5   1  10   14.11    3.31
   5   1  10   13.21    0.98
   5   1  10   14.36    1.39
  -5   1 -10   13.34    0.76
   7  -1  10    3.22    0.61
   7  -1  10    2.50    0.84
  -7  -1 -10    2.43    0.95
  -7  -1 -10    3.24    0.51
   7  -1  10   10.46    3.43
  -7   1 -10    3.41    0.98
   7   1  10    2.18    0.55
   7   1  10    1.82    1.03
  -7   1 -10    2.87    0.40
   7   1  10    0.81    4.24
   9  -1  10    5.09    5.45
  -9  -1 -10   10.29    1.14
   9  -1  10   13.34    1.75
   9   1  10   20.59    6.73
   9   1  10    9.93    1.38
  -9   1 -10    8.54    0.86
  10  -2 -10   -1.00    0.62
 -10  -2  10    0.56    0.54
  10  -2 -10    2.42    7.61
  10   2 -10   -0.31    0.98
  10   2 -10   -0.01    0.67
  -8  -2  10    2.21    0.55
   8  -2 -10    2.26    0.48
   8  -2 -10   -6.49    3.79
  -8  -2  10    1.70    0.46
   8   2 -10    5.51    5.27
   8   2 -10    2.43    0.55
  -8   2  10    3.65    2.08
   6  -2 -10   95.02    4.85
   6  -2 -10   94.24    7.29
  -6  -2  10   96.25    4.81
  -6  -2  10   87.35    4.93
  -6  -2  10   92.71    7.81
  -6   2  10   92.01    6.72
   6   2 -10   95.54    4.86
  -4  -2  10    0.75    0.21
  -4  -2  10    1.09    0.33
  -4  -2  10    3.69    2.00
   4  -2 -10    0.64    0.21
   4   2 -10    0.85    0.24
  -4   2  10    1.18    0.30
   4   2 -10    3.23    2.15
  -4   2  10   -1.03    1.61
   2  -2 -10    0.74    0.19
  -2  -2  10    2.15    1.77
  -2  -2  10    1.31    0.20
   2  -2 -10    0.37    1.52
   2   2 -10    1.07    0.20
   2   2 -10    1.09    0.19
  -2   2  10    1.21    0.35
  -2   2  10    0.99    1.48
   2   2 -10    0.43    1.33
   0  -2 -10   24.94    1.42
   0  -2 -10   26.06    1.36
   0  -2  10   25.00    3.22
   0  -2 -10   24.96    3.55
   0   2 -10   24.52    1.40
   0   2 -10   22.54    2.70
   0   2  10   21.65    2.86
   0   2  10   27.98    1.61
  -2  -2 -10   17.74    1.13
   2  -2  10   17.06    0.97
   2  -2  10   15.86    2.47
  -2   2 -10   18.68    2.64
   2   2  10   15.31    0.99
  -2   2 -10   17.06    1.12
  -2   2 -10   16.49    0.91
   2   2  10   13.14    2.38
   2   2  10   15.65    1.29
  -4  -2 -10    1.69    3.02
   4  -2  10    0.92    1.61
   4  -2  10    0.43    0.23
  -4  -2 -10    1.10    0.28
  -4  -2 -10    0.57    0.44
   4   2  10    1.20    1.81
  -4   2 -10    0.82    0.45
   4   2  10    0.76    0.56
   4   2  10    0.61    0.24
   6  -2  10    1.97    2.60
   6  -2  10    4.91    0.76
  -6  -2 -10    4.23    0.63
   6   2  10    5.70    3.35
   6   2  10    3.75    0.65
   6   2  10    6.09    1.09
  -8  -2 -10    0.56    0.55
   8  -2  10    0.11    0.58
   8  -2  10    0.35    3.71
   8   2  10    0.07    0.50
   8   2  10    1.55    1.36
   8   2  10   -2.31    4.33
  10  -2  10    0.35    6.89
  10  -2  10    0.95    1.05
  10   2  10    1.01    8.04
  11  -3 -10    4.68    1.05
  11   3 -10    3.27    1.46
  11   3 -10    1.61    0.95
  -9  -3  10   29.13    5.62
   9  -3 -10   27.57    1.93
   9  -3 -10   23.48    6.19
  -9  -3  10   27.88    2.00
   9   3 -10   29.54    2.35
   9   3 -10   29.01    1.94
  -7  -3  10   12.45    0.97
   7  -3 -10   10.40    0.96
  -7  -3  10    9.92    4.19
  -7  -3  10   13.33    1.24
   7   3 -10   11.89    1.03
  -7   3  10   14.51    2.19
   7   3 -10   17.69    5.18
   5  -3 -10    0.47    0.26
  -5  -3  10    0.27    0.24
  -5  -3  10   -2.70    2.42
   5  -3 -10   -0.49    2.12
  -5  -3  10    0.79    0.43
   5   3 -10   -3.81    2.42
   5   3 -10    0.19    0.27
  -5   3  10    1.11    1.79
   3  -3 -10   -0.18    1.86
  -3  -3  10    0.56    0.19
  -3  -3  10    0.17    0.33
  -3  -3  10    1.19    2.01
   3  -3 -10    0.18    0.20
  -3   3  10   -0.66    1.51
   3   3 -10    2.71    1.87
  -3   3  10    0.04    0.32
   3   3 -10    0.28    0.16
   3   3 -10    0.47    0.19
   1  -3 -10   35.26    4.86
  -1  -3  10   35.38    4.34
   1  -3 -10   40.79    2.04
  -1  -3  10   37.11    1.94
  -1   3  10   35.77    2.22
   1   3 -10   39.77    2.00
   1   3 -10   34.84    3.60
  -1   3  10   39.65    3.63
   1  -3  10    3.78    0.36
  -1  -3 -10    4.27    0.36
  -1  -3 -10    4.24    0.52
   1  -3  10    5.93    1.94
  -1  -3 -10    3.77    2.21
  -1   3 -10    3.50    0.37
   1   3  10    4.12    0.42
   1   3  10    3.90    1.82
  -1   3 -10    3.30    0.53
  -1   3 -10    4.14    1.40
   1   3  10    5.26    0.79
  -3  -3 -10   -3.96    2.71
  -3  -3 -10    0.46    0.35
   3  -3  10    0.41    1.46
   3  -3  10   -0.02    0.18
  -3  -3 -10   -0.22    0.21
   3   3  10   -0.87    1.72
  -3   3 -10    0.03    0.18
   3   3  10   -0.35    0.87
   3   3  10   -0.06    0.16
  -3   3 -10    0.59    0.40
  -5  -3 -10    7.82    4.41
  -5  -3 -10   12.08    0.92
  -5  -3 -10   12.19    1.30
   5  -3  10   10.19    2.47
   5  -3  10   10.25    0.88
   5   3  10   11.66    0.89
   5   3  10    6.94    2.88
  -5   3 -10    9.69    1.28
   5   3  10   11.12    1.50
   7  -3  10    3.50    2.93
  -7  -3 -10    0.83    0.94
   7  -3  10    1.67    0.61
  -7  -3 -10    0.69    0.51
   7   3  10   -1.04    1.05
   7   3  10    6.35    4.03
   7   3  10    1.14    0.47
   9  -3  10    0.88    5.07
   9  -3  10    0.40    0.80
   9   3  10    0.12    0.74
   9   3  10   -1.83    6.20
 -10  -4  10   13.09    1.76
 -10  -4  10   13.19    5.58
  10  -4 -10    9.71    1.50
  10   4 -10   13.99    1.61
  10   4 -10    8.65    1.55
   8  -4 -10    1.10    4.45
  -8  -4  10    1.25    0.53
  -8  -4  10   11.84    4.52
   8  -4 -10    1.20    0.51
  -8  -4  10    1.68    0.80
   8   4 -10    2.12    0.56
   8   4 -10    0.76    0.79
   6  -4 -10   -1.28    2.96
  -6  -4  10    1.08    3.40
   6  -4 -10    1.25    0.50
  -6  -4  10    0.79    0.56
  -6  -4  10    2.02    0.45
   6  -4 -10    1.60    0.39
   6   4 -10    1.92    0.43
  -4  -4  10    5.05    3.01
   4  -4 -10    5.73    0.57
   4  -4 -10    4.03    2.79
   4  -4 -10    4.40    0.65
  -4  -4  10    6.51    0.66
  -4  -4  10    5.89    0.93
   4   4 -10    6.23    0.46
  -4   4  10    4.57    2.01
   4   4 -10    4.91    0.54
   4   4 -10    6.74    3.10
   2  -4 -10    2.42    0.40
  -2  -4  10    2.14    2.49
  -2  -4  10    2.24    0.35
   2  -4 -10    2.34    0.40
  -2  -4  10    2.21    0.51
   2  -4 -10    2.91    2.61
   2   4 -10    2.65    0.38
   2   4 -10    3.92    1.86
  -2   4  10    2.60    0.60
   2   4 -10    2.48    0.32
  -2   4  10    3.11    1.92
   0  -4  10   12.43    1.16
   0  -4 -10    8.94    2.98
   0  -4  10   12.45    2.91
   0  -4 -10   11.87    0.80
   0  -4 -10   13.07    0.88
   0   4 -10   11.74    0.81
   0   4 -10   16.13    2.28
   0   4 -10   11.57    0.82
   0   4  10   11.44    2.34
   0   4  10   12.46    1.18
   2  -4  10   13.76    2.75
   2  -4  10   16.44    0.89
  -2  -4 -10   15.06    1.11
  -2  -4 -10   14.63    0.89
  -2   4 -10   13.59    0.93
   2   4  10   15.14    0.97
  -2   4 -10   14.28    1.08
   2   4  10   14.33    1.43
   2   4  10   15.80    3.00
  -4  -4 -10    7.68    0.83
   4  -4  10   10.18    2.33
   4  -4  10    8.99    0.73
  -4  -4 -10    8.50    1.11
   4   4  10    9.09    0.76
  -6  -4 -10    9.82    1.07
   6  -4  10    9.09    2.93
  -6  -4 -10   11.21    1.84
   6  -4  10    7.09    0.94
   6   4  10    9.21    0.89
   6   4  10    8.54    1.58
   6   4  10   10.91    4.03
   8  -4  10    7.19    3.82
   8   4  10   10.11    5.32
  -9  -5  10    1.34    0.97
  -9  -5  10    2.47    5.70
   9  -5 -10    4.13    6.59
   9  -5 -10   -0.20    0.67
   9   5 -10    1.59    0.76
   9   5 -10   -0.88    1.04
  -7  -5  10   -0.40    0.52
  -7  -5  10   -0.22    0.78
  -7  -5  10   -1.70    3.91
   7  -5 -10    0.47    0.39
   7  -5 -10   -2.04    4.06
   7   5 -10   -0.44    0.63
   7   5 -10    0.56    0.51
   7   5 -10    0.99    5.87
   5  -5 -10    1.77    0.53
   5  -5 -10    7.31    3.61
   5  -5 -10    1.65    0.37
  -5  -5  10    2.78    3.71
  -5  -5  10    1.50    0.46
  -5  -5  10    2.57    0.83
  -5   5  10    1.57    0.50
   5   5 -10    1.96    0.52
   3  -5 -10    5.75    0.61
   3  -5 -10    4.50    0.68
  -3  -5  10    5.06    0.89
  -3  -5  10    6.44    0.58
   3  -5 -10    7.81    3.64
  -3  -5  10    4.56    3.28
  -3   5  10    2.71    2.15
   3   5 -10   10.56    3.12
   3   5 -10    6.33    0.64
  -3   5  10    3.86    0.69
   1  -5 -10   -0.30    0.28
  -1  -5  10    0.23    0.52
   1  -5 -10    4.13    3.15
  -1  -5  10    0.18    2.74
  -1  -5  10    0.30    0.21
   1  -5 -10    0.01    0.27
   1   5 -10    0.51    0.31
   1   5 -10   -0.31    1.93
  -1   5  10    0.26    0.63
   1   5 -10    0.88    1.69
  -1   5  10   -1.07    1.76
  -1  -5 -10   72.63    3.68
  -1  -5 -10   73.63    3.79
   1  -5  10   66.35    6.69
  -1  -5 -10   80.20    8.48
   1  -5  10   67.76    4.04
   1   5  10   75.91    6.06
  -1   5 -10   66.50    3.70
   1   5  10   69.32    4.13
   3  -5  10    6.08    0.54
  -3  -5 -10    5.73    0.79
  -3  -5 -10    5.17    0.79
   3  -5  10    7.25    2.99
  -3   5 -10    5.31    0.62
   3   5  10    5.29    0.60
   3   5  10    6.01    1.15
   5  -5  10    8.30    2.83
  -5  -5 -10    9.16    1.53
   5  -5  10   11.25    0.89
  -5  -5 -10   11.20    1.17
   5   5  10    8.45    4.19
   5   5  10    9.81    0.90
   5   5  10    4.48    3.49
   7  -5  10   -3.93    3.14
   7   5  10    0.68    0.57
   7   5  10   -0.17    0.45
   7   5  10    6.59    4.98
  -8  -6  10   20.95    2.45
   8  -6 -10   27.64    7.45
  -8  -6  10   13.38    6.40
   8  -6 -10   20.98    1.79
   8   6 -10   26.51    1.86
   8   6 -10   22.32    1.93
   8   6 -10   34.54    7.23
   6  -6 -10   -4.34    5.18
  -6  -6  10    1.93    0.96
  -6  -6  10   -7.16    4.23
  -6  -6  10    1.80    0.61
   6   6 -10    2.85    4.50
   6   6 -10    0.99    0.52
   6   6 -10    0.13    0.47
   6   6 -10   -5.62    5.69
  -4  -6  10    7.55    4.28
   4  -6 -10    2.05    0.55
  -4  -6  10    3.02    0.52
   4  -6 -10    4.24    4.42
  -4  -6  10    3.38    0.95
   4  -6 -10    2.22    0.47
  -4   6  10    3.81    1.12
   4   6 -10    4.79    3.52
   4   6 -10    2.25    0.53
   4   6 -10   -4.79    3.42
  -2  -6  10   11.15    0.82
   2  -6 -10   16.65    4.79
   2  -6 -10   10.75    1.20
  -2  -6  10   10.60    1.44
   2  -6 -10    9.63    1.05
  -2  -6  10    8.00    4.22
   2  -6 -10    8.67    0.87
   2   6 -10   10.29    0.95
  -2   6  10   12.91    2.82
   2   6 -10   13.61    2.89
  -2   6  10   11.33    2.82
   2   6 -10   11.07    3.01
  -2   6  10   11.44    1.45
   0  -6  10    0.85    0.30
   0  -6 -10    0.32    0.59
   0  -6  10    6.37    3.72
   0  -6 -10    1.13    0.43
   0  -6  10    0.57    0.60
   0  -6 -10    7.14    4.60
   0   6  10   -2.02    2.24
   0   6 -10    0.81    0.37
   0   6  10    0.86    2.68
  -2  -6 -10   12.57    6.53
  -2  -6 -10   20.28    1.53
   2  -6  10   31.99    4.75
   2  -6  10   20.98    1.83
  -2  -6 -10   21.65    1.73
   2   6  10   16.59    2.09
  -2   6 -10   17.98    1.33
   4  -6  10    1.57    0.72
  -4  -6 -10    0.44    0.81
   4  -6  10    0.97    3.71
   4  -6  10    0.54    0.31
   4   6  10    0.29    0.37
   4   6  10    1.01    4.85
   4   6  10    1.13    3.05
   6  -6  10   15.10    4.50
   6  -6  10    9.91    1.06
   6  -6  10   13.91    2.03
   6   6  10   11.48    1.05
   6   6  10    8.69    1.05
   6   6  10    0.25    4.63
  -7  -7  10   -7.58    6.10
   7  -7 -10   -0.05    0.74
  -7  -7  10   -1.53    1.21
   7  -7 -10   -0.09    9.87
   7   7 -10   -1.22    0.80
   5  -7 -10    8.61    1.14
  -5  -7  10   12.11    5.95
  -5  -7  10   10.15    1.57
  -5  -7  10    8.11    1.23
   5  -7 -10    8.45    6.81
   5   7 -10   11.47    5.34
  -5   7  10   10.75    1.65
   5   7 -10    1.03    5.93
   5   7 -10   10.55    1.23
   3  -7 -10   -0.13    0.47
  -3  -7  10   -3.07    4.77
  -3  -7  10    0.59    0.49
  -3  -7  10    1.94    1.03
   3  -7 -10   -0.24    0.65
   3  -7 -10    0.99    5.81
   3   7 -10    3.10    3.74
   3   7 -10    0.56    0.51
   3   7 -10    2.89    4.55
   1  -7 -10    8.72    1.02
  -1  -7  10    9.15    1.70
   1  -7 -10    7.04    1.03
   1  -7 -10   20.44    6.56
  -1  -7  10   11.00    5.87
   1  -7 -10    8.83    1.20
   1   7 -10    8.80    0.98
  -1   7  10    6.59    1.36
  -1   7  10   12.89    3.40
  -1   7  10    5.07    3.64
  -1  -7 -10    9.54    1.26
   1  -7  10   13.81    0.94
   1  -7  10   10.23    5.18
  -1  -7 -10   11.22    1.57
  -1  -7 -10   11.95    1.09
   1  -7  10   13.51    1.74
   1   7  10   10.55    3.94
   1   7  10    6.77    4.74
  -1   7 -10   12.87    1.16
  -3  -7 -10    4.47    1.01
  -3  -7 -10    6.27    1.08
   3  -7  10    2.95    4.59
   3  -7  10    4.11    1.32
   3   7  10    2.40    5.68
   3   7  10   12.31    4.07
  -3   7 -10    4.48    0.73
   5  -7  10    1.15    1.30
   5  -7  10    0.97    0.43
   5  -7  10   -7.78    7.10
   5   7  10    0.96    0.53
   5   7  10    4.27    4.81
  -4  -8  10    5.44    1.57
  -4  -8  10    6.82    1.03
   4  -8 -10    5.36    0.89
   4   8 -10   11.36    5.12
   4   8 -10    7.09    1.04
  -2  -8  10   -0.20    0.68
   2  -8 -10    1.64    1.01
   2  -8 -10    1.18    0.73
  -2  -8  10   -2.19    7.11
  -2  -8  10   -0.24    1.15
   2   8 -10    0.90    0.69
   0  -8  10   16.10    7.00
   0  -8 -10    4.90    0.98
   0  -8 -10    5.83    1.26
   0  -8  10    6.60    1.52
   0  -8  10    8.05    1.15
   0   8 -10    5.37    0.93
   0   8  10   -3.98    3.83
   2  -8  10    1.41    1.34
  -2  -8 -10   -1.37    0.94
  -2  -8 -10   -0.06    0.96
   2  -8  10   -5.74    6.56
   2   8  10    0.76    4.34
  -2   8 -10    0.10    0.71
   2   8  10    6.75    7.62
   4  -8  10    3.66    1.76
   4   8  10   10.21    5.82
  10   0 -11   -0.71    0.69
 -10   0  11   -0.57    3.45
   8   0 -11    0.86    0.46
  -8   0  11    2.45    2.93
   8   0 -11   -8.22    4.30
  -8   0  11   -0.26    0.33
   6   0 -11    1.40    2.83
   6   0 -11   -0.17    0.28
  -6   0  11    0.46    0.27
  -6   0  11    0.37    0.23
  -6   0  11   -2.18    2.54
  -4   0  11    1.31    1.86
   4   0 -11    1.84    1.90
   2   0 -11    0.13    0.15
  -2   0  11    0.53    1.39
   2   0 -11   -0.66    1.54
   2   0 -11    0.14    0.12
   0   0 -11    0.19    0.10
   0   0  11    0.12    0.14
   0   0  11    0.74    1.20
   0   0 -11    0.56    1.35
   0   0 -11    0.01    0.17
   2   0  11    1.61    1.53
  -2   0 -11    0.63    1.77
  -4   0 -11    0.61    0.43
   4   0  11    0.13    0.22
  -4   0 -11    0.38    0.18
   4   0  11    1.74    1.74
  -4   0 -11   -0.40    2.54
  -6   0 -11   -0.15    0.69
   6   0  11   -0.31    0.36
  -6   0 -11   -0.09    0.26
   6   0  11    0.02    2.69
   6   0  11    0.91    0.70
   8   0  11    4.51    4.68
   8   0  11    3.23    1.32
  10   0  11    4.61    7.35
  11  -1 -11    7.23    1.09
  11   1 -11    8.75    1.22
  -9  -1  11   22.12    4.87
   9  -1 -11   22.26    6.50
  -9  -1  11   15.18    1.29
   9  -1 -11   16.99    1.42
   9   1 -11   19.50    1.46
   9   1 -11   13.62    7.71
  -9   1  11   16.68    3.69
  -7  -1  11   11.07    3.63
   7  -1 -11    8.04    0.77
   7  -1 -11    8.75    3.96
  -7  -1  11    6.43    0.66
  -7   1  11    9.24    2.96
   7   1 -11    5.32    0.78
   5  -1 -11    6.50    0.59
   5  -1 -11    9.17    2.59
  -5  -1  11    6.47    0.69
  -5  -1  11    7.13    2.62
  -5  -1  11    7.00    0.54
   5   1 -11    7.46    2.95
  -5   1  11    9.52    2.63
   5   1 -11    6.24    0.62
  -3  -1  11    2.67    2.23
   3  -1 -11    1.81    0.29
   3   1 -11    1.58    0.24
  -3   1  11    3.22    1.70
   3   1 -11    3.79    2.24
   3   1 -11    1.94    0.28
   1  -1 -11   50.04    2.61
  -1  -1  11   41.91    4.29
   1  -1 -11   54.67    4.54
  -1   1  11   45.52    4.06
   1   1 -11   48.75    2.53
   1   1 -11   56.39    4.31
   1   1 -11   51.12    2.60
   1  -1  11    6.64    1.71
   1  -1  11    4.79    0.43
  -1  -1 -11    4.72    0.33
  -1  -1 -11    7.06    2.30
   1   1  11    4.91    0.44
  -1   1 -11    5.51    0.52
  -1   1 -11    5.05    1.76
   1   1  11    4.80    1.51
  -1   1 -11    5.00    0.33
  -3  -1 -11    5.57    0.75
   3  -1  11    5.72    1.73
  -3  -1 -11    5.06    0.45
  -3  -1 -11    6.44    2.93
   3  -1  11    4.85    0.49
  -3   1 -11    3.36    2.11
   3   1  11    4.94    0.49
   3   1  11    7.56    2.06
   3   1  11    5.86    0.90
  -3   1 -11    4.65    0.69
   5  -1  11    1.80    1.98
   5  -1  11    0.00    0.28
   5   1  11    1.28    2.51
   5   1  11   -0.03    0.29
  -5   1 -11    0.76    0.55
   5   1  11    0.54    0.63
  -7  -1 -11    1.70    0.44
  -7  -1 -11    0.94    0.92
   7  -1  11   -1.61    3.59
   7  -1  11    0.40    0.47
   7  -1  11    0.86    0.91
   7   1  11    1.02    0.48
   7   1  11    0.64    1.05
   7   1  11   -3.30    3.59
  -7   1 -11    1.21    0.90
  -7   1 -11    1.18    0.25
   9  -1  11    2.23    5.32
  -9  -1 -11    8.05    1.12
   9  -1  11    5.66    0.96
   9   1  11   11.95    6.29
   9   1  11    6.44    0.95
 -10  -2  11    1.95    0.64
  10  -2 -11    1.59    0.76
 -10  -2  11    4.18    4.51
  10   2 -11    4.40    0.85
  -8  -2  11    1.10    0.56
   8  -2 -11   -3.16    4.22
   8  -2 -11    1.58    0.53
  -8  -2  11    4.55    3.59
   8   2 -11   -5.36    5.27
   8   2 -11    0.76    0.52
  -8   2  11   -0.30    2.64
  -6  -2  11   17.68    1.40
   6  -2 -11   29.70    4.90
   6  -2 -11   20.14    1.27
  -6  -2  11   17.03    4.08
  -6  -2  11   21.46    1.23
  -6   2  11   23.00    4.04
   6   2 -11   18.77    1.29
  -4  -2  11    6.02    0.48
   4  -2 -11    7.83    2.49
  -4  -2  11    4.16    2.49
  -4  -2  11    5.25    0.71
   4  -2 -11    5.90    0.50
   4   2 -11    6.04    2.48
  -4   2  11    6.21    2.33
  -4   2  11    5.32    0.65
   4   2 -11    4.91    0.54
  -2  -2  11   14.78    2.93
   2  -2 -11   11.38    0.83
  -2  -2  11   14.18    0.75
   2  -2 -11    8.52    2.55
  -2   2  11   12.27    2.66
   2   2 -11   15.12    2.83
  -2   2  11   14.05    1.03
   2   2 -11   13.93    0.80
   2   2 -11   12.73    0.78
   0  -2 -11   31.72    4.97
   0  -2 -11   38.41    2.07
   0  -2  11   42.74    4.15
   0  -2 -11   37.74    2.21
   0   2  11   40.73    2.32
   0   2 -11   42.44    2.14
   0   2 -11   43.91    3.77
   0   2  11   36.97    3.68
  -2  -2 -11   40.56    5.13
   2  -2  11   45.55    2.27
  -2  -2 -11   45.45    2.40
  -2   2 -11   41.64    3.92
   2   2  11   43.84    2.57
  -2   2 -11   40.47    2.19
   2   2  11   44.68    2.31
   2   2  11   36.25    4.02
  -2   2 -11   39.55    2.37
  -4  -2 -11    3.22    0.49
   4  -2  11    2.88    0.42
  -4  -2 -11    2.70    0.60
   4  -2  11    3.07    1.86
  -4  -2 -11    8.51    3.68
  -4   2 -11    3.15    0.64
   4   2  11    2.65    0.47
   4   2  11    2.93    2.23
  -6  -2 -11    1.33    0.39
   6  -2  11    1.15    2.45
  -6  -2 -11    0.65    0.82
   6  -2  11    0.05    0.45
   6   2  11    6.61    3.39
  -6   2 -11    0.41    0.81
   6   2  11    1.40    1.02
   8  -2  11    3.29    0.73
  -8  -2 -11    3.94    0.70
   8  -2  11    2.20    4.24
   8   2  11   14.51    5.03
   8   2  11    3.20    0.72
  11  -3 -11    6.17    1.16
  11   3 -11    7.65    1.24
  11   3 -11    7.13    1.71
  -9  -3  11    1.52    0.71
   9  -3 -11    0.16    0.55
  -9  -3  11   -0.23    4.13
   9  -3 -11    4.86    5.66
   7  -3 -11   -1.04    3.64
  -7  -3  11    0.65    3.17
   7  -3 -11    0.82    0.39
  -7  -3  11    0.95    0.41
  -7  -3  11    0.98    0.54
  -7   3  11    1.60    2.17
   7   3 -11    0.88    0.46
   7   3 -11    4.08    4.45
  -5  -3  11   28.99    1.61
  -5  -3  11   30.11    1.88
   5  -3 -11   35.72    5.07
  -5  -3  11   26.74    4.90
   5  -3 -11   28.24    1.64
   5   3 -11   27.21    1.64
  -5   3  11   21.84    4.06
   5   3 -11   23.59    4.07
   3  -3 -11   22.66    1.31
  -3  -3  11   22.60    1.24
  -3  -3  11   25.56    4.27
  -3  -3  11   22.29    1.55
   3  -3 -11   22.97    3.59
   3   3 -11   21.64    1.23
   3   3 -11   24.75    4.18
   3   3 -11   21.85    1.26
  -3   3  11   20.12    1.44
  -3   3  11   24.29    3.63
  -1  -3  11    4.01    2.39
   1  -3 -11    5.01    2.48
  -1  -3  11    4.32    0.32
   1  -3 -11    5.19    0.48
   1  -3 -11    4.77    0.49
   1   3 -11    4.46    1.79
   1   3 -11    4.87    0.45
  -1   3  11    4.34    1.77
  -1   3  11    4.97    0.78
  -1  -3 -11  128.91    9.34
   1  -3  11  125.96    8.37
   1  -3  11  137.11    6.67
  -1  -3 -11  139.62    6.79
  -1  -3 -11  139.09    6.65
  -1   3 -11  125.34    6.75
   1   3  11  124.70    6.73
  -1   3 -11  138.64    6.68
   1   3  11  137.23    8.55
  -1   3 -11  123.75    7.68
   1   3  11  135.18    6.98
   3  -3  11    7.07    2.09
  -3  -3 -11    8.28    3.66
  -3  -3 -11    8.91    0.68
  -3  -3 -11    9.70    0.96
   3  -3  11    8.43    0.63
   3   3  11    8.46    2.41
   3   3  11    7.42    0.65
  -3   3 -11    6.26    1.04
  -3   3 -11    7.29    0.56
   5  -3  11    1.40    0.38
  -5  -3 -11    2.53    0.45
   5  -3  11    2.58    2.32
  -5  -3 -11    2.51    0.79
  -5   3 -11    1.37    0.69
   5   3  11    1.14    0.89
   5   3  11    2.36    0.50
   5   3  11   -4.68    2.39
   7  -3  11    7.06    1.04
   7  -3  11   13.92    3.78
  -7  -3 -11    9.51    1.09
   7   3  11   18.42    4.82
   7   3  11    9.15    1.00
   9  -3  11   18.78    1.96
   9   3  11   30.58    7.73
   9   3  11   19.03    1.82
 -10  -4  11    1.46    5.64
  10  -4 -11    0.27    0.79
 -10  -4  11   -1.39    1.00
  10   4 -11   -1.23    1.22
  10   4 -11    1.61    0.90
   8  -4 -11   -1.44    4.79
  -8  -4  11    0.03    0.77
   8  -4 -11   -0.22    0.46
  -8  -4  11   -0.11    3.90
  -8  -4  11    0.47    0.56
   8   4 -11    1.11    0.83
   8   4 -11   -0.09    0.50
  -6  -4  11    0.77    0.41
   6  -4 -11    2.25    3.44
   6  -4 -11    0.74    0.35
  -6  -4  11    0.11    0.57
  -6  -4  11    2.96    3.64
   6  -4 -11    1.17    0.47
   6   4 -11    2.83    4.08
  -6   4  11    2.92    2.02
   6   4 -11    0.79    0.39
  -4  -4  11   -1.29    2.62
   4  -4 -11    4.12    0.66
   4  -4 -11   11.00    3.04
  -4  -4  11    4.92    0.77
  -4  -4  11    3.94    0.69
   4  -4 -11    4.03    0.57
   4   4 -11    5.13    0.55
   4   4 -11    4.09    0.43
  -4   4  11    7.95    2.20
   4   4 -11    5.64    2.93
   2  -4 -11   10.18    3.31
   2  -4 -11   11.24    0.85
  -2  -4  11   11.31    1.11
  -2  -4  11   12.02    3.10
   2  -4 -11   11.21    0.80
  -2  -4  11   11.12    0.70
   2   4 -11   15.17    2.79
   2   4 -11   11.24    0.84
   2   4 -11   10.67    0.71
  -2   4  11   10.54    2.75
  -2   4  11   11.70    1.14
   0  -4 -11    0.64    2.80
   0  -4  11    1.11    2.31
   0  -4 -11    1.50    0.36
   0  -4 -11    1.08    0.29
   0  -4  11    0.90    0.47
   0   4  11    1.59    0.61
   0   4 -11    1.17    0.32
   0   4 -11    1.39    0.30
   0   4  11    0.44    1.70
   0   4 -11   -0.13    1.38
   2  -4  11    2.51    2.41
  -2  -4 -11    3.48    0.39
  -2  -4 -11    3.98    0.69
   2  -4  11    3.55    0.40
  -2   4 -11    4.34    0.73
   2   4  11    3.79    0.50
   2   4  11    1.85    2.03
  -2   4 -11    3.68    0.45
   2   4  11    2.93    0.76
   4  -4  11    3.16    2.34
  -4  -4 -11   -0.50    0.54
  -4  -4 -11    3.45    4.94
   4  -4  11   -0.36    0.25
   4   4  11    0.24    2.32
  -4   4 -11   -0.41    0.57
   4   4  11   -0.04    0.28
  -6  -4 -11    0.79    0.56
   6  -4  11    1.73    0.51
   6  -4  11   -3.44    2.88
  -6  -4 -11    0.24    1.08
   6   4  11    1.17    0.47
   6   4  11    5.90    3.67
   8  -4  11    4.86    0.86
   8  -4  11   -3.79    4.53
   8   4  11    6.72    5.80
   8   4  11    6.86    1.17
  -9  -5  11    4.01    5.74
   9  -5 -11    0.96    0.69
  -9  -5  11   -1.03    1.00
   9   5 -11    0.80    0.81
   9   5 -11   -0.80    1.11
   7  -5 -11    7.03    4.81
  -7  -5  11    9.16    4.95
  -7  -5  11    3.26    0.91
  -7  -5  11    2.68    0.59
   7  -5 -11    2.94    0.63
   7   5 -11    3.33    0.82
   7   5 -11    2.80    0.64
   5  -5 -11    4.40    3.78
  -5  -5  11    0.07    0.36
  -5  -5  11    1.47    3.66
   5  -5 -11    1.71    0.54
   5  -5 -11    0.74    0.41
   5  -5 -11    0.60    0.33
  -5   5  11    1.13    0.49
   5   5 -11    0.38    0.26
   3  -5 -11   14.63    4.25
  -3  -5  11    8.10    1.12
   3  -5 -11    5.56    0.67
  -3  -5  11    5.22    0.60
  -3  -5  11    9.13    3.27
  -3   5  11    6.53    2.58
  -3   5  11    6.34    1.19
   3   5 -11    6.19    0.68
   3   5 -11    7.17    2.91
  -1  -5  11   22.97    1.28
   1  -5 -11   22.84    1.42
  -1  -5  11   22.80    4.32
  -1  -5  11   26.54    1.85
   1  -5 -11   22.86    1.43
   1  -5 -11   21.11    4.45
   1   5 -11   21.91    1.40
  -1   5  11   22.31    1.89
  -1   5  11   23.42    3.92
   1   5 -11   22.93    2.99
  -1  -5 -11   19.84    1.43
  -1  -5 -11   31.32    5.83
   1  -5  11   21.04    4.11
  -1  -5 -11   21.53    1.26
  -1   5 -11   19.85    1.28
   1   5  11   23.92    4.29
  -1   5 -11   21.16    1.32
   3  -5  11    5.90    3.09
  -3  -5 -11    4.79    0.72
  -3  -5 -11   -0.70    5.18
  -3  -5 -11    4.99    0.87
   3  -5  11    5.96    0.55
   3  -5  11    3.78    0.83
   3   5  11    4.84    1.16
  -3   5 -11    4.94    0.63
   3   5  11    1.12    2.58
   3   5  11    5.30    0.63
  -5  -5 -11    0.35    0.65
   5  -5  11    0.38    0.37
  -5  -5 -11    1.53    0.98
   5   5  11    1.21    0.41
   5   5  11    3.81    3.64
   7  -5  11   -0.15    0.62
   7  -5  11   -0.98    3.81
   7   5  11    0.00    5.23
   7   5  11    0.93    0.61
  -8  -6  11   -8.57    5.96
  -8  -6  11    1.39    1.32
   8  -6 -11    0.99    0.70
   8   6 -11    1.20    0.73
   8   6 -11    4.09    6.80
   8   6 -11   -0.70    1.07
   6  -6 -11  -10.32    5.89
   6  -6 -11    0.84    0.67
  -6  -6  11    0.82    0.95
  -6  -6  11   -1.49    4.57
   6  -6 -11    1.22    0.50
  -6  -6  11    0.47    0.62
   6   6 -11    1.15    0.58
   6   6 -11    8.25    6.14
   6   6 -11    0.96    0.32
   6   6 -11    1.25    0.53
  -4  -6  11    1.77    4.67
   4  -6 -11   -0.20    0.53
   4  -6 -11    0.30    0.40
   4  -6 -11   -0.33    4.74
  -4  -6  11    1.11    0.85
   4   6 -11    5.93    3.70
   4   6 -11    0.10    0.45
   4   6 -11    4.21    3.54
   2  -6 -11    2.23    4.64
   2  -6 -11    1.19    0.41
  -2  -6  11    0.05    3.89
  -2  -6  11    0.90    0.37
  -2  -6  11    0.70    0.71
  -2   6  11    3.68    2.59
  -2   6  11   -0.11    0.73
   2   6 -11    0.82    0.42
  -2   6  11    2.34    2.69
   2   6 -11   -0.26    2.94
   2   6 -11   -2.84    2.48
   0  -6  11   -3.57    3.40
   0  -6  11   -0.21    0.25
   0  -6 -11    0.67    0.46
   0  -6 -11   -0.07    0.42
   0  -6 -11   -1.93    5.17
   0  -6  11    0.94    0.67
   0   6  11   -2.04    2.59
   0   6  11    2.19    2.79
   0   6  11    1.15    0.87
   0   6 -11    0.89    0.45
  -2  -6 -11    4.05    6.86
   2  -6  11    8.21    4.09
   2  -6  11    0.70    0.77
  -2  -6 -11    2.64    0.71
  -2   6 -11    2.19    0.48
   2   6  11    4.77    3.59
   2   6  11    0.52    2.75
   4  -6  11    0.82    0.32
   4  -6  11    0.01    0.77
   4  -6  11   -0.10    3.78
  -4  -6 -11    0.32    0.93
   4   6  11    0.54    0.37
   4   6  11   -2.06    3.37
   6  -6  11   23.66    2.52
   6  -6  11   25.65    5.45
   6  -6  11   25.47    1.61
   6   6  11   28.99    6.49
   6   6  11   22.51    1.68
   7  -7 -11    0.35    0.78
  -7  -7  11    1.94    1.52
  -7  -7  11    4.15    7.34
   7   7 -11    0.03    0.77
   7   7 -11   -2.61    7.36
  -5  -7  11    2.60    1.26
  -5  -7  11    6.55    5.93
   5  -7 -11   -2.90    7.96
   5  -7 -11    0.91    0.53
  -5  -7  11   -0.33    0.69
   5   7 -11    3.68    5.24
   5   7 -11   -5.16    5.37
   5   7 -11    0.97    0.62
  -3  -7  11   -0.04    1.02
  -3  -7  11   -1.16    5.71
  -3  -7  11    0.65    0.55
   3  -7 -11    5.30    6.49
   3  -7 -11   -0.49    0.51
   3   7 -11    5.81    4.07
   3   7 -11    0.25    0.57
   1  -7 -11    6.07    0.82
  -1  -7  11    5.44    1.23
  -1  -7  11    8.18    5.30
  -1  -7  11    6.92    0.82
   1  -7 -11    7.25    0.87
  -1   7  11   13.64    3.98
  -1   7  11    5.98    1.42
   1   7 -11    7.47    0.95
  -1   7  11   10.82    4.46
   1  -7  11    3.02    4.86
  -1  -7 -11    1.39    0.55
   1  -7  11    1.27    0.94
  -1  -7 -11    0.74    0.73
   1   7  11    1.96    3.32
  -1   7 -11    1.51    0.56
   3  -7  11   11.50    2.15
  -3  -7 -11   15.00    1.94
   3  -7  11    2.24    5.70
  -3   7 -11   12.12    1.27
   3   7  11   11.02    4.69
   5  -7  11   16.06    2.72
   5   7  11   13.23    1.27
   5   7  11   14.75    5.86
  -4  -8  11   -4.87    7.76
  -4  -8  11   -0.66    1.45
   4   8 -11   12.26    5.64
   4   8 -11    0.95    0.76
   2  -8 -11    4.13    0.91
  -2  -8  11   17.39    7.75
  -2  -8  11    3.92    1.53
   2   8 -11    4.93    0.88
   0  -8 -11    1.25    0.91
   0  -8  11    1.36    1.42
   0  -8  11   -0.97    7.52
   0  -8 -11    0.92    1.06
   0   8 -11    1.72    0.75
   0   8  11   -3.68    4.29
   2  -8  11    0.29    1.38
  -2  -8 -11   -2.36    1.29
   2  -8  11    1.05    9.38
   2   8  11   -2.81    5.05
  -2   8 -11    1.65    0.80
 -10   0  12   -5.42    4.18
  10   0 -12   -0.40    0.68
   8   0 -12    2.20    4.86
  -8   0  12    5.75    3.64
   8   0 -12    5.35    0.85
   6   0 -12  335.71   16.47
  -6   0  12  324.09   16.43
   6   0 -12  341.28   19.01
  -6   0  12  314.83   18.87
   4   0 -12    2.59    0.41
   4   0 -12    3.91    2.33
  -4   0  12    1.56    2.31
   2   0 -12    4.25    3.22
  -2   0  12    0.77    1.82
   2   0 -12    1.36    0.22
   2   0 -12    1.43    0.26
   0   0  12   -1.15    1.21
   0   0 -12    0.00    0.10
   0   0 -12    0.13    0.20
   0   0 -12   -1.72    1.56
  -2   0 -12   84.85    4.32
   2   0  12   73.73    4.20
  -2   0 -12   80.00    4.11
   2   0  12   83.42    5.96
  -2   0 -12   93.84    6.57
   4   0  12   -0.11    1.91
  -4   0 -12    4.95    2.99
  -4   0 -12    0.33    0.19
  -4   0 -12    0.53    0.45
   4   0  12    0.32    0.23
  -6   0 -12   24.48    1.41
   6   0  12   23.19    4.22
   6   0  12   26.47    1.62
  -6   0 -12   24.05    2.14
   6   0  12   25.24    2.12
   8   0  12   12.85    1.36
  -8   0 -12   13.06    1.01
   8   0  12   14.38    5.32
 -11  -1  12   -8.71    4.86
  11  -1 -12    1.45    0.99
  11   1 -12    0.96    0.90
   9  -1 -12   25.66    7.47
   9  -1 -12   33.71    2.11
  -9  -1  12   28.15    5.40
  -9   1  12   34.25    5.00
   9   1 -12   30.38    2.10
   7  -1 -12   -6.27    3.35
  -7  -1  12    0.10    0.38
  -7  -1  12    1.24    3.10
  -7  -1  12    0.20    0.27
   7  -1 -12   -0.40    0.35
   7   1 -12    0.68    0.40
  -7   1  12    2.65    2.87
   5  -1 -12    5.78    3.57
  -5  -1  12    7.52    0.59
  -5  -1  12    7.48    0.77
   5  -1 -12    7.47    0.65
  -5  -1  12    8.55    2.74
   5   1 -12    7.91    0.67
  -5   1  12    8.27    2.86
   3  -1 -12    2.21    0.34
   3  -1 -12   -0.23    1.86
  -3  -1  12    3.46    2.16
   3  -1 -12    2.34    0.40
   3   1 -12    6.34    2.29
   3   1 -12    2.43    0.33
   3   1 -12    2.73    0.38
  -3   1  12    2.86    1.80
  -1  -1  12   -0.94    1.51
   1  -1 -12   -0.08    1.87
   1  -1 -12    0.11    0.18
   1   1 -12    0.23    0.12
   1   1 -12    0.09    0.16
  -1   1  12   -2.50    1.27
   1   1 -12   -0.54    1.36
   1  -1  12   12.18    2.32
   1  -1  12   10.65    0.70
  -1  -1 -12   11.19    0.80
  -1   1 -12    9.57    0.78
  -1   1 -12    9.50    2.26
   1   1  12   14.75    2.72
  -1   1 -12    9.95    0.59
   1   1  12    9.87    0.72
  -3  -1 -12    5.21    0.97
  -3  -1 -12    8.15    3.28
  -3  -1 -12    3.99    0.42
   3  -1  12    3.80    0.48
   3  -1  12    3.32    1.90
   3   1  12    3.52    0.47
   3   1  12    2.85    1.91
  -3   1 -12    4.04    0.62
  -3   1 -12    4.79    2.31
   5  -1  12   22.76    1.48
  -5  -1 -12   21.99    4.81
   5  -1  12   20.41    3.72
  -5  -1 -12   21.95    1.37
   5   1  12   26.66    2.01
   5   1  12   31.87    4.84
  -7  -1 -12    9.38    0.86
   7  -1  12    7.53    1.32
   7  -1  12    9.05    3.93
   7  -1  12    8.98    1.07
  -7   1 -12    6.64    0.53
   7   1  12    6.05    0.92
   7   1  12    6.50    1.43
  -7   1 -12    4.76    1.38
   7   1  12    5.62    4.30
   9  -1  12    1.16    0.72
   9  -1  12   -1.75    6.21
   9   1  12    0.53    0.79
   9   1  12    3.40    6.62
 -10  -2  12    2.18    0.71
  10  -2 -12    3.99    0.86
 -10  -2  12    1.94    4.75
  10   2 -12    3.19    0.86
  -8  -2  12    6.63    4.09
   8  -2 -12    5.63    4.70
   8  -2 -12    7.91    1.01
  -8  -2  12    7.64    0.88
   8   2 -12    4.91    5.75
   8   2 -12    8.13    0.97
  -8   2  12   10.38    3.27
  -6  -2  12   12.94    3.75
  -6  -2  12   17.80    1.13
  -6  -2  12   16.71    1.34
   6  -2 -12   17.48    1.16
   6  -2 -12   20.42    4.30
  -6   2  12   19.35    3.57
   6   2 -12   17.85    1.21
   4  -2 -12   41.33    2.41
  -4  -2  12   44.68    2.61
  -4  -2  12   45.15    5.44
  -4  -2  12   47.99    2.38
   4  -2 -12   56.39    5.49
  -4   2  12   44.69    2.49
   4   2 -12   52.47    5.18
   4   2 -12   45.91    2.41
   4   2 -12   42.56    2.41
  -4   2  12   39.77    4.94
   2  -2 -12   24.52    1.36
   2  -2 -12   26.99    3.98
  -2  -2  12   22.97    3.98
   2   2 -12   26.84    3.72
  -2   2  12   24.08    1.51
   2   2 -12   22.07    1.28
  -2   2  12   22.24    3.62
   2   2 -12   22.06    1.30
   0  -2  12    1.79    1.86
   0  -2 -12    0.60    0.24
   0  -2 -12   -0.48    2.17
   0  -2 -12    0.58    0.19
   0   2  12    1.27    1.42
   0   2 -12    2.26    1.58
   0   2 -12    0.39    0.23
   0   2  12    0.44    0.45
  -2  -2 -12   83.23    4.11
   2  -2  12   76.08    3.95
   2  -2  12   79.06    5.64
  -2  -2 -12   71.15    6.84
  -2   2 -12   74.39    5.64
  -2   2 -12   78.58    3.88
   2   2  12   80.74    4.01
   2   2  12   66.64    5.87
   2   2  12   73.36    4.25
  -4  -2 -12   22.02    4.74
   4  -2  12   12.56    2.79
   4  -2  12   12.52    0.90
   4   2  12   10.03    2.91
   4   2  12   12.99    0.94
  -4   2 -12   12.43    1.20
  -6  -2 -12    2.29    1.05
   6  -2  12    3.62    0.56
  -6  -2 -12    2.69    0.49
   6  -2  12    3.24    2.99
   6   2  12    2.02    0.48
   6   2  12    3.28    3.55
   6   2  12    4.74    1.27
  -6   2 -12    4.70    1.01
  -8  -2 -12    3.12    0.72
   8  -2  12    4.17    8.00
   8  -2  12    2.20    0.73
   8   2  12   -5.46    5.13
   8   2  12    2.61    0.65
 -11  -3  12    5.00    6.26
  11   3 -12    2.15    1.62
  11   3 -12    2.95    1.15
   9  -3 -12   15.32    8.84
  -9  -3  12   -1.80    4.71
  -9  -3  12    1.83    0.75
   9  -3 -12    2.54    0.68
   9   3 -12    1.91    0.70
   7  -3 -12    1.31    0.45
  -7  -3  12    1.51    0.44
  -7  -3  12    1.91    0.66
   7  -3 -12    6.44    4.19
  -7  -3  12   -0.68    3.38
   7   3 -12    5.21    5.02
  -7   3  12    2.45    2.67
   7   3 -12    1.30    0.67
  -5  -3  12    9.91    1.12
  -5  -3  12    9.00    3.63
   5  -3 -12   16.93    3.62
   5  -3 -12   10.94    0.85
  -5  -3  12   12.46    0.84
  -5   3  12   10.57    3.04
  -5   3  12   12.13    0.97
   5   3 -12   11.11    0.87
   3  -3 -12    9.84    2.83
  -3  -3  12    6.52    0.51
  -3  -3  12    3.00    2.55
  -3  -3  12    7.80    0.92
   3  -3 -12    7.20    0.74
   3   3 -12    7.99    2.71
   3   3 -12    6.56    0.56
  -3   3  12    7.60    0.86
  -3   3  12   11.64    2.61
   3   3 -12    5.58    0.52
   1  -3 -12   18.78    3.73
   1  -3 -12   18.20    1.03
   1  -3 -12   16.43    1.06
  -1  -3  12   12.24    3.08
  -1   3  12   15.14    2.65
   1   3 -12   15.97    1.00
   1   3 -12   15.54    2.64
  -1  -3 -12   29.22    5.94
  -1  -3 -12   30.05    1.85
  -1  -3 -12   32.81    1.69
   1  -3  12   33.15    1.73
   1  -3  12   33.89    4.31
  -1   3 -12   31.19    1.72
   1   3  12   31.44    1.80
   1   3  12   34.03    2.14
   1   3  12   31.90    4.06
  -1   3 -12   26.30    3.43
  -1   3 -12   31.94    1.86
  -3  -3 -12    5.37    0.88
   3  -3  12    3.20    2.10
  -3  -3 -12   -3.64    3.61
  -3  -3 -12    4.36    0.55
   3  -3  12    4.64    0.51
  -3   3 -12    3.95    0.42
   3   3  12    3.49    2.28
  -3   3 -12    4.02    0.67
   3   3  12    4.38    0.55
  -5  -3 -12   -0.21    0.77
  -5  -3 -12   -0.55    4.92
  -5  -3 -12    0.74    0.41
   5  -3  12   -4.72    2.38
   5  -3  12    0.12    0.34
   5   3  12   -2.16    2.62
   5   3  12   -0.12    0.90
  -5   3 -12    0.25    0.80
   5   3  12    0.33    0.32
  -7  -3 -12    1.73    0.64
   7  -3  12    2.74    0.67
   7   3  12    1.37    4.42
   7   3  12    2.22    0.56
   9  -3  12   18.96    6.58
   9   3  12   10.26    7.71
 -10  -4  12   -8.92    5.92
  10  -4 -12   -0.47    0.94
  10   4 -12    0.74    0.91
  10   4 -12    2.24    1.48
   8  -4 -12    9.47    5.38
  -8  -4  12    4.70    4.63
  -8  -4  12    4.70    1.00
   8  -4 -12    4.49    0.71
   8   4 -12    3.97    0.76
  -6  -4  12    4.20    3.97
   6  -4 -12    1.07    0.50
   6  -4 -12   -0.01    0.34
   6   4 -12    7.15    4.49
  -6   4  12    0.51    2.30
   4  -4 -12    1.02    3.06
  -4  -4  12    0.65    0.50
  -4  -4  12    0.73    2.87
   4  -4 -12   -0.22    0.55
   4  -4 -12    0.25    0.31
   4   4 -12    0.25    0.21
   4   4 -12    0.19    0.28
  -4   4  12    0.14    0.51
  -4   4  12   -0.69    2.39
   4   4 -12    4.94    2.95
   2  -4 -12   25.47    4.50
  -2  -4  12   18.85    1.53
   2  -4 -12   19.81    1.26
  -2  -4  12   19.34    1.10
  -2  -4  12   21.25    4.06
   2  -4 -12   20.42    1.24
  -2   4  12   18.82    1.59
  -2   4  12   16.12    3.30
   2   4 -12   29.12    4.27
   2   4 -12   19.15    1.14
   2   4 -12   20.34    1.24
   0  -4  12   18.58    1.51
   0  -4 -12   17.95    1.21
   0  -4  12   15.97    3.58
   0  -4 -12   23.46    5.14
   0  -4 -12   17.12    1.09
   0   4  12   17.18    1.55
   0   4 -12   16.87    1.10
   0   4  12   21.39    3.78
   0   4 -12   19.80    2.73
   0   4 -12   18.82    1.16
   2  -4  12   15.62    3.44
  -2  -4 -12   16.42    1.24
  -2  -4 -12   13.95    0.92
   2  -4  12   17.33    0.96
   2   4  12   14.59    3.14
  -2   4 -12   15.87    1.23
  -2   4 -12   13.94    0.96
   2   4  12   15.42    1.05
  -4  -4 -12    6.02    5.35
  -4  -4 -12    1.37    0.70
   4  -4  12    1.87    0.35
   4  -4  12   -0.59    2.60
   4   4  12    1.11    0.89
   4   4  12    2.19    2.87
  -4   4 -12    2.63    0.72
   4   4  12    0.97    0.37
  -6  -4 -12    2.75    0.72
   6  -4  12    5.62    3.46
   6  -4  12    3.46    0.60
   6   4  12    2.95    0.59
   6   4  12    4.71    3.75
   8  -4  12   14.51    5.44
   8  -4  12   10.19    1.49
   8   4  12   12.28    1.39
   8   4  12    0.63    6.18
   9  -5 -12    2.47    0.81
  -9  -5  12   -4.48    6.30
  -9  -5  12    1.92    1.12
   9   5 -12    3.16    0.83
   9   5 -12    3.51    1.28
   7  -5 -12    2.09    0.58
  -7  -5  12   12.12    5.66
  -7  -5  12    3.51    0.68
   7  -5 -12   10.37    5.38
  -7  -5  12    3.30    1.04
   7   5 -12    1.95    0.87
   7   5 -12    4.62    0.67
  -5  -5  12   -0.34    0.37
   5  -5 -12    1.25    0.56
   5  -5 -12   -0.74    0.33
  -5  -5  12   -0.45    4.25
   5  -5 -12    0.59    0.43
  -5  -5  12   -0.25    0.65
   5  -5 -12    4.00    4.51
  -5   5  12   -3.11    2.32
   5   5 -12    0.33    0.26
   5   5 -12   -0.88    4.54
  -5   5  12   -0.02    0.53
  -3  -5  12    4.99    0.60
   3  -5 -12   11.61    4.37
  -3  -5  12    6.19    1.21
  -3  -5  12    8.43    4.67
   3  -5 -12    6.21    0.72
  -3   5  12    6.83    2.66
   3   5 -12    6.56    0.55
   3   5 -12    9.08    3.37
  -1  -5  12   12.44    3.98
  -1  -5  12   11.76    0.73
   1  -5 -12   13.03    0.97
   1  -5 -12   11.73    0.91
  -1  -5  12    8.36    1.27
   1  -5 -12   15.98    4.55
  -1   5  12    9.72    2.97
   1   5 -12   11.72    0.91
   1   5 -12   18.74    3.43
   1   5 -12   11.24    0.85
  -1   5  12   12.17    1.51
   1  -5  12    0.22    0.61
  -1  -5 -12    1.51    4.59
   1  -5  12    5.09    3.28
   1   5  12    5.07    2.56
   1   5  12    0.44    0.79
  -3  -5 -12    6.46    0.90
   3  -5  12    4.59    0.56
   3  -5  12    3.00    0.81
  -3  -5 -12    5.03    6.31
  -3  -5 -12    3.86    0.88
   3  -5  12    2.70    3.39
  -3   5 -12    5.04    0.63
   3   5  12    6.80    1.24
   3   5  12   -1.57    2.84
   3   5  12    5.08    0.67
   5   5  12   -3.45    3.54
   5   5  12    1.23    0.46
   7  -5  12   -0.08    4.37
   7  -5  12   -0.22    0.69
   7   5  12    2.79    5.37
   7   5  12    0.20    0.61
  -8  -6  12    4.98    1.43
  -8  -6  12   13.77    6.79
   8  -6 -12    3.68    0.85
   6  -6 -12   45.61    7.92
   6  -6 -12   33.91    2.14
  -6  -6  12   41.28    7.56
  -6  -6  12   33.56    2.84
  -6  -6  12   35.46    2.18
   6   6 -12   31.86    2.11
   6   6 -12   27.22    7.26
   6   6 -12   36.75    2.25
   4  -6 -12    1.57    0.64
  -4  -6  12    2.81    4.79
   4  -6 -12   -6.18    5.28
   4  -6 -12    1.37    0.51
  -4  -6  12    0.66    0.51
   4   6 -12    0.84    0.52
  -4   6  12    0.69    2.44
  -4   6  12    1.69    0.87
  -4   6  12    1.09    2.61
   4   6 -12    3.34    4.11
  -2  -6  12    0.23    0.70
  -2  -6  12   -1.87    4.32
   2  -6 -12   -0.35    0.47
   2  -6 -12    0.83    0.46
   2  -6 -12    4.25    5.47
  -2  -6  12   -0.15    0.35
   2   6 -12    0.49    0.43
  -2   6  12    5.46    3.15
   2   6 -12   -0.85    3.07
  -2   6  12    0.31    4.15
   2   6 -12    5.36    2.81
   0  -6 -12    5.20    0.90
   0  -6  12    2.19    4.50
   0  -6 -12   -4.97    5.73
   0  -6  12    3.65    0.97
   0   6  12    2.63    1.12
   0   6 -12    3.43    0.58
   0   6  12    0.54    2.87
  -2  -6 -12    2.37    0.72
   2  -6  12    2.48    0.95
   2  -6  12    3.47    4.49
  -2   6 -12    2.51    0.55
   2   6  12    2.80    3.74
   2   6  12    2.97    3.07
   4  -6  12    3.55    1.09
   4  -6  12    8.91    4.66
   4   6  12   -6.04    3.91
   6  -6  12    1.85    1.27
   6   6  12    1.45    0.64
   6   6  12    4.12    5.87
  -7  -7  12    1.86    1.55
   7   7 -12   -9.32    7.83
  -5  -7  12    9.84    6.72
   5  -7 -12    0.31    0.60
  -5  -7  12   -1.22    0.73
  -5  -7  12    0.57    1.16
   5   7 -12    5.29    6.42
   5   7 -12   -7.85    5.53
   5   7 -12    1.15    0.68
  -3  -7  12    1.61    0.59
  -3  -7  12   -7.83    6.05
  -3  -7  12    3.84    1.18
   3  -7 -12    3.01    0.70
   3   7 -12    5.86    4.23
  -3   7  12    4.67    1.32
   3   7 -12    2.19    0.68
  -1  -7  12    2.32    1.12
   1  -7 -12    2.18    0.74
  -1  -7  12    2.03    0.50
  -1  -7  12    1.80    5.49
   1  -7 -12    3.17    0.68
  -1   7  12    3.27    1.30
  -1   7  12    9.33    4.25
  -1   7  12    8.21    4.40
   1   7 -12    2.98    0.61
   1  -7  12   12.86    5.53
  -1  -7 -12   -0.43    0.81
  -1  -7 -12    0.16    0.55
   1  -7  12    0.20    0.98
   1   7  12    0.88    3.67
   1   7  12   -3.87    5.08
  -1   7 -12    0.25    0.56
   3  -7  12    3.58    5.64
   3  -7  12    3.03    1.39
   3   7  12    1.12    4.38
  -3   7 -12    1.04    0.69
   5  -7  12    0.48    1.46
   5   7  12    0.85    0.63
  -4  -8  12    6.08    1.82
  -4  -8  12   -4.38    8.57
   4   8 -12    3.11    0.97
  -2  -8  12   -1.07    8.37
  -2  -8  12   -1.51    1.39
   2   8 -12    1.72    0.72
   0  -8  12    4.56    8.44
   0  -8  12    1.09    1.40
   0  -8 -12    0.69    1.27
   0   8 -12   -0.17    0.70
   0   8  12   -2.55    4.91
   2  -8  12    6.18    1.75
   2  -8  12    8.30    8.17
   2   8  12    9.27    5.67
  -2   8 -12    8.04    1.10
  10   0 -13    0.17    0.73
   8   0 -13   -3.83    5.24
   8   0 -13    0.49    0.47
  -8   0  13   -1.11    4.76
   6   0 -13    3.99    5.12
  -6   0  13   -1.47    2.82
  -4   0  13    1.85    2.28
  -2   0  13    0.71    1.92
   2   0 -13    0.25    1.83
   2   0 -13    0.02    0.17
   0   0 -13    1.17    2.26
   0   0  13    0.79    1.48
   2   0  13    1.41    1.81
  -2   0 -13    1.57    2.45
  -4   0 -13   -0.21    0.19
   4   0  13    0.28    0.27
   4   0  13   -0.35    2.09
  -4   0 -13    4.18    3.15
  -6   0 -13    2.28    0.92
   6   0  13   -3.32    4.02
  -6   0 -13    0.07    0.28
   6   0  13    0.52    0.40
   6   0  13    2.59    1.02
   8   0  13    0.08    0.59
   8   0  13   -3.96    4.88
  11  -1 -13    9.34    1.35
 -11  -1  13    3.74    6.08
  11   1 -13    8.27    1.18
  -9  -1  13   16.67    5.21
   9  -1 -13    7.96    1.18
   9   1 -13    8.28    1.23
  -9   1  13   14.74    4.49
  -7  -1  13    0.05    0.44
   7  -1 -13    1.02    0.41
  -7  -1  13    0.10    0.32
   7  -1 -13    8.91    4.31
  -7   1  13    1.49    3.00
   7   1 -13    0.06    0.36
   5  -1 -13   12.49    0.89
  -5  -1  13   17.95    3.90
   5  -1 -13   10.50    3.48
  -5  -1  13   11.59    1.00
  -5   1  13    6.34    2.88
   5   1 -13   12.17    0.91
   3  -1 -13   21.44    1.35
   3  -1 -13   24.13    1.32
  -3  -1  13   29.28    4.35
   3  -1 -13   27.38    3.89
  -3   1  13   17.76    3.28
   3   1 -13   25.63    4.17
   3   1 -13   23.41    1.32
   3   1 -13   23.04    1.34
   1  -1 -13   21.93    3.29
   1  -1 -13   22.32    1.32
  -1  -1  13   24.49    3.82
   1  -1 -13   20.76    1.22
  -1   1  13   22.75    3.47
   1   1 -13   23.27    1.21
   1  -1  13   84.27    4.27
  -1  -1 -13   82.83    6.74
  -1  -1 -13   93.96    4.38
   1  -1  13   75.89    6.08
   1   1  13   77.08    4.28
  -1   1 -13   84.04    4.16
  -1   1 -13   86.37    6.34
  -1   1 -13   83.26    4.34
   1   1  13   72.45    5.97
   3  -1  13    1.54    1.94
  -3  -1 -13    1.54    0.27
  -3  -1 -13    0.71    3.40
   3  -1  13    0.87    0.29
   3   1  13   -0.25    1.74
   3   1  13    1.26    0.32
  -3   1 -13    1.00    2.43
  -3   1 -13    0.14    0.45
   5  -1  13   -1.76    2.39
  -5  -1 -13    2.70    0.40
   5   1  13    2.07    0.44
   5   1  13    4.08    1.26
  -5   1 -13    1.21    0.74
   7  -1  13   -0.02    0.47
  -7  -1 -13    0.38    0.43
   7  -1  13   -3.51    3.78
   7   1  13    0.04    4.05
   7   1  13    0.04    0.45
   9  -1  13    2.43    0.82
   9  -1  13    4.04    6.78
   9   1  13   -2.34    7.00
   9   1  13    2.81    0.85
 -10  -2  13    5.17    5.81
  10  -2 -13    9.21    1.48
  10   2 -13   12.16    1.50
  -8  -2  13    1.51    0.58
  -8  -2  13   -3.14    3.82
   8  -2 -13    7.01    5.13
  -8  -2  13    1.47    0.51
   8  -2 -13    1.42    0.52
   8   2 -13    2.13    0.57
  -8   2  13    4.95    3.44
   6  -2 -13   68.37    7.52
   6  -2 -13   62.30    3.38
  -6  -2  13   63.15    3.31
  -6  -2  13   63.91    3.54
   6   2 -13   48.71    7.69
  -6   2  13   59.92    6.28
   6   2 -13   65.22    3.39
   4  -2 -13    0.93    0.26
  -4  -2  13    1.20    0.24
  -4  -2  13    1.62    2.81
  -4  -2  13    0.41    0.38
   4  -2 -13    1.77    2.73
   4   2 -13   -2.10    2.58
  -4   2  13    0.86    0.41
   4   2 -13    0.84    0.28
  -4   2  13    1.34    2.28
   4   2 -13    0.52    0.25
   2  -2 -13    7.22    0.60
   2  -2 -13    5.90    0.50
   2  -2 -13   10.57    2.91
  -2  -2  13    6.63    2.67
   2   2 -13    5.87    0.50
   2   2 -13    6.80    2.49
  -2   2  13    6.62    2.46
  -2   2  13    6.17    0.82
   2   2 -13    6.64    0.54
   0  -2 -13    0.06    2.69
   0  -2 -13    0.14    0.18
   0  -2  13    1.16    2.08
   0  -2 -13    0.37    0.28
   0   2 -13    0.39    0.25
   0   2  13    0.07    0.38
   0   2 -13   -0.22    0.15
   0   2  13    0.13    1.68
   0   2 -13   -2.49    1.79
  -2  -2 -13   10.79    3.48
   2  -2  13   11.04    0.83
   2  -2  13   17.40    2.93
  -2   2 -13   12.08    0.74
  -2   2 -13   13.27    1.08
   2   2  13   14.73    0.91
  -2   2 -13   14.21    2.64
   2   2  13   13.08    1.34
   2   2  13   13.18    2.80
  -4  -2 -13    8.75    4.51
   4  -2  13    0.94    0.29
   4  -2  13   -2.54    2.24
  -4  -2 -13    1.36    0.35
  -4   2 -13    0.98    0.59
   4   2  13    0.20    0.33
  -6  -2 -13    7.06    0.92
   6  -2  13    4.05    3.64
   6  -2  13    8.42    0.95
   6   2  13    9.90    0.95
   6   2  13   15.67    4.64
  -6   2 -13   10.03    1.82
   6   2  13   10.97    2.07
  -8  -2 -13    3.03    0.84
   8  -2  13    1.43    0.72
   8  -2  13    5.89    5.40
   8   2  13    1.75    0.73
   8   2  13    2.53    5.72
  -9  -3  13    3.16    5.08
   9  -3 -13    0.51    0.69
  -9  -3  13    0.48    0.74
   9   3 -13   -0.53    0.66
   7  -3 -13    7.13    0.83
  -7  -3  13    5.36    0.85
  -7  -3  13    9.89    4.34
   7  -3 -13    7.92    4.90
  -7  -3  13    5.23    0.78
  -7   3  13    5.92    3.35
   7   3 -13    6.42    5.50
   7   3 -13    5.21    0.91
  -5  -3  13    7.24    1.02
   5  -3 -13    6.37    0.69
   5  -3 -13    6.42    3.67
  -5  -3  13    7.18    0.65
   5   3 -13    6.55    0.74
  -5   3  13    2.71    2.84
  -5   3  13    6.07    0.86
   5   3 -13    8.79    0.68
   3  -3 -13    3.52    0.52
   3  -3 -13    6.12    3.02
  -3  -3  13    3.06    0.36
  -3  -3  13    0.31    3.01
   3   3 -13    3.31    0.39
  -3   3  13    4.35    0.67
   3   3 -13    8.16    2.79
   3   3 -13    2.92    0.42
  -3   3  13    6.81    2.67
  -1  -3  13   19.13    3.67
   1  -3 -13   22.22    1.41
   1  -3 -13   24.94    1.37
   1   3 -13   24.15    1.38
  -1   3  13   24.77    1.70
  -1   3  13   22.32    3.74
   1   3 -13   23.55    3.86
   1   3 -13   22.30    1.35
   1  -3  13   33.11    4.92
  -1  -3 -13   35.20    2.12
  -1  -3 -13   37.03    1.93
   1  -3  13   34.27    1.98
  -1   3 -13   37.86    2.14
   1   3  13   41.99    4.54
  -1   3 -13   34.38    1.96
   1   3  13   40.52    2.42
  -1   3 -13   40.91    4.05
   1   3  13   37.27    2.07
   3  -3  13    7.33    0.65
  -3  -3 -13    9.17    1.06
   3  -3  13    9.27    2.70
  -3  -3 -13    6.99    0.68
  -3   3 -13    6.36    0.54
  -3   3 -13    8.66    1.00
   3   3  13    5.54    0.80
  -5  -3 -13    5.77    6.36
  -5  -3 -13    9.45    1.68
   5  -3  13   13.25    3.32
   5  -3  13    9.65    0.89
   5   3  13    5.29    3.43
   5   3  13    9.81    0.89
   5   3  13    6.84    1.44
  -7  -3 -13    2.20    0.77
   7  -3  13    2.57    0.68
   7  -3  13    8.60    4.49
   7   3  13    3.21    0.64
   7   3  13   10.95    5.26
  10  -4 -13   -1.09    1.48
 -10  -4  13    1.42    6.29
  10   4 -13   -0.17    0.93
  10   4 -13   -1.92    1.46
  -8  -4  13   13.92    5.78
   8  -4 -13   13.86    1.36
  -8  -4  13   16.88    2.09
   8   4 -13   14.01    1.38
  -6  -4  13   23.12    5.41
   6  -4 -13   21.36    1.48
   6  -4 -13   23.91    1.61
   6  -4 -13   36.07    5.72
  -6  -4  13   23.16    1.90
  -6  -4  13   20.42    1.42
  -6   4  13   23.46    3.90
   6   4 -13   16.07    5.84
   6   4 -13   22.90    1.49
  -4  -4  13   17.02    1.57
   4  -4 -13   17.74    1.18
   4  -4 -13   15.51    1.15
  -4  -4  13   15.65    1.15
  -4  -4  13   14.82    4.55
   4   4 -13   21.67    4.19
   4   4 -13   17.21    1.10
  -4   4  13   17.93    1.45
  -4   4  13   15.08    3.65
   2  -4 -13    1.60    0.40
   2  -4 -13    1.03    0.35
  -2  -4  13    1.95    0.63
  -2  -4  13    0.47    3.24
   2  -4 -13   -0.43    3.26
   2   4 -13    1.95    0.37
   2   4 -13   -2.99    3.87
  -2   4  13    1.20    2.55
  -2   4  13    1.64    0.63
   0  -4 -13    7.41    0.67
   0  -4  13    6.92    3.22
   0  -4 -13    8.40    0.84
   0   4 -13   11.46    2.41
   0   4  13    8.52    2.93
   0   4 -13    7.60    0.69
   0   4  13    8.43    1.29
   0   4 -13    8.94    0.83
   2  -4  13    6.86    3.22
   2  -4  13    3.23    0.47
  -2  -4 -13    3.19    0.41
  -2  -4 -13    5.36    0.77
  -2  -4 -13    6.36    4.86
  -2   4 -13    3.49    0.49
   2   4  13    3.51    0.85
  -2   4 -13    4.89    0.79
   2   4  13    2.85    2.44
  -4  -4 -13    0.02    0.75
   4  -4  13    0.28    2.83
  -4  -4 -13   -1.26    5.85
   4  -4  13    0.39    0.33
   4   4  13    0.13    0.31
  -4   4 -13   -0.19    0.65
   4   4  13    0.25    0.90
   6  -4  13   -5.93    3.57
  -6  -4 -13    1.04    0.69
   6  -4  13   -0.39    0.45
   6   4  13   -2.31    4.05
   6   4  13    0.46    0.46
   8  -4  13   24.39    1.97
   8   4  13   52.30   13.13
   8   4  13   23.27    2.02
  -9  -5  13    9.96    1.65
   9  -5 -13   16.10    1.75
  -9  -5  13   10.77    7.46
   9   5 -13   12.05    1.60
   9   5 -13   14.12    2.36
  -7  -5  13   -0.76    0.80
  -7  -5  13   -0.27    0.60
  -7  -5  13   -4.31    5.21
   7  -5 -13   -0.41    0.46
   7   5 -13    1.17    0.58
   7   5 -13    1.62    0.90
   5  -5 -13    2.67    0.72
  -5  -5  13    3.37    0.96
   5  -5 -13    2.59    0.51
  -5  -5  13    4.01    0.57
   5  -5 -13   -2.95    5.24
  -5  -5  13    5.17    4.39
   5  -5 -13    3.62    0.62
   5   5 -13    3.23    0.55
  -5   5  13    6.52    3.01
   5   5 -13   11.17    4.47
  -5   5  13    3.16    0.75
   3  -5 -13    5.86    0.93
  -3  -5  13    3.45    0.44
  -3  -5  13    8.26    4.04
   3  -5 -13   -1.21    4.36
  -3  -5  13    2.81    0.85
   3  -5 -13    2.33    0.50
   3   5 -13    9.65    3.30
   3   5 -13    3.18    0.51
  -3   5  13    4.51    3.19
   3   5 -13    3.67    0.54
  -3   5  13    2.20    0.83
  -1  -5  13    1.63    0.24
  -1  -5  13    1.03    0.65
   1  -5 -13    1.79    4.80
   1  -5 -13    2.00    0.49
  -1  -5  13    0.13    3.78
   1  -5 -13    1.38    0.41
   1   5 -13   -2.12    2.22
   1   5 -13    1.56    0.41
   1   5 -13    1.47    0.40
  -1   5  13   -3.75    2.36
   1  -5  13    7.41    1.22
  -1  -5 -13   10.84    1.11
   1  -5  13   14.83    4.25
  -1  -5 -13   20.68    5.90
  -1  -5 -13   10.22    0.79
   1   5  13    4.90    3.01
  -1   5 -13   10.36    0.82
  -1   5 -13    9.01    1.01
   3  -5  13   14.56    0.95
  -3  -5 -13   13.76    1.65
  -3  -5 -13   15.77    1.27
   3  -5  13   11.57    4.45
  -3   5 -13   12.79    1.50
   3   5  13   13.32    1.08
  -3   5 -13   15.19    1.06
   3   5  13    9.59    3.77
   5  -5  13    0.72    3.99
   5  -5  13    6.10    0.81
   5   5  13    4.67    0.68
   5   5  13    9.01    4.81
   7   5  13   -3.69    6.15
   7   5  13    7.13    1.24
   8  -6 -13    1.71    1.11
  -8  -6  13    0.49    1.43
  -6  -6  13    6.81    0.91
   6  -6 -13    7.70    1.04
  -6  -6  13    5.24    1.25
  -6  -6  13    4.62    6.25
   6   6 -13    7.76    1.21
   6   6 -13    8.26    1.21
  -4  -6  13   -4.00    5.32
  -4  -6  13    1.43    0.98
   4  -6 -13    4.25    6.84
  -4  -6  13    2.11    0.51
  -4   6  13    1.08    0.91
   4   6 -13    0.74    0.60
  -4   6  13    3.88    2.77
  -4   6  13   -1.35    3.13
  -2  -6  13    1.70    0.79
   2  -6 -13   -3.12    6.06
   2  -6 -13    0.55    0.49
  -2  -6  13    0.67    0.34
   2  -6 -13    0.03    0.52
  -2  -6  13   -1.15    4.72
  -2   6  13    7.78    3.43
  -2   6  13    1.49    1.07
   2   6 -13    0.61    0.48
   2   6 -13   -1.90    3.37
   0  -6  13   -0.56    4.74
   0  -6  13    0.46    0.71
   0  -6 -13    2.10    0.62
   0   6  13    0.20    3.36
   0   6 -13   -0.62    0.39
   2  -6  13    1.08    5.05
   2  -6  13    1.32    0.82
  -2  -6 -13    1.08    0.77
   2   6  13    2.85    3.59
   4  -6  13    2.09    1.13
   4  -6  13   -0.72    4.95
   4  -6  13    3.46    0.49
   4   6  13    8.98    4.38
   4   6  13    3.23    0.64
   6  -6  13   -0.13    0.58
   6  -6  13    0.43    1.45
   6   6  13    3.75    6.92
   6   6  13    0.91    0.62
  -5  -7  13    4.90    0.88
  -5  -7  13    2.60    1.33
  -5  -7  13    1.54    7.19
   5   7 -13   -2.55    6.59
   5   7 -13    4.49    0.91
  -3  -7  13    0.98    1.14
  -3  -7  13    2.68    6.82
  -3   7  13    6.44    3.87
   3   7 -13    3.52    4.42
  -3   7  13    1.20    1.32
  -1  -7  13   -6.31    6.48
  -1  -7  13    3.36    1.16
   1  -7 -13    3.98    0.87
  -1   7  13    8.94    4.86
  -1   7  13   -5.14    4.83
   1  -7  13   -4.40    6.41
   1  -7  13    1.29    1.10
  -1   7 -13    3.26    0.68
   1   7  13   -2.00    4.42
   3  -7  13   -7.70    6.66
   3  -7  13    0.27    1.25
   3   7  13    5.34    5.00
  -3   7 -13    1.52    0.74
  -2  -8  13    8.23    9.29
  -2  -8  13    3.75    1.67
   0  -8  13    1.73    1.39
   0  -8  13   -1.43    8.49
   0   8  13    2.68    5.77
   0   8 -13    1.71    0.88
 -10   0  14   27.68    6.56
  10   0 -14   31.81    2.32
  -8   0  14    3.22    4.40
   8   0 -14    1.08    0.51
  -6   0  14   -0.05    2.90
   6   0 -14    0.34    0.35
  -6   0  14   -0.25    0.35
  -4   0  14   30.19    4.95
   4   0 -14   33.41    1.80
   4   0 -14   29.90    1.76
  -2   0  14   26.23    4.38
   2   0 -14   22.89    3.53
   2   0 -14   24.51    1.40
   2   0 -14   27.05    1.48
   0   0 -14    6.25    2.59
   0   0  14    9.23    2.43
   0   0 -14    8.30    0.53
  -2   0 -14   63.30    3.27
  -2   0 -14   66.84    6.47
   2   0  14   64.97    3.40
  -2   0 -14   66.56    3.53
   2   0  14   59.08    5.51
  -4   0 -14   50.38    8.00
   4   0  14   51.86    5.66
  -4   0 -14   43.53    2.36
   6   0  14    2.11    3.53
   6   0  14    4.65    0.66
  -6   0 -14    3.16    0.51
   8   0  14    2.15    5.45
   8   0  14    2.17    0.66
  11  -1 -14    0.58    1.17
 -11  -1  14   -3.96    7.39
  11   1 -14    1.65    1.10
  -9  -1  14   17.97    5.45
   9  -1 -14    9.73    1.29
   9   1 -14    8.17    1.27
   7  -1 -14   13.21    5.07
  -7  -1  14   17.56    4.94
   7  -1 -14    8.77    0.99
  -7  -1  14    8.70    1.02
  -7   1  14   10.28    3.96
   7   1 -14    1.23    4.74
  -5  -1  14   -1.47    2.81
   5  -1 -14   -1.88    2.98
  -5  -1  14   -0.30    0.39
   5  -1 -14    0.16    0.28
   5   1 -14    0.59    0.33
  -5   1  14    1.42    2.94
   3  -1 -14    0.73    0.24
  -3  -1  14    0.28    2.42
   3  -1 -14    0.82    0.25
   3   1 -14   -2.76    2.36
   3   1 -14    0.48    0.24
   3   1 -14    0.52    0.23
  -3   1  14    0.67    2.41
  -1  -1  14    2.02    2.29
   1  -1 -14    0.64    0.18
   1  -1 -14    0.46    0.25
   1  -1 -14   -1.28    2.15
   1   1 -14    0.64    0.18
  -1   1  14   -0.10    1.88
   1   1 -14    0.68    0.27
   1   1 -14    0.88    2.10
  -1  -1 -14  180.04   12.35
   1  -1  14  208.92   12.05
   1  -1  14  217.77   10.02
  -1  -1 -14  190.11   10.07
   1   1  14  191.78   11.86
  -1   1 -14  200.25    9.88
  -1   1 -14  230.47   12.36
   1   1  14  171.75    9.99
  -1   1 -14  201.98   10.07
   3  -1  14    4.94    0.56
  -3  -1 -14    4.28    0.49
   3  -1  14    4.53    2.27
  -3  -1 -14    9.97    4.03
  -3   1 -14    8.42    3.10
   3   1  14    3.20    0.51
  -3   1 -14    2.44    0.60
   3   1  14    4.13    2.49
  -5  -1 -14    1.25    0.38
   5  -1  14    0.97    0.38
  -5  -1 -14   -1.82    4.61
  -5  -1 -14    1.89    0.82
   5  -1  14    4.03    3.00
   5   1  14    1.94    2.76
  -5   1 -14    0.52    0.77
   5   1  14    0.51    0.37
   5   1  14    0.89    0.92
  -7  -1 -14   -0.12    0.50
   7  -1  14    0.59    0.54
   7  -1  14    8.35    4.73
   7   1  14   -4.25    4.19
   7   1  14    0.36    0.49
 -10  -2  14   13.05    6.15
 -10   2  14   -6.32    3.93
  10   2 -14    2.38    0.82
  -8  -2  14   16.00    1.38
  -8  -2  14   21.44    1.64
   8  -2 -14   18.63    1.50
  -8  -2  14   26.13    5.78
   8   2 -14   20.66    1.50
  -8   2  14   20.34    4.77
   6  -2 -14   42.92    2.51
  -6  -2  14   46.86    7.12
   6  -2 -14   49.97    6.32
  -6  -2  14   46.57    2.40
  -6  -2  14   45.40    2.67
   6   2 -14   47.81    7.56
   6   2 -14   44.05    2.48
  -6   2  14   33.40    5.95
  -6   2  14   41.61    2.39
   4  -2 -14    7.75    3.24
   4  -2 -14    7.03    0.63
  -4  -2  14    7.53    3.58
   4   2 -14   11.91    3.50
  -4   2  14    7.11    0.92
  -4   2  14    5.51    2.95
   4   2 -14    7.40    0.64
   4   2 -14    6.38    0.65
   2  -2 -14    5.30    0.50
  -2  -2  14   10.94    3.19
   2   2 -14    5.40    0.49
  -2   2  14    5.28    0.84
   2   2 -14    6.27    0.57
  -2   2  14    5.99    2.48
   2   2 -14    5.11    2.66
   0  -2 -14    2.20    0.36
   0  -2  14    3.75    2.76
   0  -2 -14    2.10    2.93
   0   2 -14    2.31    0.38
   0   2 -14    1.79    0.27
   0   2  14    0.53    2.07
   0   2 -14    3.63    2.43
   0   2  14    2.77    0.62
   2  -2  14    0.67    0.25
  -2  -2 -14   -1.84    3.23
   2  -2  14   -1.04    2.16
  -2   2 -14   -0.06    0.14
  -2   2 -14    1.70    2.34
   2   2  14   -1.66    2.09
  -2   2 -14    0.16    0.41
   2   2  14    0.16    0.23
   4  -2  14    0.48    0.30
   4  -2  14    4.73    2.71
  -4  -2 -14    0.87    0.37
  -4  -2 -14    0.42    0.69
   4   2  14    0.73    0.99
   4   2  14   -0.47    2.35
   4   2  14    0.28    0.31
   6  -2  14   17.99    4.82
   6  -2  14   12.20    1.12
  -6  -2 -14   11.54    1.11
   6   2  14   17.10    4.55
  -6   2 -14   12.37    1.98
   6   2  14   13.09    1.14
   8  -2  14    2.29    0.75
   8  -2  14   -8.18    5.70
   8   2  14    7.79    6.49
   8   2  14    1.92    0.77
   9  -3 -14    2.85    0.78
  -9  -3  14    0.33    5.71
  -9  -3  14    1.77    0.94
   9   3 -14    0.73    0.75
  -9   3  14    1.54    3.27
  -7  -3  14   -0.33    0.62
  -7  -3  14   -6.15    4.26
   7  -3 -14   -0.42    0.42
   7  -3 -14    5.31    5.14
  -7  -3  14    0.65    0.40
   7   3 -14    0.73    0.48
  -7   3  14   -0.21    3.30
  -5  -3  14   13.27    0.90
  -5  -3  14   11.68    3.94
   5  -3 -14   23.31    4.90
  -5  -3  14   12.88    1.36
   5  -3 -14   13.60    1.05
   5  -3 -14   10.80    0.99
   5   3 -14   13.95    0.99
   5   3 -14   13.11    0.94
  -5   3  14   15.74    3.92
  -5   3  14   12.37    1.13
   5   3 -14   20.32    4.41
   3  -3 -14   14.13    0.93
   3  -3 -14   15.24    1.01
  -3  -3  14   14.46    0.83
  -3  -3  14   11.52    3.89
   3  -3 -14   12.69    4.15
  -3  -3  14   11.96    1.30
  -3   3  14   13.37    1.31
   3   3 -14   12.20    0.87
  -3   3  14   13.75    3.37
   3   3 -14   16.34    3.48
  -1  -3  14    4.81    3.06
   1  -3 -14    3.93    0.50
   1  -3 -14    2.73    0.45
   1   3 -14    2.83    0.46
  -1   3  14    2.91    2.21
   1   3 -14    3.28    0.51
  -1   3  14    4.19    0.73
   1   3 -14    5.07    2.99
  -1  -3 -14    1.00    0.41
   1  -3  14   -0.13    2.75
  -1  -3 -14    1.32    0.23
   1   3  14   -0.56    1.90
  -1   3 -14    0.84    0.23
  -1   3 -14    1.23    2.19
  -1   3 -14    0.85    0.42
  -3  -3 -14   17.77    1.81
   3  -3  14   15.19    1.05
  -3  -3 -14   16.00    1.09
   3  -3  14   15.76    3.51
  -3  -3 -14    8.75    5.28
   3   3  14   12.16    3.31
   3   3  14   15.56    1.88
   3   3  14   17.58    1.13
  -3   3 -14   14.47    0.93
  -3   3 -14   17.23    1.42
   5  -3  14   12.99    3.92
   5  -3  14   13.60    1.08
  -5  -3 -14    5.80    7.15
   5   3  14   14.05    1.13
  -5   3 -14   13.12    1.78
   5   3  14   25.57    5.21
  -7  -3 -14    5.48    0.85
   7  -3  14    5.38    5.23
   7  -3  14    3.20    0.69
   7   3  14    0.39    5.07
   7   3  14    3.68    0.72
  -8  -4  14   -4.65    5.25
   8  -4 -14   -0.26    0.60
  -8  -4  14    0.42    0.91
   8   4 -14    0.45    0.64
   6  -4 -14    1.45    0.69
   6  -4 -14    2.12    0.50
  -6  -4  14   -3.32    4.08
  -6  -4  14    1.55    0.48
   6   4 -14    1.73    0.49
   6   4 -14    1.63    0.40
  -6   4  14   -0.19    3.15
   6   4 -14   10.14    5.29
   4  -4 -14   -0.23    4.12
  -4  -4  14    1.87    3.59
   4  -4 -14    1.17    0.41
  -4  -4  14    0.94    0.71
   4  -4 -14    1.59    0.58
   4  -4 -14    1.12    0.33
   4   4 -14    1.33    0.33
  -4   4  14    2.15    3.10
   4   4 -14    1.21    0.34
  -4   4  14    0.70    0.67
  -2  -4  14   18.74    4.70
   2  -4 -14   12.41    1.00
  -2  -4  14   13.75    0.77
   2  -4 -14   12.23    1.01
   2  -4 -14   22.17    4.78
  -2   4  14   10.77    1.41
  -2   4  14   16.99    3.66
   2   4 -14   12.37    3.25
   2   4 -14   12.65    0.95
   2   4 -14   13.60    0.92
   0  -4 -14   -0.49    0.41
   0  -4  14    2.46    3.24
   0   4 -14   -3.84    2.14
   0   4 -14    0.18    0.27
   0   4 -14    0.55    0.42
   0   4  14   -3.15    2.58
   2  -4  14    8.33    0.66
  -2  -4 -14    6.89    1.10
  -2  -4 -14   17.41    6.13
   2  -4  14   11.91    3.79
  -2   4 -14    7.35    0.65
   2   4  14    7.09    0.76
  -2   4 -14    7.76    1.04
   2   4  14    8.28    2.95
   2   4  14    6.59    1.19
  -4  -4 -14   45.33   14.11
   4  -4  14    7.55    3.68
   4  -4  14   10.77    0.92
  -4  -4 -14    7.03    1.11
   4   4  14   10.54    0.95
   4   4  14    8.48    3.71
   6  -4  14    4.39    0.67
   6  -4  14    5.53    4.28
   6   4  14    4.85    0.72
   6   4  14    0.90    4.86
  -7  -5  14   -5.02    5.87
   7  -5 -14    7.81    1.11
  -7  -5  14    5.45    0.92
  -7  -5  14   10.18    1.78
   7   5 -14    5.84    0.83
   5  -5 -14   16.09    1.16
  -5  -5  14   15.66    1.12
  -5  -5  14    7.57    5.18
  -5  -5  14   11.92    1.84
   5  -5 -14    7.24    6.58
   5   5 -14   14.26    0.98
  -5   5  14   14.56    3.95
   5   5 -14   14.23    5.52
  -5   5  14   11.98    1.47
   3  -5 -14   -1.86    5.05
  -3  -5  14    3.37    0.88
  -3  -5  14    7.73    4.40
   3  -5 -14    2.57    0.56
   3  -5 -14    3.28    0.60
  -3  -5  14    3.09    0.43
  -3   5  14    3.54    0.92
   3   5 -14    3.92    0.58
   3   5 -14    1.66    0.50
   3   5 -14   11.05    3.79
  -3   5  14    2.79    3.18
  -1  -5  14   16.86    6.03
   1  -5 -14   15.67    1.26
  -1  -5  14   12.34    1.53
   1  -5 -14   16.81    5.83
   1  -5 -14   13.64    1.10
  -1   5  14   14.72    4.52
   1   5 -14   17.30    3.12
   1   5 -14   15.02    1.11
   1   5 -14   15.38    1.12
  -1  -5 -14    9.16    1.19
   1  -5  14   10.66    4.33
   1  -5  14    8.70    1.56
  -1  -5 -14   17.40    7.60
  -1  -5 -14    8.16    0.77
  -1   5 -14    8.81    1.07
   1   5  14   10.11    1.41
  -1   5 -14    9.07    0.81
   1   5  14   14.15    3.65
   3  -5  14    1.25    4.16
   3  -5  14    3.58    0.61
  -3  -5 -14    4.49    0.69
   3   5  14    0.46    3.58
  -3   5 -14    3.96    0.55
  -3   5 -14    4.88    0.88
   3   5  14    3.72    0.61
   5  -5  14    0.91    0.81
   5  -5  14   -4.91    4.55
   5   5  14    0.24    0.50
   5   5  14   -7.64    4.32
   6  -6 -14    1.04    0.59
  -6  -6  14    0.79    0.72
  -6  -6  14   -0.39    6.85
  -6  -6  14   -0.15    1.04
   6   6 -14   -0.12    0.65
  -4  -6  14   -1.34    5.42
  -4  -6  14    0.73    1.04
  -4  -6  14    0.15    0.46
  -4   6  14    3.36    3.17
  -4   6  14   -0.53    0.92
   4   6 -14    0.18    0.57
  -4   6  14    6.44    3.85
   2  -6 -14    4.01    0.70
   2  -6 -14    1.86    0.63
  -2  -6  14    5.36    5.93
  -2  -6  14    2.33    1.01
  -2  -6  14    2.93    0.42
  -2   6  14    8.83    4.00
   2   6 -14    2.76    3.83
   2   6 -14    2.18    0.63
   2   6 -14    6.27    3.26
  -2   6  14    0.28    1.01
   0  -6  14    4.54    5.37
   0  -6 -14    3.43    0.81
   0   6  14    6.07    3.72
   0   6 -14    2.31    0.56
   0   6  14    1.55    1.34
   2  -6  14    1.91    5.60
   2  -6  14    2.97    1.00
   2   6  14    6.17    4.08
  -2   6 -14    2.58    0.59
   4  -6  14    1.09    1.10
   4  -6  14    1.08    0.46
   4  -6  14    2.90    5.73
   4   6  14    0.47    4.87
   4   6  14    0.11    0.52
  -5  -7  14    1.43    8.35
   5  -7 -14    1.54    0.67
  -5  -7  14    1.27    1.46
   5   7 -14    0.78    0.81
   5   7 -14   -9.29    6.69
  -3  -7  14    1.16    1.28
  -3  -7  14   12.31    8.78
   3   7 -14    5.25    5.00
   3   7 -14    0.21    0.70
  -3   7  14    2.30    1.55
  -3   7  14    0.61    4.83
  -1  -7  14   -6.95    6.96
  -1  -7  14   12.40    2.19
   1   7 -14   11.05    1.20
  -1   7  14   19.85    5.74
   1  -7  14   26.14    2.65
  -1  -7 -14   19.05    1.70
   1  -7  14   27.40    8.12
   1   7  14   22.33    6.15
  -1   7 -14   24.79    1.76
   3  -7  14    5.38    8.19
   3  -7  14    4.84    1.37
   3   7  14    7.30    5.71
 -10   0  15    3.58    6.03
  -8   0  15    2.75    4.60
   6   0 -15    0.32    0.38
   6   0 -15   -0.22    4.83
  -6   0  15   -0.25    0.39
  -6   0  15   -1.81    3.98
   4   0 -15    0.05    0.30
   4   0 -15    0.21    0.25
  -4   0  15    0.44    2.69
  -2   0  15    0.96    2.67
   2   0 -15    1.57    2.46
   0   0 -15    0.02    0.14
   0   0 -15    0.33    2.69
   0   0 -15    0.28    0.31
   0   0  15   -1.53    2.02
  -2   0 -15   -0.39    0.17
  -2   0 -15   -2.57    3.02
   2   0  15    0.34    0.25
   2   0  15    1.82    2.30
  -4   0 -15   -0.91    0.63
   4   0  15    0.06    0.28
  -4   0 -15    0.13    0.21
  -4   0 -15   10.42    4.45
   4   0  15    0.60    3.99
   6   0  15   -0.31    0.41
  -6   0 -15   -0.08    0.27
   8   0  15    9.73    6.54
  -9  -1  15    4.78    5.46
   9  -1 -15   -1.05    0.68
   9   1 -15    0.95    0.69
  -9   1  15    3.05    5.25
  -7  -1  15    1.01    0.55
   7  -1 -15   11.24    5.68
   7  -1 -15    1.72    0.50
  -7  -1  15    3.22    4.35
   7   1 -15    2.18    0.53
  -7   1  15    0.79    7.92
   5  -1 -15    8.71    5.60
   5  -1 -15    7.14    0.77
   5  -1 -15    7.47    0.76
   5   1 -15    9.57    4.09
  -5   1  15    4.95    3.42
  -5   1  15    8.84    0.86
   5   1 -15    7.34    0.76
   3  -1 -15   28.52    1.67
  -3  -1  15   33.04    5.20
   3   1 -15   28.15    1.66
   3   1 -15   32.57    1.73
   3   1 -15   30.62    5.40
  -3   1  15   32.49    5.09
   1  -1 -15   13.79    3.46
   1  -1 -15   16.13    1.12
   1  -1 -15   15.77    0.98
  -1  -1  15   18.47    3.75
   1   1 -15   17.57    1.12
   1   1 -15   17.83    0.97
   1   1 -15   17.00    3.71
  -1   1  15   14.94    3.20
  -1  -1 -15   31.21    5.69
   1  -1  15   29.95    1.70
   1  -1  15   32.81    4.75
  -1   1 -15   32.16    4.52
   1   1  15   29.68    1.72
  -1   1 -15   32.60    1.84
   1   1  15   26.90    4.15
  -1   1 -15   26.50    1.55
   3  -1  15    2.94    0.50
  -3  -1 -15    7.29    4.57
  -3  -1 -15    2.98    0.38
  -3  -1 -15    1.72    0.61
   3  -1  15    3.12    2.49
   3   1  15    1.44    3.80
  -3   1 -15    2.88    3.36
   3   1  15    2.91    0.51
  -5  -1 -15   -0.76    5.20
   5  -1  15   -0.53    3.33
   5   1  15    0.02    3.69
  -5   1 -15   -0.14    0.91
   7  -1  15   -8.13    5.09
   7   1  15    5.47    5.55
  10  -2 -15    2.61    0.97
 -10  -2  15   -6.16    7.04
  -8  -2  15    0.84    0.85
   8  -2 -15    4.57    0.75
  -8  -2  15    2.73    5.45
  -8  -2  15    2.94    0.75
   8   2 -15    3.41    0.70
  -8   2  15    2.66    4.63
  -6  -2  15   54.85    8.02
   6  -2 -15   48.28    2.67
   6  -2 -15   57.08    8.91
  -6  -2  15   43.29    2.83
   6   2 -15   48.26    2.66
  -6   2  15   42.00    6.04
  -6   2  15   47.98    2.60
   4  -2 -15    6.95    0.66
  -4  -2  15    7.76    1.06
   4  -2 -15   14.36    3.90
  -4   2  15    6.53    3.35
   4   2 -15    8.92    0.72
  -4   2  15    8.17    1.04
   4   2 -15    5.95    0.67
  -2  -2  15    4.86    3.04
   2  -2 -15    0.47    0.20
   2   2 -15    0.21    0.26
   2   2 -15    0.24    0.21
   2   2 -15   -1.19    2.55
  -2   2  15    0.37    2.34
  -2   2  15   -0.18    0.51
   0  -2  15    3.29    2.91
   0  -2 -15    7.91    0.59
   0   2  15    7.47    1.10
   0   2 -15    8.39    0.77
   0   2 -15    8.69    2.84
   0   2  15    6.90    2.58
   0   2 -15    7.78    0.57
   2  -2  15   22.06    1.37
   2  -2  15   22.24    3.78
   2   2  15   22.87    1.43
   2   2  15   26.90    5.00
  -2   2 -15   30.70    5.13
   2   2  15   22.83    1.95
  -2   2 -15   21.58    1.60
   4  -2  15    3.66    2.98
   4  -2  15    5.46    0.72
  -4  -2 -15   -3.44    5.50
  -4  -2 -15    4.01    0.55
  -4  -2 -15    4.19    0.92
  -4   2 -15    3.67    0.89
   4   2  15    5.22    3.13
   4   2  15    3.97    0.65
   4   2  15    5.37    1.21
   6  -2  15    3.32    4.44
  -6  -2 -15    1.28    0.58
   6  -2  15    0.93    0.52
   6   2  15   -7.83    4.07
   8  -2  15   34.73    2.52
   8   2  15   42.33    8.67
   8   2  15   42.80    3.25
  -9  -3  15   16.65    2.06
  -9  -3  15   23.68    7.59
   9  -3 -15   22.52    1.86
   9   3 -15   17.23    1.73
  -9   3  15   23.70    6.27
  -7  -3  15   18.96    5.63
   7  -3 -15    6.08    0.95
  -7  -3  15    7.94    1.37
  -7  -3  15    5.86    0.83
  -7   3  15    0.55    4.03
   7   3 -15    5.76    0.77
   5  -3 -15    1.23    0.43
   5  -3 -15    4.18    4.58
  -5  -3  15    1.87    0.35
   5  -3 -15    1.39    0.49
  -5  -3  15    1.87    0.71
  -5  -3  15   -4.37    3.73
   5   3 -15    4.74    4.16
  -5   3  15    1.32    0.57
   5   3 -15    0.22    0.38
  -5   3  15   -0.48    3.24
   5   3 -15    0.92    0.37
   3  -3 -15    2.47    0.43
   3  -3 -15   -0.31    4.02
  -3  -3  15    1.46    0.63
  -3  -3  15    7.26    5.62
   3  -3 -15    2.77    0.39
   3   3 -15    2.45    0.39
   3   3 -15    1.38    3.11
  -3   3  15    3.41    0.65
   3   3 -15    1.89    0.34
  -3   3  15   -0.05    2.93
   1  -3 -15   26.01    1.51
   1  -3 -15   28.33    1.64
  -1  -3  15   31.80    5.11
   1   3 -15   25.44    1.50
  -1   3  15   26.36    1.95
   1   3 -15   19.40    3.76
  -1   3  15   21.35    4.29
   1   3 -15   25.29    1.55
  -1  -3 -15   -2.61    4.27
  -1  -3 -15    2.15    0.54
   1  -3  15    2.04    3.09
  -1  -3 -15    2.24    0.36
  -1   3 -15    2.25    0.56
  -1   3 -15    4.28    2.57
  -1   3 -15    1.86    0.29
   1   3  15    1.86    0.82
   1   3  15   -0.34    2.43
  -3  -3 -15   -0.45    0.33
  -3  -3 -15    0.36    0.68
   3  -3  15   -3.72    2.79
  -3  -3 -15    2.83    5.77
   3  -3  15    0.26    0.31
   3   3  15    0.52    0.96
   3   3  15   -0.23    0.29
  -3   3 -15    0.51    0.77
   3   3  15    0.92    2.75
  -5  -3 -15   -0.84    0.67
  -5  -3 -15  -13.65    7.60
   5  -3  15    2.88    3.83
   5  -3  15   -0.21    0.41
  -5   3 -15   -0.19    0.96
   5   3  15    1.01    0.42
   5   3  15   -1.76    3.37
   7  -3  15   10.00    5.44
   7  -3  15    2.63    0.73
   7   3  15    2.50    0.71
   7   3  15    3.79    6.06
  -8  -4  15   -2.12    6.27
   8  -4 -15   -0.78    0.63
  -8  -4  15    1.49    1.04
   8   4 -15    0.77    0.64
  -6  -4  15   78.46    4.23
  -6  -4  15   67.04   10.61
  -6  -4  15   79.73    4.75
   6  -4 -15   81.56    4.32
  -6   4  15   83.54    8.05
   6   4 -15   84.80    4.22
   6   4 -15   78.83    4.30
  -4  -4  15    2.65    0.79
   4  -4 -15    1.63    0.54
  -4  -4  15    2.67    0.39
   4  -4 -15    2.24    0.47
  -4  -4  15    3.67    4.28
   4  -4 -15    2.06    4.86
   4  -4 -15    2.57    0.59
  -4   4  15    3.42    0.87
   4   4 -15    2.26    0.45
   4   4 -15    1.50    0.42
  -4   4  15    5.72    3.61
   2  -4 -15    0.65    0.43
   2  -4 -15   -8.66    4.74
  -2  -4  15    6.02    4.01
  -2  -4  15    0.43    0.60
  -2   4  15    0.64    3.26
   2   4 -15    0.14    0.32
   2   4 -15   -1.65    2.98
   2   4 -15    0.40    0.32
  -2   4  15   -0.34    0.69
   0  -4 -15   11.05    5.21
   0  -4 -15    0.58    0.47
   0  -4  15    6.68    3.91
   0   4 -15   -0.91    2.59
   0   4  15    0.12    2.97
   0   4 -15   -0.26    0.30
   0   4  15   -1.21    0.67
  -2  -4 -15    4.05    6.19
   2  -4  15    0.21    3.64
  -2  -4 -15    3.41    0.78
   2  -4  15    3.49    0.57
  -2   4 -15    4.52    0.78
   2   4  15    3.80    1.09
   2   4  15    8.52    3.18
  -2   4 -15    3.40    0.53
   4  -4  15    2.73    0.57
  -4  -4 -15    1.45    0.67
   4   4  15    0.82    3.80
   4   4  15    2.54    0.55
  -4   4 -15    0.50    1.10
   6  -4  15   11.33    1.18
   6  -4  15   12.74    5.46
   6   4  15   10.81    1.21
   6   4  15    3.11    5.51
  -7  -5  15    6.83    7.41
  -5  -5  15    0.72    0.91
  -5  -5  15    1.04    0.50
  -5  -5  15    1.77    5.77
   5  -5 -15    1.42    0.49
   5   5 -15    7.88    5.73
  -5   5  15    2.80    4.29
   5   5 -15    1.08    0.47
   3  -5 -15    0.56    0.58
  -3  -5  15    1.56    0.80
   3  -5 -15    1.10    0.55
  -3  -5  15   -1.90    4.56
  -3  -5  15    0.07    0.30
  -3   5  15   -1.15    0.89
   3   5 -15    0.85    0.46
  -3   5  15    5.29    3.75
   3   5 -15   -2.05    3.77
   3   5 -15    0.62    0.40
  -1  -5  15    1.36    0.78
   1  -5 -15    0.40    0.58
  -1  -5  15   -0.38    4.63
   1  -5 -15    0.07    0.42
  -1   5  15   -5.15    3.14
   1   5 -15   -0.79    0.48
   1   5 -15    1.64    2.94
  -1   5  15   -1.71    0.90
   1   5 -15   -0.02    0.42
   1  -5  15    5.56    1.17
   1  -5  15   10.30    8.92
  -1  -5 -15    4.84    0.93
  -1  -5 -15    6.15    0.74
   1   5  15    7.82    1.51
   1   5  15    7.07    3.65
  -1   5 -15    8.06    1.18
  -1   5 -15    6.27    0.75
   3  -5  15    6.47    5.17
   3  -5  15    1.01    0.41
   3   5  15   -3.80    3.98
  -3   5 -15    0.12    0.45
  -3   5 -15    1.93    0.87
   5  -5  15    1.95    0.53
   5   5  15    2.60    5.21
   5   5  15    1.62    0.60
   6  -6 -15    1.58    0.73
  -6  -6  15   13.16    8.21
  -6  -6  15    0.18    1.28
  -6  -6  15    0.19    0.81
   6   6 -15    2.24    0.79
  -4  -6  15    4.14    0.62
  -4  -6  15    2.02    1.23
  -4  -6  15   11.37    6.81
   4   6 -15   18.06    5.69
   4   6 -15    3.79    0.77
  -4   6  15   12.33    4.59
  -2  -6  15    8.11    1.38
  -2  -6  15   15.07    6.86
   2  -6 -15    8.21    0.96
   2   6 -15    8.11    4.20
  -2   6  15    5.14    4.53
   2   6 -15    7.55    1.06
  -2   6  15    6.85    1.37
   2   6 -15   13.92    4.47
   0  -6  15    2.65    6.37
   0  -6 -15    7.07    0.95
   0  -6  15    6.89    1.25
   0   6 -15    6.89    0.92
   0   6  15    5.85    4.58
   2  -6  15   -5.89    6.60
   2  -6  15    0.05    0.86
   2   6  15   -2.25    4.34
  -2   6 -15    0.81    0.57
   4  -6  15    1.08    1.24
   4  -6  15    7.70    7.01
   4   6  15   -1.06    5.74
  -3  -7  15   10.77    1.98
  -3  -7  15    4.17    8.42
   3   7 -15   12.76    1.50
   3   7 -15   17.85   10.75
  -3   7  15   12.02    9.43
  -1  -7  15    2.81    1.34
  -1  -7  15   -6.37    8.10
  -1   7  15   -1.31    5.57
   1   7 -15    0.26    0.59
   1  -7  15   -0.40    1.14
   1  -7  15   -7.15    7.87
   1   7  15   -9.57    5.51
  -1   7 -15   -0.64    0.67
 -10   0  16    2.44    6.96
  10   0 -16    1.20    0.97
  -8   0  16   39.42    6.97
   8   0 -16   38.05    2.38
  -6   0  16   12.31    4.52
  -6   0  16    8.30    0.99
   6   0 -16    7.07    1.01
   6   0 -16    4.37    5.02
   6   0 -16    7.83    0.92
   4   0 -16   10.35    4.21
   4   0 -16   12.52    0.93
   2   0 -16   17.35    1.05
  -2   0  16   18.50    4.37
   0   0  16   28.00    5.04
   0   0 -16   39.28    5.50
   0   0 -16   33.32    1.76
  -2   0 -16   23.52    1.77
  -2   0 -16   25.31    1.37
  -2   0 -16   28.59    1.41
  -2   0 -16   27.84    5.05
  -4   0 -16   13.23    5.18
  -4   0 -16    3.58    0.91
   4   0  16    4.54    3.23
   4   0  16    5.90    0.73
   6   0  16    8.87    4.86
   6   0  16    6.27    1.00
   9  -1 -16   -0.61    0.76
  -9  -1  16   -3.30    5.91
  -9   1  16   -3.49    5.42
   9   1 -16    0.76    0.80
   7  -1 -16    2.98    0.62
  -7  -1  16    2.26    0.70
  -7  -1  16    1.57    4.62
  -7   1  16   -1.47    4.13
  -7   1  16    2.01    0.49
   7   1 -16    3.07    0.64
  -5  -1  16    5.92    3.94
   5  -1 -16    4.32    0.74
   5  -1 -16    4.07    4.34
   5  -1 -16    4.62    0.65
  -5  -1  16    2.89    0.64
   5   1 -16    3.15    0.56
   5   1 -16    6.62    4.29
  -5   1  16    5.72    4.26
   5   1 -16    3.42    0.53
   3  -1 -16    6.14    0.88
   3  -1 -16    5.63    0.58
   3   1 -16    5.30    0.63
   3   1 -16    5.34    0.58
  -3   1  16    2.57    3.05
  -1  -1  16    3.55    2.64
   1  -1 -16    0.63    0.21
   1   1 -16    0.21    0.21
   1   1 -16    0.19    0.31
  -1   1  16    1.36    2.30
   1   1 -16    1.30    2.61
   1  -1  16   68.07    3.36
   1  -1  16   57.67    6.44
  -1  -1 -16   58.20    3.45
  -1   1 -16   61.11    6.71
   1   1  16   67.72    9.53
  -3  -1 -16   11.11    0.77
   3  -1  16    9.38    0.84
  -3  -1 -16    9.04    1.15
   3  -1  16    3.87    5.35
   3   1  16   13.42    3.51
  -3   1 -16    2.73    5.06
  -3   1 -16    7.86    1.29
   3   1  16    9.74    0.84
   3   1  16   12.59    1.73
   5  -1  16   -2.96    3.71
   5  -1  16   -0.23    0.42
   5   1  16    0.33    0.42
   5   1  16    1.30    3.64
   7  -1  16    0.11    0.59
   7  -1  16   10.53    5.99
   7   1  16   -8.97    5.60
   7   1  16   -0.19    0.62
 -10  -2  16   14.65    7.64
  10  -2 -16    5.83    1.28
  10   2 -16    4.44    1.10
  -8  -2  16   -2.94    5.34
   8  -2 -16    0.77    0.62
  -8  -2  16    0.06    0.72
   8   2 -16    0.98    0.61
  -8   2  16   -4.20    4.63
  -6  -2  16   25.18    5.83
   6  -2 -16   25.38    1.77
   6  -2 -16   35.72    7.84
  -6  -2  16   32.29    2.11
   6   2 -16   27.06    6.20
   6   2 -16   29.90    1.75
   6   2 -16   26.41    1.75
  -6   2  16   26.63    1.80
  -4  -2  16    0.96    0.56
   4  -2 -16    1.97    0.76
   4  -2 -16    0.71    0.29
   4  -2 -16   -4.94    3.93
  -4  -2  16   -0.96    3.77
  -4   2  16   -3.82    3.67
  -4   2  16    1.73    0.77
   4   2 -16    0.40    0.32
   4   2 -16    0.85    0.34
   2  -2 -16   10.43    0.77
   2   2 -16   10.18    0.87
   2   2 -16   14.43    3.65
  -2   2  16   10.91    1.27
  -2   2  16   17.11    5.09
   2   2 -16   11.46    0.74
   0  -2  16    3.91    3.13
   0  -2 -16   -1.59    3.75
   0  -2 -16    0.57    0.23
   0   2 -16    0.39    0.20
   0   2 -16    0.76    0.42
   0   2 -16    4.34    2.98
   0   2  16    1.75    2.78
  -2  -2 -16   18.76    5.36
  -2  -2 -16   20.26    1.55
   2  -2  16   18.10    1.21
   2  -2  16   12.94    3.83
   2   2  16   19.50    1.28
   2   2  16   21.02    3.99
   2   2  16   17.84    1.93
  -2   2 -16   22.04    4.07
   4  -2  16   24.03    4.97
  -4  -2 -16   32.12    7.61
   4  -2  16   31.53    1.82
  -4  -2 -16   30.82    1.78
   4   2  16   29.01    1.84
   4   2  16   25.19    5.29
  -4   2 -16   29.04    2.31
   6  -2  16    2.34    0.62
  -6  -2 -16    2.61    0.80
   6  -2  16    5.38    4.64
   6   2  16    2.15    0.55
   6   2  16   -0.94    4.50
  -9  -3  16    1.79    1.15
   9  -3 -16    0.60    0.84
  -9  -3  16   -1.19    7.70
   9   3 -16   -0.70    0.77
  -7  -3  16  -10.15    5.18
   7  -3 -16    1.45    0.62
  -7  -3  16    1.54    0.85
   7   3 -16   -0.24    0.53
  -7   3  16   -4.40    4.48
   5  -3 -16   -6.62    5.00
  -5  -3  16   -7.64    4.12
   5  -3 -16    0.73    0.38
  -5  -3  16    0.52    0.36
  -5  -3  16    0.37    0.71
  -5   3  16   -4.45    3.42
   5   3 -16    0.49    0.35
   5   3 -16    1.21    4.97
  -5   3  16   -0.33    0.60
   5   3 -16    0.66    0.41
   3  -3 -16    0.41    0.42
  -3  -3  16    0.26    0.73
   3  -3 -16    0.24    0.39
   3  -3 -16    2.32    4.25
   3  -3 -16    0.26    0.29
  -3  -3  16   -1.35    3.74
   3   3 -16    0.22    0.27
   3   3 -16    0.78    0.35
  -3   3  16    0.63    0.61
   1  -3 -16    2.86    0.52
   1  -3 -16    3.03    6.46
  -1   3  16   -0.88    2.89
   1   3 -16    4.63    3.07
   1   3 -16    2.68    0.49
   1   3 -16    3.22    0.49
  -1  -3 -16   13.73    0.80
  -1  -3 -16   11.51    1.24
   1  -3  16   10.71    4.02
  -1  -3 -16   13.92    5.87
  -1   3 -16   11.20    0.82
  -1   3 -16   12.29    3.38
   1   3  16   15.34    1.78
  -1   3 -16   14.01    1.26
   1   3  16   15.02    3.82
  -3  -3 -16    0.04    0.39
   3  -3  16    0.79    0.41
  -3  -3 -16    7.18    6.27
   3  -3  16   -4.99    5.56
   3   3  16   -0.18    0.34
  -3   3 -16    0.36    0.82
   3   3  16   -0.72    3.30
   5  -3  16    7.08    0.96
  -5  -3 -16    5.70    0.82
   5  -3  16    8.05    4.67
   5   3  16   -0.12    4.10
   5   3  16    7.62    1.01
  -5   3 -16    7.98    2.22
   7  -3  16    6.05    0.91
   7  -3  16    9.04    6.17
   7   3  16   -6.19    7.18
   7   3  16    5.58    1.14
  -8  -4  16    0.21    7.16
  -8  -4  16    4.26    1.25
   8  -4 -16    4.90    0.88
   8   4 -16    4.48    0.87
  -6  -4  16   32.31    1.92
  -6  -4  16   31.25    2.56
  -6  -4  16   24.47    6.88
   6  -4 -16   33.23    2.06
  -6   4  16   40.97    7.52
  -4  -4  16    5.09    0.62
  -4  -4  16    8.78    5.72
   4  -4 -16    7.25    0.87
   4  -4 -16    4.75    0.78
  -4  -4  16    5.26    1.10
  -4   4  16    8.58    5.11
   4   4 -16    6.77    0.69
  -4   4  16    6.15    1.03
   4   4 -16    6.90    0.79
   4   4 -16    8.29    4.61
   2  -4 -16    9.47    5.85
  -2  -4  16    6.26    4.22
   2  -4 -16   -0.08    0.43
  -2  -4  16   -0.24    0.75
  -2   4  16   -3.96    3.17
   2   4 -16    0.56    0.33
   2   4 -16    2.41    3.37
   2   4 -16    1.15    0.40
   0  -4 -16    3.11    6.13
   0  -4 -16    1.03    0.36
   0  -4 -16    1.63    0.62
   0  -4  16    3.79    4.08
   0   4 -16   -3.38    2.80
   0   4  16    1.52    0.93
   0   4 -16    0.06    0.53
   0   4 -16    1.13    0.35
   0   4  16   -1.44    3.50
   2   4  16   -2.78    3.18
  -2   4 -16    2.07    0.40
   4  -4  16    0.43    0.43
   4  -4  16   -8.42    4.35
  -4  -4 -16    0.56    0.66
   4   4  16    0.70    0.49
   4   4  16   -1.56    4.11
  -4   4 -16   -1.10    1.03
   6  -4  16   -4.01    5.79
   6  -4  16    1.77    0.71
   6   4  16   -8.27    5.93
   6   4  16    1.09    0.69
  -7  -5  16   11.81    7.68
   7  -5 -16    3.15    0.79
  -7  -5  16    2.38    1.16
   7   5 -16    3.77    0.88
  -5  -5  16    0.49    6.55
  -5  -5  16    8.13    0.91
   5  -5 -16    9.49    1.04
  -5  -5  16    6.26    1.32
  -5   5  16    4.23    1.22
   5   5 -16    9.20    6.40
  -5   5  16   15.18    4.97
   5   5 -16    6.52    1.12
  -3  -5  16    5.61    5.55
  -3  -5  16   -0.21    0.87
   3  -5 -16    0.13    0.56
  -3  -5  16    0.08    0.31
   3   5 -16    0.42    0.46
  -3   5  16    0.70    3.92
   3   5 -16   -0.76    5.41
   3   5 -16    0.31    0.51
  -1  -5  16    3.94    5.67
   1   5 -16    9.65    3.61
  -1   5  16   -3.04    3.82
   1  -5  16   12.45    1.77
  -1  -5 -16   14.23    1.01
   1  -5  16    8.03    5.73
  -1   5 -16   12.63    1.03
   1   5  16   11.68    4.69
  -1   5 -16   13.44    1.50
   3  -5  16    0.97    5.70
   3   5  16    0.19    4.40
  -3   5 -16    0.41    1.12
  -3   5 -16    0.26    0.45
   5  -5  16   18.56    7.06
   5   5  16   11.29    1.34
   5   5  16   15.79    6.29
  -6  -6  16   13.75    2.57
   6  -6 -16   15.48    1.63
  -6  -6  16   17.15    9.31
  -4  -6  16    7.92    1.57
   4  -6 -16    4.94    0.78
  -4  -6  16    1.51    7.33
  -4   6  16    2.54    5.24
   4   6 -16    7.74    1.25
  -2  -6  16    5.19    7.24
   2   6 -16    6.88    4.57
  -2   6  16   -3.34    4.90
   0  -6 -16    4.26    0.68
   0  -6  16    5.85    1.34
   0  -6  16    0.05    7.19
   0   6 -16    2.96    0.62
   0   6  16    2.48    4.77
   2  -6  16    0.40    7.50
   2  -6  16    6.88    1.44
  -2   6 -16    9.06    1.13
   2   6  16   18.25    5.44
  -3  -7  16    2.19    1.58
  -3  -7  16   12.51    9.36
   3   7 -16    4.21    0.92
  -1  -7  16    0.54    8.94
  -1   7  16   -0.48    6.53
  -8   0  17    3.52    5.55
   8   0 -17    0.68    0.67
  -8   0  17   -0.29    0.56
   6   0 -17    0.06    0.51
   6   0 -17    0.00    0.48
  -6   0  17    0.67    4.16
  -6   0  17   -0.31    0.50
  -4   0  17   -4.37    3.18
   4   0 -17    0.21    0.37
   4   0 -17    6.49    3.93
   4   0 -17    0.45    0.33
   2   0 -17    0.52    0.24
   2   0 -17   -4.79    3.47
   2   0 -17    0.43    0.37
  -2   0  17   -3.59    3.35
   0   0 -17    0.78    0.41
   0   0  17   -1.91    2.82
   0   0 -17    0.46    0.21
   2   0  17    0.12    0.28
   2   0  17   -3.42    2.66
  -2   0 -17   -1.08    0.55
  -2   0 -17    0.11    4.05
   4   0  17    2.71    3.47
  -4   0 -17   10.65    5.74
   6   0  17   -2.11    5.23
   6   0  17    0.08    0.59
  -9  -1  17    5.92    7.38
  -9   1  17    7.13    6.62
   7  -1 -17    5.25    0.76
  -7  -1  17    4.21    0.82
  -7  -1  17   -1.87    5.19
  -7   1  17    4.86    0.73
  -7   1  17    9.75    5.14
  -7   1  17    4.47    0.69
   7   1 -17    3.73    0.74
   5  -1 -17   -1.06    4.95
   5  -1 -17    3.37    0.56
   5  -1 -17    2.76    0.54
  -5  -1  17    2.37    0.70
  -5  -1  17    6.71    4.23
   5   1 -17    8.89    4.99
  -5   1  17    4.70    4.10
   5   1 -17    3.18    0.54
   5   1 -17    2.13    0.53
  -5   1  17    4.00    0.71
   3  -1 -17    8.64    0.72
   3  -1 -17   11.81    4.36
   3  -1 -17    7.73    0.83
  -3  -1  17    5.00    4.09
   3   1 -17    6.75    4.00
  -3   1  17   10.91    4.02
   3   1 -17    8.93    0.71
  -1  -1  17   19.66    4.21
   1  -1 -17   26.77    4.91
   1  -1 -17   18.44    1.14
   1  -1 -17   20.72    1.37
   1   1 -17   17.82    1.11
  -1   1  17   26.98    4.67
  -1  -1 -17    7.63    0.98
  -1  -1 -17   17.02    5.30
  -1  -1 -17    6.36    0.55
   1  -1  17    5.26    3.77
   1   1  17    5.75    2.97
   1   1  17    7.65    1.42
  -1   1 -17    8.86    3.66
  -1   1 -17    9.62    1.05
  -3  -1 -17    0.42    0.33
   3  -1  17    0.78    0.33
   3  -1  17    2.26    3.64
  -3  -1 -17   -1.30    5.43
   3   1  17    0.44    0.35
   3   1  17   -1.23    3.07
  -3   1 -17    0.23    0.76
  -3   1 -17   -5.77    4.34
   5  -1  17    7.10    0.95
  -5  -1 -17    7.72    0.92
   5  -1  17    9.39    4.71
  -5  -1 -17    3.93    7.31
   5   1  17    5.58    4.92
   5   1  17    6.36    0.92
   7  -1  17   12.47    1.48
   7  -1  17   14.39    7.38
   7   1  17   15.57    7.22
   7   1  17    9.42    1.41
   8  -2 -17    1.45    0.75
  -8  -2  17   -0.15    0.82
  -8  -2  17    6.87    6.46
   8   2 -17    1.45    0.72
  -8   2  17    4.42    5.82
   6  -2 -17    0.69    0.45
  -6  -2  17    0.93    0.80
  -6  -2  17   -0.55    4.85
  -6   2  17    2.74    4.26
   6   2 -17    0.05    0.50
   6   2 -17    0.39    0.44
  -6   2  17   -0.65    0.61
   4  -2 -17    4.68    0.80
   4  -2 -17    3.55    0.57
  -4  -2  17    2.80    0.72
  -4  -2  17    2.57    4.31
   4  -2 -17    7.94    5.24
  -4   2  17    4.99    0.85
   4   2 -17    1.36    4.58
   4   2 -17    3.92    0.53
  -4   2  17    7.81    4.13
   2  -2 -17    2.89    0.53
   2  -2 -17    3.41    4.48
   2  -2 -17    3.25    0.50
  -2  -2  17   11.18    4.05
   2   2 -17    3.36    0.47
  -2   2  17    0.30    3.61
  -2   2  17    3.64    0.77
   0  -2  17    0.28    3.37
   0  -2 -17    1.97    0.33
   0  -2 -17    6.01    4.57
   0   2 -17   -2.78    3.31
   0   2  17   -0.73    2.83
   0   2 -17    3.28    0.43
   0   2  17    2.04    0.81
   2  -2  17    2.23    0.51
  -2  -2 -17    1.46    5.68
   2  -2  17   -5.06    3.25
  -2  -2 -17    1.34    0.68
   2   2  17    3.41    1.10
  -2   2 -17    2.87    0.75
   2   2  17    1.74    0.40
   2   2  17    1.42    3.09
  -4  -2 -17    1.25    0.48
   4  -2  17   -3.39    3.97
  -4  -2 -17   -1.56    7.41
  -4   2 -17    3.21    1.20
   4   2  17   -3.60    3.51
   6  -2  17    1.60    0.60
   6  -2  17    1.90    5.10
   6   2  17    0.00    0.57
   6   2  17    1.57    5.39
   9  -3 -17    1.27    0.97
  -9  -3  17    5.26    8.48
   7  -3 -17   23.34    1.68
  -7  -3  17   18.57    2.96
  -7  -3  17   17.93    1.49
  -7  -3  17   23.17    7.46
  -7   3  17   11.99    5.63
   7   3 -17   20.56    1.62
   7   3 -17   19.99    1.58
  -5  -3  17    0.96    5.29
  -5  -3  17    2.48    0.91
   5  -3 -17    1.23    0.45
   5   3 -17    3.23    5.60
   5   3 -17    1.24    0.49
  -5   3  17   -0.95    1.00
  -5   3  17    5.89    4.36
   3  -3 -17   -0.05    5.36
   3  -3 -17    6.48    0.72
  -3  -3  17   11.68    4.76
   3  -3 -17    6.07    0.88
  -3  -3  17    8.77    1.30
   3   3 -17    6.71    0.79
   3   3 -17    4.86    4.27
   3   3 -17    5.55    0.62
  -3   3  17    6.82    1.25
  -3   3  17    6.89    4.24
   1  -3 -17    0.27    0.55
   1  -3 -17   -0.39    0.36
  -1  -3  17    4.86    4.20
   1  -3 -17    0.22    5.15
  -1   3  17   -0.21    0.78
   1   3 -17    1.79    3.49
  -1   3  17   -5.50    2.96
   1   3 -17    0.83    0.30
   1   3 -17    1.56    0.48
  -1  -3 -17  153.81   12.90
  -1  -3 -17  133.37    6.42
   1  -3  17  117.14   10.67
   1   3  17  108.71   10.02
  -1   3 -17  123.20    9.49
   1   3  17  134.56    7.12
  -1   3 -17  126.18    6.47
   3  -3  17   -6.30    4.02
   3  -3  17    3.82    0.69
   3   3  17    3.73    0.58
   3   3  17    5.50    3.92
  -3   3 -17    2.80    1.02
  -5  -3 -17    0.22    0.74
   5  -3  17   -0.41    4.82
   5  -3  17    0.12    0.51
   5   3  17   -3.64    4.84
   5   3  17    0.72    0.47
  -8  -4  17    0.50    1.15
  -8  -4  17   11.28    8.37
   8   4 -17    0.51    0.84
   6  -4 -17    1.02    0.59
  -6  -4  17    1.80    0.54
  -6  -4  17   -3.69    6.16
  -6  -4  17    1.94    1.07
   6   4 -17    1.54    0.53
   6   4 -17    1.51    0.67
  -4  -4  17   -0.19    0.83
   4  -4 -17   -0.36    0.62
   4  -4 -17    0.34    0.44
  -4  -4  17   11.14    5.75
  -4   4  17   -4.32    4.54
  -4   4  17    0.96    0.91
   4   4 -17    0.23    0.45
  -2  -4  17    0.99    0.78
  -2  -4  17   10.72    5.24
   2   4 -17    2.52    0.53
   2   4 -17    1.12    0.52
   2   4 -17    6.77    3.94
  -2   4  17    0.79    0.92
  -2   4  17   -3.95    3.86
   0  -4 -17    0.77    0.36
   0  -4  17   -2.32    4.87
   0   4  17    1.06    0.99
   0   4  17    0.42    3.59
   0   4 -17    0.17    0.61
   0   4 -17    0.00    0.35
   0   4 -17    1.62    3.54
   2  -4  17    0.12    4.73
   2   4  17    0.53    3.85
   4  -4  17    5.17    0.87
  -4  -4 -17    6.59    1.03
   4  -4  17    2.56    5.62
   4   4  17    4.30    0.69
  -4   4 -17    5.57    1.33
   4   4  17   -3.59    4.87
  -7  -5  17   11.00    1.74
   7   5 -17   10.20    1.41
  -5  -5  17    2.04    7.55
  -5  -5  17    3.07    0.62
  -5  -5  17    2.04    1.16
   5  -5 -17    3.90    0.73
   5   5 -17    3.76    0.79
   3  -5 -17   10.75    1.08
   3  -5 -17    9.65    1.27
  -3  -5  17   10.73    6.40
  -3   5  17   14.87    5.65
   3   5 -17    9.62    1.11
  -3   5  17    8.98    1.59
   3   5 -17   10.56    1.18
  -1  -5  17   14.59    6.71
  -1  -5  17   10.58    1.76
   1   5 -17    9.34    4.61
  -1   5  17   11.16    5.41
   1   5 -17   11.61    1.10
  -1   5  17   14.45    2.22
   1   5 -17   11.02    1.38
   1  -5  17   17.93    2.13
  -1  -5 -17   17.13    1.49
   1  -5  17    8.41    6.58
  -1   5 -17   12.11    1.79
  -1   5 -17   17.10    1.22
   1   5  17   16.22    5.55
   3  -5  17    9.06    6.97
  -3   5 -17    8.94    0.98
   3   5  17   13.42    5.33
   4  -6 -17    9.66    1.29
  -4  -6  17   -4.65    8.48
  -4  -6  17    7.74    1.61
   4   6 -17   12.27    1.48
  -4   6  17    5.78    6.63
  -2  -6  17    5.18    1.35
  -2  -6  17   13.65    8.17
  -2   6  17    9.93    6.04
   2   6 -17    5.38    0.86
   2   6 -17   17.32    5.38
   0  -6  17  -11.70    7.70
   0  -6  17   -1.33    1.15
   2  -6  17   -6.41    8.46
   2  -6  17   -0.62    1.19
   2   6  17   -9.48    5.55
  -2   6 -17   -0.22    0.63
  -8   0  18   12.72    6.62
   6   0 -18   51.22    2.86
  -6   0  18   47.48    2.99
  -6   0  18   58.83    9.34
  -4   0  18   -0.90    4.07
   4   0 -18    5.20    0.84
   4   0 -18    6.56    0.75
   4   0 -18    9.36    5.22
   2   0 -18    1.80    0.47
  -2   0  18   -2.71    3.51
   2   0 -18    2.19    3.89
   2   0 -18    2.01    0.34
   0   0 -18    1.96    4.36
   0   0  18    2.91    3.67
   0   0 -18    1.58    0.50
   0   0 -18    1.30    0.24
  -2   0 -18   20.50    1.80
   2   0  18   23.64    5.11
   2   0  18   19.52    1.37
   4   0  18   20.00    1.43
   4   0  18   17.74    5.17
   6   0  18   -1.87    6.26
  -9  -1  18    7.90    8.44
   9  -1 -18    1.72    0.97
   9   1 -18   -0.09    0.94
  -9   1  18   -0.56    7.91
   7  -1 -18    8.55    1.28
  -7  -1  18    6.10    5.66
  -7  -1  18    6.25    1.02
   7   1 -18    5.89    0.85
  -7   1  18    4.18    5.25
  -7   1  18    5.38    0.81
  -5  -1  18    0.94    4.55
   5  -1 -18    1.20    0.48
  -5  -1  18    1.18    0.67
  -5   1  18    1.63    0.64
   5   1 -18    2.11    0.56
  -5   1  18   -3.93    4.49
   5   1 -18    1.59    0.49
   3  -1 -18    5.72    0.82
   3  -1 -18    6.90    0.70
   3  -1 -18   13.63    4.96
  -3  -1  18    3.84    4.19
   3   1 -18    6.10    0.87
   3   1 -18    6.45    0.70
  -3   1  18   13.29    4.51
   3   1 -18   11.33    4.64
  -1  -1  18   -3.72    3.21
   1  -1 -18    3.39    0.58
   1  -1 -18    7.42    4.84
   1  -1 -18    4.05    0.49
   1   1 -18    4.99    4.46
  -1   1  18    4.28    3.47
   1   1 -18    6.17    0.86
   1   1 -18    3.73    0.48
   1  -1  18    6.59    3.66
  -1  -1 -18    2.93    5.10
  -1  -1 -18    3.94    0.76
  -1  -1 -18    4.13    0.47
  -1   1 -18    5.24    0.83
   1   1  18    3.10    3.23
  -1   1 -18    7.45    4.28
   1   1  18    6.56    1.14
  -3  -1 -18    1.22    0.39
   3  -1  18    0.27    0.38
   3  -1  18    4.40    4.22
  -3  -1 -18    7.44    6.48
   3   1  18    0.37    0.37
  -3   1 -18   -2.15    5.11
   3   1  18    3.13    3.66
  -5  -1 -18  -11.21    8.16
   5  -1  18    1.15    4.96
   5   1  18    6.09    4.95
   8  -2 -18   14.67    1.61
  -8  -2  18   13.24    7.93
  -8  -2  18   12.26    1.84
  -8   2  18   21.16    7.19
   8   2 -18   12.16    1.54
  -6  -2  18    0.27    0.83
   6  -2 -18    0.14    0.51
  -6  -2  18    4.70    5.50
  -6   2  18    1.15    0.74
   6   2 -18    0.59    0.53
  -6   2  18   -2.11    5.01
   6   2 -18    0.13    0.66
  -4  -2  18    5.89    4.75
   4  -2 -18    9.42    0.88
   4   2 -18    7.48    0.82
  -4   2  18   10.45    1.46
  -4   2  18    5.25    4.54
   4   2 -18    7.15    0.90
   4   2 -18   15.70    5.43
   2  -2 -18   -4.03    4.90
   2  -2 -18    2.60    0.41
   2  -2 -18    1.92    0.52
  -2  -2  18    2.95    4.71
   2   2 -18    2.79    4.05
   2   2 -18    2.68    0.37
  -2   2  18    0.77    4.03
   2   2 -18    3.52    0.64
   0  -2 -18   15.38    0.92
   0  -2 -18   15.17    1.51
   0  -2  18   13.87    4.24
   0  -2 -18   12.83    5.87
   0  -2 -18   13.87    0.94
   0   2  18   13.25    1.85
   0   2  18    3.31    4.18
   0   2 -18    8.65    4.30
   0   2 -18   13.80    0.92
   0   2 -18   13.44    1.30
  -2  -2 -18    3.58    0.52
   2  -2  18    3.03    0.50
   2  -2  18   -1.79    3.74
  -2  -2 -18   13.25    6.77
  -2   2 -18    3.47    0.86
  -2   2 -18   14.46    5.09
   2   2  18   -4.33    3.85
   4  -2  18    3.43    4.77
   4   2  18    6.81    4.67
   6  -2  18    0.29    0.67
   6   2  18    0.88    0.82
   6   2  18    2.32    6.54
   7  -3 -18    1.47    0.67
  -7  -3  18   -6.04    6.89
  -7  -3  18    2.73    1.12
  -7   3  18   -5.79    5.81
   7   3 -18    0.28    0.69
  -5  -3  18    1.49    0.92
  -5  -3  18   -2.04    5.75
  -5   3  18    6.96    4.91
  -5   3  18    1.51    0.84
   5   3 -18    1.74    0.52
   5   3 -18    0.78    0.51
  -3  -3  18   -0.01    0.72
  -3  -3  18   10.23    5.41
   3  -3 -18    0.66    0.40
   3   3 -18    0.41    0.31
  -3   3  18   -3.08    4.10
   3   3 -18   -7.60    4.79
   1  -3 -18    0.95    0.42
  -1  -3  18    6.74    4.79
   1   3 -18    4.06    4.27
  -1   3  18    1.26    0.95
   1   3 -18    0.74    0.37
  -1   3  18   -1.02    4.09
   1  -3  18    9.06    5.06
  -1   3 -18    2.87    0.39
   1   3  18    3.00    4.38
  -1   3 -18    2.75    0.79
   3  -3  18   -0.94    4.88
   3  -3  18    1.26    0.47
  -3   3 -18    2.45    1.11
   3   3  18   -3.84    3.84
   5  -3  18   -0.13    0.56
   5  -3  18   -3.15    6.02
   5   3  18    0.28    5.38
   5   3  18   -0.12    0.58
  -6  -4  18  -12.57    7.51
  -6  -4  18   -0.13    1.09
   6  -4 -18    0.57    0.62
  -6   4  18   -5.09    5.32
   6   4 -18    1.72    0.68
   4  -4 -18   11.80    1.10
  -4  -4  18   12.53    6.24
  -4  -4  18   12.58    1.91
   4  -4 -18   11.20    1.37
   4   4 -18   15.48    6.33
  -4   4  18   10.30    5.61
   4   4 -18    9.81    0.93
   2  -4 -18    0.03    0.42
  -2  -4  18    9.51    5.95
  -2  -4  18   -0.48    0.89
  -2   4  18   -0.22    1.00
  -2   4  18   -3.00    4.45
   0  -4 -18    7.39    0.76
   0  -4  18    2.67    5.53
   0   4 -18    5.24    0.72
   0   4  18    1.97    4.48
   0   4 -18    4.72    4.79
   2  -4  18   20.44    6.83
   2   4  18   12.03    4.94
  -2   4 -18   17.35    1.92
   4  -4  18   16.07    7.26
   4  -4  18    9.07    1.08
   4   4  18   11.24    6.40
   4   4  18    6.06    1.12
   5  -5 -18    1.82    0.76
  -5  -5  18    3.05    1.27
  -5  -5  18    5.77    8.31
  -5   5  18   -1.86    5.85
   5   5 -18    2.79    0.77
  -3  -5  18   12.66    7.56
   3  -5 -18   14.13    1.24
  -3  -5  18   12.55    2.13
   3   5 -18   26.30    6.55
   3   5 -18   13.32    1.33
  -3   5  18   17.13    6.43
  -3   5  18   11.93    1.79
  -1  -5  18    5.24    7.06
  -1  -5  18    3.11    1.05
   1  -5 -18    1.48    0.72
  -1   5  18    2.45    5.76
   1   5 -18    2.03    0.56
   1  -5  18   21.96    7.89
   1  -5  18   16.22    2.24
   1   5  18    6.69    5.13
  -1   5 -18   12.92    1.17
   3  -5  18    5.41    7.47
  -4  -6  18    6.09    1.78
  -2  -6  18   20.05    9.45
  -2   6  18    9.58    7.49
   0  -6  18    3.34    1.38
   0  -6  18    5.15    9.08
   0   6  18   11.12    6.72
   0   6 -18    4.49    0.79
  -8   0  19   19.23    7.56
  -6   0  19    1.28    5.91
   6   0 -19    0.21    0.56
  -6   0  19    0.43    0.76
   4   0 -19   -0.41    0.42
  -4   0  19    0.07    4.63
   2   0 -19    0.15    0.30
  -2   0  19    1.68    4.09
   2   0 -19    0.59    0.51
   2   0 -19    1.85    4.86
   0   0 -19    0.99    4.75
   0   0 -19    0.37    0.27
   0   0  19   -1.19    4.15
   0   0 -19    0.54    0.61
   2   0  19   -1.41    4.31
  -2   0 -19    2.08    5.75
  -4   0 -19    6.26   12.73
   7  -1 -19    2.87    0.80
  -7  -1  19    0.57    0.89
  -7  -1  19   -1.36    6.81
  -7   1  19    2.22    0.78
  -7   1  19   -3.27    5.78
   7   1 -19    1.01    0.75
   5  -1 -19   -0.21    0.47
  -5  -1  19   -0.51    0.68
  -5  -1  19   -0.11    5.32
  -5   1  19    2.13    4.92
   5   1 -19    0.24    0.49
  -5   1  19    1.17    0.74
  -3  -1  19   -2.68    4.79
   3  -1 -19    0.75    0.39
  -3   1  19    1.92    0.98
   3   1 -19    1.09    0.55
  -3   1  19    5.28    4.48
   3   1 -19    0.17    0.39
   1  -1 -19   -2.39    5.94
   1  -1 -19    3.25    0.44
  -1  -1  19    4.91    4.60
   1   1 -19   -0.22    4.75
  -1   1  19    2.91    1.00
   1   1 -19    3.54    0.51
  -1   1  19   13.79    4.80
   1   1 -19    4.09    0.71
   1  -1  19   10.88    4.41
  -1  -1 -19   13.25    6.11
  -1  -1 -19    9.62    0.68
  -1   1 -19    7.47    1.07
   1   1  19    8.86    4.44
   3  -1  19    0.44    4.78
   3  -1  19    6.42    0.87
  -3  -1 -19   21.86    7.94
   3   1  19   16.80    5.07
  -3   1 -19   -9.28    5.80
   3   1  19    4.14    0.67
   5  -1  19   -0.48    5.67
   5   1  19    3.87    0.66
   5   1  19    8.70    5.49
  -8  -2  19   -1.38    8.43
   8  -2 -19   -0.77    0.89
  -8   2  19    0.43    7.31
   8   2 -19   -0.08    0.85
   6  -2 -19   14.73    1.34
  -6  -2  19   10.21    1.92
  -6  -2  19   15.17    6.37
  -6   2  19    9.81    5.99
   6   2 -19   13.76    1.28
  -4  -2  19   -1.08    5.01
  -4   2  19   -1.80    4.82
  -4   2  19    1.20    1.27
  -2  -2  19   -1.80    4.98
   2  -2 -19    0.40    0.37
   2   2 -19    1.14    0.59
  -2   2  19    8.86    4.53
  -2   2  19    1.46    0.96
   2   2 -19   -3.51    4.48
   2   2 -19    0.77    0.32
   0  -2 -19   10.57    0.87
   0  -2 -19   11.57    0.82
   0  -2  19    8.04    5.00
   0   2  19    6.47    5.13
   0   2 -19   12.44    0.84
   0   2  19   13.09    1.72
   0   2 -19   14.31    1.44
   2  -2  19   -5.07    4.52
  -2   2 -19   17.74    5.54
   2   2  19    2.78    4.55
   4  -2  19    0.29    0.53
   4  -2  19   -5.02    5.24
   4   2  19    0.10    0.52
   7  -3 -19    5.98    0.98
  -7  -3  19    4.98    1.34
  -7  -3  19    9.14    7.96
  -7   3  19   13.85    6.85
   7   3 -19    4.91    0.93
   5  -3 -19    9.92    1.10
  -5  -3  19    9.28    1.36
  -5  -3  19    3.50    6.93
   5   3 -19    9.01    1.02
  -5   3  19    7.72    1.33
   5   3 -19    6.45    1.09
  -5   3  19    5.40    5.52
   3  -3 -19   25.02    1.64
   3  -3 -19   25.79    1.77
  -3  -3  19   26.48    2.32
  -3  -3  19   31.23    6.94
  -3   3  19   25.61    6.24
  -3   3  19   28.02    2.31
   3   3 -19   25.38    1.48
   3   3 -19   35.31    6.43
   3   3 -19   23.13    1.76
   1  -3 -19   10.81    0.93
  -1  -3  19   12.92    5.73
   1  -3 -19    9.95    0.95
  -1   3  19   14.21    2.12
  -1   3  19   16.60    5.61
   1   3 -19    9.97    1.31
   1   3 -19   11.73    0.93
   1  -3  19    6.47    5.60
  -1   3 -19    7.84    1.20
  -1   3 -19    7.78    0.71
   1   3  19   14.52    5.51
  -1   3 -19   14.66    5.45
   3  -3  19    6.42    0.95
   3  -3  19    5.43    6.12
   3   3  19    7.44    5.32
   6  -4 -19    8.75    1.39
  -6  -4  19    8.83    1.61
  -6  -4  19   -4.75    8.80
  -6   4  19   16.84    6.93
   6   4 -19   10.10    1.32
  -4  -4  19    6.97    1.30
   4  -4 -19    5.84    0.80
  -4  -4  19    1.15    7.18
  -4   4  19    4.92    6.26
  -4   4  19    6.12    1.58
   4   4 -19    5.68    0.90
   2  -4 -19   11.52    1.05
  -2  -4  19   13.41    7.00
   2  -4 -19    9.50    1.11
  -2   4  19    3.79    5.43
  -2   4  19   10.35    1.54
   2   4 -19    9.89    1.06
   2   4 -19   13.00    6.03
   0  -4  19   22.21    7.55
   0   4 -19   26.73    1.59
   0   4  19   14.88    5.97
   0   4 -19   26.05    2.10
   2  -4  19   -7.94    6.66
   2   4  19   -0.65    5.67
  -5  -5  19    0.27    1.36
  -5  -5  19    9.06   19.10
   5  -5 -19    0.60    0.76
   5   5 -19    1.89    0.81
  -5   5  19  -11.89    6.84
  -3  -5  19  -14.99    8.10
  -3  -5  19    1.85    1.38
  -3   5  19    6.77    6.28
  -1  -5  19    4.96    7.73
  -1   5  19    9.95    6.50
   1  -5  19   21.19    2.70
   1  -5  19   38.56    9.77
   1   5  19   17.82    6.62
   8   0 -20    0.15    0.94
  -8   0  20   -5.28    8.03
  -6   0  20    3.77    0.99
   6   0 -20    4.72    0.81
  -6   0  20    5.68    6.39
  -4   0  20    2.97    5.47
   4   0 -20    3.10    0.59
  -2   0  20    5.81    5.11
   0   0 -20    0.40    0.30
   0   0  20    6.14    5.17
   0   0 -20   -0.63    6.00
  -2   0 -20    8.34    7.69
   2   0  20   -7.99    4.59
   4   0  20   -4.68    6.03
   4   0  20   -0.44    0.52
  -7  -1  20   21.28    2.32
   7  -1 -20   27.11    2.02
  -7  -1  20   32.00    8.90
  -7   1  20   21.47    8.28
   7   1 -20   26.40    1.99
  -5  -1  20   -0.67    5.94
   5  -1 -20    1.44    0.60
  -5  -1  20    0.52    0.82
   5   1 -20    1.88    0.98
  -5   1  20    9.62    6.59
  -3  -1  20   -2.50    5.55
   3  -1 -20    0.18    0.40
  -3   1  20    6.96    5.07
   3   1 -20    0.07    0.41
  -3   1  20    1.15    0.86
  -1  -1  20    9.46    5.29
   1  -1 -20    4.35    0.66
  -1   1  20    2.38    4.80
  -1   1  20    4.63    1.29
   1   1 -20   12.08    6.43
  -1  -1 -20   22.25    1.32
   1  -1  20   29.96    6.83
  -1   1 -20   36.40    6.97
   1   1  20   13.01    5.48
   3  -1  20    6.81    5.93
   3  -1  20   10.01    1.09
   3   1  20   10.77    1.13
   3   1  20   11.53    6.09
  -6  -2  20    2.25    1.11
   6  -2 -20    0.29    0.62
  -6  -2  20   -1.56    7.15
  -6   2  20    3.31    6.46
   6   2 -20    0.21    0.65
  -4  -2  20    1.10    0.88
  -4  -2  20   -0.15    5.98
   4  -2 -20    1.09    0.55
  -4   2  20    2.53    1.05
  -4   2  20    1.38    6.05
   4   2 -20    1.52    0.53
  -2  -2  20   -7.42    5.73
   2   2 -20   13.31    5.80
  -2   2  20   11.54    5.91
   0  -2  20    8.56    5.82
   0   2  20   -4.54    4.58
   0   2 -20   -7.04    5.51
   2  -2  20   13.63    6.25
   2   2  20    7.66    5.48
   4  -2  20   -4.55    6.64
   4  -2  20    6.75    1.11
   4   2  20    3.68    0.70
   4   2  20   14.36    6.71
   5  -3 -20    1.02    0.66
  -5  -3  20   -0.59    1.05
  -5  -3  20   -7.34    7.06
  -5   3  20    5.34    6.32
   5   3 -20    0.07    0.57
   3  -3 -20    1.48    0.67
  -3  -3  20    1.34    1.00
  -3  -3  20    7.66    6.63
   3  -3 -20   -0.04    0.47
   3   3 -20    0.99    0.73
   3   3 -20    1.39    0.39
  -3   3  20    1.02    1.04
  -3   3  20    4.43    5.64
   1  -3 -20    2.78    0.52
  -1  -3  20   -8.83    5.63
   1   3 -20    3.48    0.58
   1   3 -20    2.39    0.90
  -1   3  20   13.45    5.99
   1  -3  20   -6.16    6.52
   1   3  20   -4.24    5.11
   3  -3  20    9.90    7.80
   3   3  20   -9.07    5.62
   4  -4 -20    5.51    0.85
  -4  -4  20   11.03    8.39
  -4  -4  20    6.58    1.46
  -4   4  20    1.01    7.62
  -2  -4  20   -3.33    6.91
  -2   4  20    6.10    6.67
   2   4 -20    1.74    0.62
   0  -4  20   -8.15    7.56
   0   4  20    1.92    6.31
   0   4 -20    2.10    0.52
   2  -4  20    5.49    7.92
   2   4  20    3.20    6.54
   3  -5 -20    1.60    0.72
  -3  -5  20    0.39    1.40
   3   5 -20    1.28    0.87
  -3   5  20    6.84    7.79
  -1  -5  20  -10.88    9.02
  -1  -5  20    1.85    1.25
  -1   5  20   -0.30    7.16
   1   5 -20    1.13    0.64
  -6   0  21   -1.36    7.21
   6   0 -21    0.89    0.78
  -6   0  21   -0.07    0.97
   4   0 -21    0.92    0.64
  -4   0  21   -6.27    6.41
  -2   0  21    4.14    5.65
   0   0  21    7.10    6.03
  -2   0 -21   10.33   10.18
   4   0  21   -0.90    0.59
  -7  -1  21    3.00    8.95
   7  -1 -21    2.86    0.95
  -7   1  21   -6.55    7.32
   7   1 -21    1.37    0.95
  -5  -1  21   -0.41    0.95
  -5  -1  21   -5.88    7.04
   5  -1 -21    1.74    0.66
   5   1 -21    0.87    0.67
  -5   1  21   17.39    7.27
  -3  -1  21    7.53    7.11
   3  -1 -21   12.16    1.58
   3   1 -21    9.18    0.98
  -3   1  21   22.80    7.22
  -3   1  21   10.07    1.44
   1  -1 -21    2.91    0.49
  -1  -1  21    3.70    5.47
  -1   1  21   -3.94    5.13
   1  -1  21    4.36    6.43
  -1  -1 -21    4.00    0.49
   1   1  21   -4.95    5.53
  -1   1 -21    9.91    7.28
   3   1  21    1.14    6.56
   6  -2 -21    3.93    0.91
  -6  -2  21    8.13    8.58
  -6  -2  21    4.85    1.41
   6   2 -21    2.30    0.82
  -6   2  21    8.88    7.39
  -4  -2  21    1.39    7.80
  -4  -2  21   11.26    2.02
   4  -2 -21   12.53    1.24
  -4   2  21   23.74    7.51
   4   2 -21   13.73    1.20
  -4   2  21   13.69    2.28
  -2  -2  21    1.39    6.73
   2  -2 -21    1.53    0.52
  -2   2  21    3.59    6.06
   0  -2 -21    9.14    0.89
   0  -2  21    6.28    6.35
   0   2 -21    8.98    6.97
   0   2 -21    9.45    0.79
   0   2  21   10.28    6.15
   2  -2  21   11.70    7.39
  -2  -2 -21    1.27    0.47
   2   2  21   -6.22    6.34
  -5  -3  21    5.51    8.62
  -5  -3  21    0.31    1.22
   5  -3 -21   -0.56    0.71
  -5   3  21   -2.24    7.39
  -3  -3  21   17.99    7.88
  -3  -3  21    5.85    1.35
   3  -3 -21    6.57    0.99
  -3   3  21   11.10    6.93
   1  -3 -21    1.11    0.52
  -1  -3  21   -6.56    6.78
  -1   3  21    0.86    6.65
   1   3 -21    0.24    0.48
   1  -3  21    2.07    7.60
  -4  -4  21   37.76    3.44
   2  -4 -21    0.69    0.60
  -2  -4  21   11.90    9.43
  -2   4  21    2.51    7.40
   0  -4  21    6.80    9.00
   0   4  21    1.41    7.48
   6   0 -22    3.38    0.93
  -6   0  22    6.23    2.09
  -4   0  22   11.33    7.82
   4   0 -22   17.79    1.48
   2   0 -22    1.79    0.57
  -2   0  22   -5.89    6.35
   0   0  22   38.31    8.29
   5  -1 -22    3.08    0.87
  -5  -1  22    3.60    1.24
  -5  -1  22   10.95    8.72
  -5   1  22    3.46    7.48
   5   1 -22    1.77    0.80
  -3  -1  22   13.21    7.94
   3  -1 -22    5.93    0.79
   3   1 -22    8.18    1.11
  -3   1  22    1.66    7.44
   1  -1 -22    5.64    0.87
  -1  -1  22    6.46    6.72
  -1   1  22    5.67    7.26
   1  -1  22   12.85    7.38
   1   1  22    2.53    6.27
  -4  -2  22    6.28    1.24
  -4  -2  22   -0.96    8.85
  -4   2  22   17.91    8.05
  -2  -2  22    6.12    8.40
  -2   2  22    3.80    7.13
   0  -2  22   15.03    7.56
   0   2  22   23.96    7.90
  -3  -3  22    4.13    9.60
  -3   3  22    8.86    8.26
  -1  -3  22    7.76    8.88
  -1   3  22   11.42    8.06
  -4   0  23   -3.06   15.99
   4   0 -23    0.68    0.94
  -2   0  23   22.45    7.79
   0   0  23    2.31   13.53
   3  -1 -23    0.45    0.68
  -3  -1  23   -4.72   11.65
  -3   1  23  -13.19    9.05
  -1  -1  23   -9.41    7.38
  -1   1  23    8.00    9.90
   0   0   0    0.00    0.00
;
_shelx_hkl_checksum              13365
loop_
_space_group_symop_operation_xyz
'x, y, z'
'-x, y, -z+1/2'
'x+1/2, y+1/2, z'
'-x+1/2, y+1/2, -z+1/2'
'-x, -y, -z'
'x, -y, z-1/2'
'-x+1/2, -y+1/2, -z'
'x+1/2, -y+1/2, z-1/2'
loop_
_atom_site_label
_atom_site_type_symbol
_atom_site_fract_x
_atom_site_fract_y
_atom_site_fract_z
_atom_site_U_iso_or_equiv
_atom_site_adp_type
_atom_site_occupancy
_atom_site_site_symmetry_order
_atom_site_calc_flag
_atom_site_refinement_flags_posn
N1 N 0.80648(12) 0.74384(16) 0.23996(6) 0.0237(3) Uani 1 1 d .
N2 N 0.47985(11) 0.93410(14) 0.40007(7) 0.0235(3) Uani 1 1 d .
C1 C 0.78636(12) 0.80879(15) 0.30193(7) 0.0164(3) Uani 1 1 d .
C3 C 0.76099(12) 0.88998(14) 0.37933(7) 0.0143(3) Uani 1 1 d .
C4 C 0.87937(12) 0.94389(14) 0.43884(7) 0.0132(3) Uani 1 1 d .
C6 C 0.84897(12) 1.02605(15) 0.51607(7) 0.0148(3) Uani 1 1 d D
C5 C 1.03554(12) 0.92036(15) 0.42576(7) 0.0143(3) Uani 1 1 d D
C2 C 0.60472(13) 0.91479(15) 0.39040(7) 0.0161(3) Uani 1 1 d .
H6 H 0.7321(5) 1.0408(18) 0.5269(8) 0.023(3) Uiso 1 1 d D
H5 H 1.0566(16) 0.8616(19) 0.3673(4) 0.031(4) Uiso 1 1 d D
loop_
_atom_site_aniso_label
_atom_site_aniso_U_11
_atom_site_aniso_U_22
_atom_site_aniso_U_33
_atom_site_aniso_U_23
_atom_site_aniso_U_13
_atom_site_aniso_U_12
N1 0.0249(6) 0.0263(5) 0.0199(6) -0.0035(4) 0.0028(4) -0.0007(4)
N2 0.0191(5) 0.0287(6) 0.0223(6) 0.0005(4) 0.0020(4) 0.0000(4)
C1 0.0136(5) 0.0171(5) 0.0182(6) 0.0004(4) 0.0012(4) -0.0009(4)
C3 0.0153(5) 0.0136(5) 0.0142(6) 0.0015(4) 0.0029(4) 0.0006(4)
C4 0.0141(5) 0.0110(5) 0.0151(6) 0.0026(4) 0.0041(4) 0.0011(4)
C6 0.0156(5) 0.0150(5) 0.0146(6) 0.0022(4) 0.0043(4) 0.0017(4)
C5 0.0148(5) 0.0147(5) 0.0142(6) 0.0007(4) 0.0048(4) 0.0016(4)
C2 0.0171(6) 0.0164(5) 0.0142(6) 0.0002(4) 0.0001(4) -0.0005(4)
loop_
_atom_type_symbol
_atom_type_description
_atom_type_scat_dispersion_real
_atom_type_scat_dispersion_imag
_atom_type_scat_source
C C 0.0033 0.0016 'International Tables Vol C Tables 4.2.6.8 and 6.1.1.4'
H H 0.0000 0.0000 'International Tables Vol C Tables 4.2.6.8 and 6.1.1.4'
N N 0.0061 0.0033 'International Tables Vol C Tables 4.2.6.8 and 6.1.1.4'
loop_
_geom_angle_atom_site_label_1
_geom_angle_atom_site_label_2
_geom_angle_atom_site_label_3
_geom_angle
_geom_angle_site_symmetry_1
N1 C1 C3 179.92(14) .
C4 C3 C1 122.08(10) .
C4 C3 C2 122.03(10) .
C1 C3 C2 115.88(10) .
C3 C4 C5 121.02(10) .
C3 C4 C6 120.39(10) .
C5 C4 C6 118.59(10) .
C5 C6 C4 120.52(10) 5_776
C5 C6 H6 120.5(7) 5_776
C4 C6 H6 118.9(7) .
C6 C5 C4 120.89(10) 5_776
C6 C5 H5 121.3(8) 5_776
C4 C5 H5 117.8(8) .
N2 C2 C3 179.33(12) .
loop_
_geom_bond_atom_site_label_1
_geom_bond_atom_site_label_2
_geom_bond_distance
_geom_bond_site_symmetry_2
N1 C1 1.1482(15) .
N2 C2 1.1501(14) .
C1 C3 1.4349(16) .
C3 C4 1.3785(15) .
C3 C2 1.4352(16) .
C4 C5 1.4424(15) .
C4 C6 1.4484(16) .
C6 C5 1.3477(16) 5_776
C6 H6 1.0823(10) .
C5 C6 1.3477(16) 5_776
C5 H5 1.0824(10) .
loop_
_geom_torsion_atom_site_label_1
_geom_torsion_atom_site_label_2
_geom_torsion_atom_site_label_3
_geom_torsion_atom_site_label_4
_geom_torsion
_geom_torsion_site_symmetry_4
C1 C3 C4 C5 -0.12(16) .
C2 C3 C4 C5 -179.00(10) .
C1 C3 C4 C6 179.76(10) .
C2 C3 C4 C6 0.88(15) .
C3 C4 C6 C5 -179.72(10) 5_776
C5 C4 C6 C5 0.17(17) 5_776
C3 C4 C5 C6 179.72(10) 5_776
C6 C4 C5 C6 -0.17(17) 5_776
