#------------------------------------------------------------------------------
#$Date: 2019-02-12 05:35:00 +0200 (Tue, 12 Feb 2019) $
#$Revision: 213605 $
#$URL: file:///home/coder/svn-repositories/cod/cif/2/02/14/2021475.cif $
#------------------------------------------------------------------------------
#
# This file is available in the Crystallography Open Database (COD),
# http://www.crystallography.net/. The original data for this entry
# were provided by IUCr Journals, http://journals.iucr.org/.
#
# The file may be used within the scientific community so long as
# proper attribution is given to the journal article from which the
# data were obtained.
#
data_2021475
loop_
_publ_author_name
'Ja\'cimovi\'c, \<Zeljko K.'
'Novakovi\'c, Sladjana B.'
'Bogdanovi\'c, Goran A.'
'Giester, Gerald'
'Kosovi\'c, Milica'
'Libowitzky, Eugen'
_publ_section_title
;
 First crystal structures of metal complexes with a
 4-nitropyrazole-3-carboxylic acid ligand and the third crystal form of
 the ligand
;
_journal_coeditor_code           YO3057
_journal_issue                   3
_journal_name_full               'Acta Crystallographica Section C'
_journal_page_first
;
;
_journal_paper_doi               10.1107/S2053229619001244
_journal_volume                  75
_journal_year                    2019
_chemical_formula_iupac
'[Cu2 (C4 H1 N3 O4)2 (C3 H7 N1 O1)2 (H2 O1)2]'
_chemical_formula_moiety         'C14 H20 Cu2 N8 O12'
_chemical_formula_sum            'C14 H20 Cu2 N8 O12'
_chemical_formula_weight         619.46
_chemical_name_systematic
Bis(\m-4-nitro-1<i>H</i>-imidazol-1-ide-5-carboxylato)-\k^3^<i>N</i>^1^,<i>O</i>:<i>N</i>^2^;\k^3^<i>N</i>^2^:<i>N</i>^1^,<i>O</i>-bis[aqua(dimethylformamide-\k<i>O</i>)copper(II)]
_space_group_crystal_system      triclinic
_space_group_IT_number           2
_space_group_name_Hall           '-P 1'
_space_group_name_H-M_alt        'P -1'
_symmetry_space_group_name_Hall  '-P 1'
_symmetry_space_group_name_H-M   'P -1'
_atom_sites_solution_hydrogens   mixed
_audit_creation_method           SHELXL-2014/6
_cell_angle_alpha                83.977(4)
_cell_angle_beta                 88.281(3)
_cell_angle_gamma                82.743(3)
_cell_formula_units_Z            1
_cell_length_a                   5.0863(6)
_cell_length_b                   8.8110(9)
_cell_length_c                   12.7192(14)
_cell_measurement_reflns_used    7645
_cell_measurement_temperature    200(2)
_cell_measurement_theta_max      66.276
_cell_measurement_theta_min      4.685
_cell_volume                     562.25(11)
_computing_cell_refinement
;
APEX2 (Bruker, 2008)
;
_computing_data_collection
;
SAINT (Bruker, 2008)
;
_computing_data_reduction
;
SAINT (Bruker, 2008)
;
_computing_molecular_graphics
;
ORTEP-3 (Farrugia, 2012) and Mercury (Macrae <i>et al.</i>,
2008)
;
_computing_publication_material
;
PLATON (Spek, 2009)
;
_computing_structure_refinement
;
SHELXL2014 (Sheldrick, 2015b)
;
_computing_structure_solution
;
SHELXT2014 (Sheldrick, 2015a)
;
_diffrn_ambient_temperature      200(2)
_diffrn_measured_fraction_theta_full 0.998
_diffrn_measured_fraction_theta_max 0.997
_diffrn_measurement_device_type  'Bruker ApexII CCD'
_diffrn_measurement_method       'phi and omega scans'
_diffrn_radiation_type           MoK\a
_diffrn_radiation_wavelength     0.71073
_diffrn_reflns_av_R_equivalents  0.0325
_diffrn_reflns_av_unetI/netI     0.0282
_diffrn_reflns_limit_h_max       7
_diffrn_reflns_limit_h_min       -7
_diffrn_reflns_limit_k_max       13
_diffrn_reflns_limit_k_min       -13
_diffrn_reflns_limit_l_max       19
_diffrn_reflns_limit_l_min       -19
_diffrn_reflns_number            22093
_diffrn_reflns_theta_full        25.242
_diffrn_reflns_theta_max         33.297
_diffrn_reflns_theta_min         3.786
_diffrn_source                   'Incoatec ImS'
_exptl_absorpt_coefficient_mu    1.971
_exptl_absorpt_correction_type   multi-scan
_exptl_absorpt_process_details
;
(SADABS; Bruker, 2008)
;
_exptl_crystal_colour            blue
_exptl_crystal_density_diffrn    1.830
_exptl_crystal_description       prism
_exptl_crystal_F_000             314
_exptl_crystal_size_max          0.3
_exptl_crystal_size_mid          0.2
_exptl_crystal_size_min          0.15
_refine_diff_density_max         0.700
_refine_diff_density_min         -0.482
_refine_ls_extinction_method     none
_refine_ls_goodness_of_fit_ref   1.060
_refine_ls_hydrogen_treatment    mixed
_refine_ls_matrix_type           full
_refine_ls_number_parameters     175
_refine_ls_number_reflns         4331
_refine_ls_number_restraints     0
_refine_ls_restrained_S_all      1.060
_refine_ls_R_factor_all          0.0413
_refine_ls_R_factor_gt           0.0306
_refine_ls_shift/su_max          0.000
_refine_ls_shift/su_mean         0.000
_refine_ls_structure_factor_coef Fsqd
_refine_ls_weighting_details
'w=1/[\s^2^(Fo^2^)+(0.0288P)^2^+0.3153P] where P=(Fo^2^+2Fc^2^)/3'
_refine_ls_weighting_scheme      calc
_refine_ls_wR_factor_gt          0.0685
_refine_ls_wR_factor_ref         0.0720
_reflns_number_gt                3680
_reflns_number_total             4331
_reflns_threshold_expression     'I > 2\s(I)'
_cod_data_source_file            yo3057sup1.cif
_cod_data_source_block           II
_cod_database_code               2021475
_shelx_space_group_comment
;
The symmetry employed for this shelxl refinement is uniquely defined
by the following loop, which should always be used as a source of
symmetry information in preference to the above space-group names.
They are only intended as comments.
;
_shelx_hkl_file
;
  -1   0   0  481.05    9.60
  -1   0   0  470.55   10.20
  -1   0   0  469.25    9.30
  -1   0   0  467.05    9.20
  -1   0   0  469.05    9.80
  -2   0   0  533.25   13.00
  -2   0   0  547.65   11.20
  -2   0   0  554.34   12.30
  -2   0   0  542.55   11.90
  -2   0   0  553.44   11.40
  -3   0   0  399.76   11.60
  -3   0   0  405.56   10.60
  -3   0   0  382.16    9.30
  -3   0   0  393.36   10.00
  -3   0   0  393.46    9.00
   3   0   0  395.26   10.80
  -4   0   0  190.98    6.40
  -4   0   0  183.78    5.80
  -4   0   0  187.58    7.50
  -4   0   0  195.28    6.80
  -4   0   0  188.18    8.40
   4   0   0  207.28    8.40
  -5   0   0   74.49    4.20
  -5   0   0   74.79    5.90
  -5   0   0   75.39    4.70
  -5   0   0   67.79    4.40
  -5   0   0   69.99    6.40
   5   0   0   64.89    5.30
  -6   0   0   13.00    3.00
  -6   0   0   13.50    2.70
  -6   0   0   12.50    3.00
  -6   0   0    7.20    5.00
   6   0   0   20.10    4.50
   6   0   0   14.10    3.50
   6   0   0   17.10    3.20
   6   0   0    9.90    5.00
  -7   0   0   98.69    5.50
  -7   0   0   81.79    7.10
   7   0   0  102.09   10.20
   7  -1   0   15.40    5.90
  -7   1   0   12.10    2.60
  -7   1   0    8.90    3.30
  -7   1   0   13.00    4.40
   6  -1   0   27.40    4.10
   6  -1   0   30.70    6.20
   6  -1   0   28.50    5.10
  -6   1   0   26.10    4.30
  -6   1   0   26.40    3.60
  -6   1   0   22.80    2.90
   5  -1   0   14.30    3.00
   5  -1   0   15.00    4.50
  -5   1   0   15.50    2.70
  -5   1   0   11.30    4.40
  -5   1   0   14.10    2.40
  -5   1   0   10.10    2.80
   4  -1   0   -2.30    2.30
   4  -1   0   -1.30    3.00
  -4   1   0   -1.30    1.40
  -4   1   0    1.40    3.00
  -4   1   0    0.00    1.40
  -4   1   0    2.00    2.20
  -4   1   0    0.20    1.80
   3  -1   0 1057.29   22.50
   3  -1   0 1015.50   19.80
  -3   1   0 1035.50   22.10
  -3   1   0 1053.79   22.50
  -3   1   0 1057.39   21.20
  -3   1   0 1049.20   21.40
  -3   1   0 1055.69   23.70
   2  -1   0  845.52   17.30
   2  -1   0  806.12   15.70
  -2   1   0  840.32   18.20
  -2   1   0  831.62   16.70
  -2   1   0  825.02   17.40
  -2   1   0  835.12   16.60
  -2   1   0  843.52   17.30
   1  -1   0  566.14   11.50
   1  -1   0  584.74   11.20
   1  -1   0  550.64   10.80
   1  -1   0  517.15   10.80
  -1   1   0  564.34   11.00
  -1   1   0  558.34   11.10
  -1   1   0  565.34   11.30
  -1   1   0  574.44   11.40
  -1   1   0  571.44   10.60
   0   1   0  354.66    6.90
  -1  -1   0  835.12   16.40
  -1  -1   0  828.32   15.90
  -1  -1   0  843.82   16.10
  -1  -1   0  827.52   17.00
   1   1   0  816.12   16.10
   1   1   0  832.72   15.60
   1   1   0  837.52   15.60
  -2  -1   0    3.60    0.90
  -2  -1   0    5.60    1.30
  -2  -1   0    4.60    2.10
  -2  -1   0    4.70    1.00
  -2  -1   0    6.60    1.00
   2   1   0    4.90    0.50
  -3  -1   0  123.69    6.40
  -3  -1   0  117.19    3.80
  -3  -1   0  115.99    4.50
  -3  -1   0  118.19    5.10
  -3  -1   0  124.49    4.10
   3   1   0  116.39    2.60
  -4  -1   0  717.13   15.70
  -4  -1   0  717.73   17.70
  -4  -1   0  708.23   19.60
  -4  -1   0  721.43   16.90
  -4  -1   0  719.23   16.00
   4   1   0  735.13   18.60
  -5  -1   0    4.70    1.90
  -5  -1   0    6.00    2.90
  -5  -1   0    2.00    1.90
  -5  -1   0   -0.10    4.00
  -5  -1   0    2.70    2.30
   5   1   0    4.00    2.80
   5   1   0    2.60    1.70
   5   1   0    3.70    3.40
  -6  -1   0    1.90    2.00
  -6  -1   0    1.00    2.10
  -6  -1   0    0.30    4.40
   6   1   0    2.10    3.80
   6   1   0    2.40    2.00
   6   1   0   -1.90    3.10
  -7  -1   0   57.89    7.60
  -7  -1   0   57.29    5.90
   7   1   0   56.69    7.40
   7  -2   0    6.40    5.70
  -7   2   0    3.40    2.10
  -7   2   0    0.30    3.50
  -7   2   0   -4.00    2.50
   6  -2   0  255.77   10.70
   6  -2   0  255.97   13.20
   6  -2   0  256.27   12.30
  -6   2   0  264.67    9.50
  -6   2   0  248.18    9.80
  -6   2   0  260.67    9.10
   5  -2   0   90.99    6.70
   5  -2   0   75.59    5.70
   5  -2   0   88.19    7.10
  -5   2   0   70.49    4.90
  -5   2   0   76.59    4.80
  -5   2   0   82.09    4.60
   4  -2   0    0.20    3.10
   4  -2   0    4.60    2.40
  -4   2   0   -0.10    1.50
  -4   2   0   -0.10    1.30
  -4   2   0    0.50    1.10
   3  -2   0  306.37    8.40
   3  -2   0  306.27    9.30
   3  -2   0  291.07    6.80
  -3   2   0  305.47    7.90
  -3   2   0  299.27    8.40
  -3   2   0  288.67    8.50
  -3   2   0  298.07    7.60
   2  -2   0  829.52   16.60
   2  -2   0  851.31   17.20
   2  -2   0  844.12   18.80
   2  -2   0  859.91   17.90
  -2   2   0  852.51   17.60
  -2   2   0  841.92   17.20
  -2   2   0  858.21   17.70
  -2   2   0  851.41   16.00
  -2   2   0  846.72   17.00
   1  -2   0  458.35   10.70
   1  -2   0  473.85    9.10
   1  -2   0  459.95    9.60
   1  -2   0  456.65    9.70
  -1   2   0  465.85    9.60
  -1   2   0  439.76    9.60
  -1   2   0  472.15    9.40
  -1   2   0  459.95    9.20
   0  -2   0 2445.26   48.10
   0  -2   0 2400.56   47.10
   0  -2   0 2440.76   45.60
   0  -2   0 2383.86   47.50
   0   2   0 2401.56   46.90
   0   2   0 2408.86   47.30
   0   2   0 2409.06   48.40
  -1  -2   0 8313.57  158.18
  -1  -2   0 8214.58  153.68
  -1  -2   0 8149.18  153.88
  -1  -2   0 7921.91  159.08
  -1  -2   0 8626.14  156.28
   1   2   0 8369.66  154.98
   1   2   0 8112.99  157.88
   1   2   0 8177.98  159.28
   1   2   0 7946.31  153.98
   1   2   0 8265.47  154.08
  -2  -2   0  137.59    4.80
  -2  -2   0  134.89    4.00
  -2  -2   0  136.99    5.80
  -2  -2   0  136.69    3.00
   2   2   0  141.99    3.40
   2   2   0  127.89    4.10
   2   2   0  135.69    4.70
   2   2   0  137.49    3.40
  -3  -2   0  338.27   10.80
  -3  -2   0  339.37    9.60
  -3  -2   0  343.17    8.70
   3   2   0  327.97    8.70
   3   2   0  333.37    7.10
   3   2   0  337.67    8.00
  -4  -2   0   68.29    4.40
  -4  -2   0   66.69    4.10
  -4  -2   0   59.39    6.20
   4   2   0   63.09    4.90
   4   2   0   60.89    2.30
   4   2   0   62.39    4.10
   4   2   0   63.59    3.40
  -5  -2   0   76.69    4.60
  -5  -2   0   74.49    6.00
  -5  -2   0   79.99    7.80
   5   2   0   79.29    6.30
   5   2   0   68.19    4.10
   5   2   0   83.19    5.20
   5   2   0   70.39    5.80
  -6  -2   0   51.29    7.40
  -6  -2   0   34.70    4.60
  -6  -2   0   39.40    4.10
   6   2   0   37.00    5.10
   6   2   0   45.00    5.30
   6   2   0   43.80    5.40
  -7  -2   0    4.20    5.70
  -7  -2   0    4.80    3.30
   7   2   0   -2.90    4.20
   7  -3   0   -6.50    5.40
   7  -3   0    7.50    4.50
  -7   3   0   -0.20    1.90
  -7   3   0    4.10    2.90
  -7   3   0    1.20    2.40
   6  -3   0   36.70    6.10
  -6   3   0   35.90    3.90
  -6   3   0   42.50    4.60
  -6   3   0   34.30    4.00
   5  -3   0   -3.90    3.30
   5  -3   0   -0.70    2.70
  -5   3   0   -0.30    1.80
  -5   3   0    2.40    1.80
  -5   3   0   -1.60    1.90
   4  -3   0   48.80    5.50
   4  -3   0   53.29    5.00
   4  -3   0   42.40    3.60
  -4   3   0   41.10    2.90
  -4   3   0   38.50    3.10
  -4   3   0   50.79    4.20
   3  -3   0    8.80    3.40
   3  -3   0    8.90    1.40
   3  -3   0    8.00    1.80
   3  -3   0    9.30    2.80
  -3   3   0   12.50    1.90
  -3   3   0    8.90    1.70
  -3   3   0    7.80    1.40
   2  -3   0 2272.67   42.40
   2  -3   0 2113.69   42.80
   2  -3   0 2257.47   43.40
   2  -3   0 2264.77   45.50
  -2   3   0 2265.47   43.10
  -2   3   0 2284.87   43.50
  -2   3   0 2272.77   42.30
  -2   3   0 2306.57   42.70
  -2   3   0 2246.08   42.90
   1  -3   0    2.70    1.10
   1  -3   0    2.70    1.50
   1  -3   0    2.80    1.00
  -1   3   0    0.60    0.90
  -1   3   0    0.30    0.70
  -1   3   0    1.80    0.60
  -1   3   0    2.20    0.90
   0  -3   0  313.87    7.40
   0  -3   0  305.17    7.20
   0  -3   0  306.27    8.20
   0   3   0  304.97    7.40
   0   3   0  312.57    7.10
   0   3   0  310.37    7.00
  -1  -3   0  571.74   11.40
  -1  -3   0  571.04   12.50
  -1  -3   0  563.44   12.00
  -1  -3   0  566.24   10.80
  -1  -3   0  570.84   11.80
   1   3   0  563.74   12.20
   1   3   0  555.34   11.70
   1   3   0  561.14   12.30
   1   3   0  567.04   11.50
  -2  -3   0  418.06    8.90
  -2  -3   0  423.16   11.70
  -2  -3   0  414.36    9.10
  -2  -3   0  425.16   10.20
   2   3   0  423.16    9.70
   2   3   0  418.76    8.10
   2   3   0  409.06    9.10
   2   3   0  414.06   10.20
  -3  -3   0   58.69    5.30
  -3  -3   0   51.09    3.80
  -3  -3   0   57.99    3.00
   3   3   0   52.89    3.20
   3   3   0   54.09    4.20
   3   3   0   50.79    2.30
   3   3   0   53.69    2.10
  -4  -3   0  131.79    5.30
  -4  -3   0  116.19    6.20
  -4  -3   0  125.69    7.40
   4   3   0  119.39    3.80
   4   3   0  123.49    5.80
   4   3   0  119.59    4.30
   4   3   0  122.69    5.30
  -5  -3   0  273.07   10.30
  -5  -3   0  264.17   12.60
  -5  -3   0  284.27    9.30
   5   3   0  286.97   10.00
   5   3   0  274.17    7.90
   5   3   0  271.07    9.20
   5   3   0  290.07   11.70
  -6  -3   0   51.29    5.00
  -6  -3   0   56.39    6.20
  -6  -3   0   50.59    6.90
   6   3   0   59.99    6.40
   6   3   0   60.69    7.10
  -7  -3   0   33.90    7.70
  -7  -3   0   19.80    3.60
   7   3   0   19.40    5.30
   7  -4   0   33.90    6.80
   7  -4   0   22.60    5.60
  -7   4   0   32.60    4.40
  -7   4   0   26.20    3.70
   6  -4   0   -2.80    4.90
  -6   4   0    2.80    2.50
  -6   4   0   -0.20    2.10
  -6   4   0   -0.70    1.60
   5  -4   0  332.87   14.50
  -5   4   0  343.47   10.30
  -5   4   0  320.67   10.80
  -5   4   0  354.06   10.60
   4  -4   0  333.27   10.70
   4  -4   0  370.16   13.50
  -4   4   0  333.07   10.40
  -4   4   0  342.97    9.80
  -4   4   0  355.46    9.70
   3  -4   0   31.50    2.70
   3  -4   0   35.90    3.60
   3  -4   0   26.10    3.80
  -3   4   0   36.40    3.20
  -3   4   0   34.60    2.40
  -3   4   0   29.90    1.70
  -3   4   0   35.40    2.80
   2  -4   0   52.69    3.20
   2  -4   0   52.69    3.10
   2  -4   0   54.39    5.00
   2  -4   0   51.99    1.80
  -2   4   0   50.09    2.60
  -2   4   0   53.59    2.80
  -2   4   0   45.50    2.70
  -2   4   0   56.49    3.00
   1  -4   0   78.79    3.10
   1  -4   0   83.19    5.10
   1  -4   0   77.89    3.60
  -1   4   0   80.59    2.70
  -1   4   0   83.29    2.50
  -1   4   0   79.09    2.90
  -1   4   0   82.99    3.30
   0  -4   0  569.24   13.50
   0  -4   0  540.75   10.80
   0  -4   0  551.94   12.30
   0  -4   0  560.64   12.60
   0   4   0  584.34   12.90
   0   4   0  567.84   12.00
   0   4   0  571.94   12.30
  -1  -4   0  133.39    3.90
  -1  -4   0  123.99    3.10
  -1  -4   0  131.59    4.50
  -1  -4   0  127.29    3.80
  -1  -4   0  129.59    4.90
   1   4   0  129.39    4.10
   1   4   0  126.19    4.30
   1   4   0  128.59    4.40
  -2  -4   0 1134.59   23.60
  -2  -4   0 1128.69   24.00
  -2  -4   0 1152.38   22.80
  -2  -4   0 1130.69   22.10
   2   4   0 1159.08   24.00
   2   4   0 1144.09   23.50
   2   4   0 1139.49   22.80
  -3  -4   0   27.10    4.10
  -3  -4   0   27.50    2.20
  -3  -4   0   26.30    3.10
  -3  -4   0   17.30    1.40
  -3  -4   0   22.40    1.70
   3   4   0   24.40    2.10
   3   4   0   23.50    3.60
   3   4   0   21.70    1.10
   3   4   0   31.20    2.90
  -4  -4   0   49.60    3.50
  -4  -4   0   51.79    6.10
  -4  -4   0   56.09    4.20
   4   4   0   51.49    3.00
   4   4   0   54.79    4.70
   4   4   0   53.09    3.90
  -5  -4   0  105.59    7.00
  -5  -4   0   92.39    8.80
  -5  -4   0   99.49    5.40
   5   4   0  100.19    7.30
   5   4   0  107.19    7.30
   5   4   0  103.79    5.50
  -6  -4   0   -2.60    4.90
  -6  -4   0    7.10    3.10
  -6  -4   0   12.40    3.20
   6   4   0   11.00    3.60
   6   4   0   13.10    3.90
  -7  -4   0   25.40    7.40
  -7  -4   0   23.80    4.30
   7   4   0   19.90    5.80
   6  -5   0   13.90    5.00
   6  -5   0   10.90    6.50
  -6   5   0    7.90    2.40
  -6   5   0   11.80    3.10
  -6   5   0   12.40    3.20
   5  -5   0  130.09    9.40
  -5   5   0  128.89    7.10
  -5   5   0  120.29    6.20
  -5   5   0  133.39    6.50
   4  -5   0   -1.60    2.90
  -4   5   0    1.00    2.00
  -4   5   0    0.80    1.30
  -4   5   0    1.00    1.80
   3  -5   0   33.10    3.10
   3  -5   0   35.30    3.20
   3  -5   0   37.40    4.70
  -3   5   0   33.20    2.90
  -3   5   0   29.90    2.30
  -3   5   0   30.60    2.90
  -3   5   0   40.20    3.30
   2  -5   0   45.40    5.10
   2  -5   0   44.40    2.90
   2  -5   0   35.70    3.10
  -2   5   0   35.50    2.50
  -2   5   0   40.80    2.90
   1  -5   0  805.92   17.00
   1  -5   0  815.92   18.30
   1  -5   0  819.42   18.10
   1  -5   0  815.22   19.70
  -1   5   0  835.02   17.00
  -1   5   0  796.42   16.10
  -1   5   0  818.02   17.40
  -1   5   0  826.52   16.40
   0  -5   0  350.66    7.10
   0  -5   0  361.86   10.20
   0  -5   0  345.57    8.90
   0  -5   0  342.97    9.20
   0   5   0  344.57    8.40
   0   5   0  345.87    9.40
   0   5   0  341.57    8.80
  -1  -5   0  210.98    6.60
  -1  -5   0  207.88    5.00
  -1  -5   0  205.38    7.20
  -1  -5   0  217.58    5.50
  -1  -5   0  216.68    6.00
   1   5   0  205.28    6.70
   1   5   0  213.58    6.60
   1   5   0  219.78    6.40
  -2  -5   0   76.19    5.00
  -2  -5   0   71.39    3.60
  -2  -5   0   73.89    3.70
  -2  -5   0   70.19    2.60
  -2  -5   0   75.19    2.30
   2   5   0   74.99    4.30
   2   5   0   71.09    3.30
   2   5   0   73.79    4.50
  -3  -5   0    1.90    2.60
  -3  -5   0    4.20    2.00
  -3  -5   0    3.70    1.10
  -3  -5   0    4.10    1.40
   3   5   0    2.50    1.20
   3   5   0    4.90    2.90
   3   5   0    1.10    2.30
  -4  -5   0  113.39    7.90
  -4  -5   0  116.89    6.40
  -4  -5   0  118.49    4.70
   4   5   0  117.09    5.60
   4   5   0  125.09    7.00
   4   5   0  114.39    4.60
  -5  -5   0   39.50    4.90
  -5  -5   0   39.20    3.50
  -5  -5   0   36.00    6.70
   5   5   0   50.99    6.10
   5   5   0   42.90    6.00
  -6  -5   0   83.99    5.70
  -6  -5   0   78.19    6.70
  -6  -5   0   92.59   10.20
   6   5   0   93.59    8.50
  -7  -5   0    7.70    6.80
  -7  -5   0   13.00    3.50
   7   5   0   14.50    4.70
   6  -6   0   81.79    9.20
   6  -6   0   86.49    9.10
  -6   6   0   69.59    5.20
  -6   6   0   72.99    6.00
   5  -6   0    5.30    4.00
   5  -6   0    5.00    5.70
  -5   6   0    3.60    2.10
  -5   6   0    0.60    2.40
  -5   6   0    3.10    2.40
   4  -6   0  204.38   10.20
   4  -6   0  202.08   11.50
  -4   6   0  191.68    7.40
  -4   6   0  204.48    7.60
  -4   6   0  198.48    7.20
   3  -6   0  178.18    9.10
   3  -6   0  180.48    6.90
   3  -6   0  160.58    5.80
   3  -6   0  179.98    8.50
  -3   6   0  180.38    5.70
  -3   6   0  184.08    6.20
  -3   6   0  169.48    6.30
  -3   6   0  173.48    6.50
   2  -6   0    5.50    1.60
   2  -6   0    4.40    2.70
   2  -6   0    8.40    2.40
   2  -6   0    5.90    4.20
  -2   6   0    6.40    1.60
  -2   6   0    5.60    1.50
  -2   6   0    5.10    1.90
   1  -6   0  156.58    5.10
   1  -6   0  155.48    6.60
   1  -6   0  170.28    8.30
   1  -6   0  165.08    6.30
  -1   6   0  158.28    5.40
  -1   6   0  148.29    4.40
  -1   6   0  158.08    5.50
   0  -6   0   28.60    1.20
   0  -6   0   26.80    2.80
   0  -6   0   33.50    4.40
   0  -6   0   30.70    2.80
   0   6   0   27.10    2.60
   0   6   0   28.10    3.00
   0   6   0   28.50    3.00
  -1  -6   0  157.08    6.10
  -1  -6   0  145.89    4.30
  -1  -6   0  151.38    5.20
  -1  -6   0  155.98    4.50
  -1  -6   0  167.28    7.60
   1   6   0  150.78    6.00
   1   6   0  166.78    5.70
   1   6   0  159.68    5.80
  -2  -6   0    0.90    1.20
  -2  -6   0    4.00    2.90
  -2  -6   0    2.50    1.40
  -2  -6   0    2.40    1.90
   2   6   0    4.10    2.00
   2   6   0    4.70    3.20
   2   6   0   -3.20    2.10
  -3  -6   0  176.38    6.80
  -3  -6   0  183.28    5.90
   3   6   0  153.28    6.90
   3   6   0  163.18    7.90
   3   6   0  168.48    6.20
  -4  -6   0   27.10    3.70
  -4  -6   0   31.20    5.30
  -4  -6   0   26.80    2.40
   4   6   0   25.30    3.70
   4   6   0   31.00    3.10
   4   6   0   30.30    5.00
  -5  -6   0   83.39    8.40
  -5  -6   0   83.59    4.60
  -5  -6   0   76.89    5.80
   5   6   0   84.39    8.10
   5   6   0   86.29    7.40
  -6  -6   0   10.20    4.40
  -6  -6   0   22.10    7.00
  -6  -6   0   15.70    2.50
   6   6   0   17.80    4.70
  -7  -6   0    9.40    6.70
   7   6   0    4.10    5.50
   6  -7   0   40.70    6.40
   6  -7   0   45.00    8.80
  -6   7   0   53.59    5.40
  -6   7   0   60.19    5.50
   5  -7   0   51.89    7.50
   5  -7   0   47.80    6.30
  -5   7   0   52.39    4.80
  -5   7   0   45.10    4.50
   4  -7   0   43.80    6.40
   4  -7   0   31.40    5.60
  -4   7   0   47.50    4.20
  -4   7   0   36.00    3.80
   3  -7   0   -0.50    3.00
   3  -7   0    2.10    4.50
   3  -7   0   -0.20    2.10
  -3   7   0    0.70    1.70
  -3   7   0   -2.40    1.70
  -3   7   0    1.50    1.80
   2  -7   0  111.39    4.50
   2  -7   0  116.89    8.60
   2  -7   0  118.59    7.00
   2  -7   0  126.69    6.10
  -2   7   0  115.29    4.50
  -2   7   0  116.59    5.30
   1  -7   0   37.60    5.40
   1  -7   0   38.40    4.00
   1  -7   0   35.10    3.80
  -1   7   0   40.10    3.40
  -1   7   0   34.90    3.20
   0  -7   0  458.75   12.70
   0  -7   0  462.65   14.40
   0  -7   0  468.15   12.20
   0   7   0  444.66   11.50
   0   7   0  436.16   11.70
  -1  -7   0  301.27   11.00
  -1  -7   0  292.37    9.30
  -1  -7   0  278.17    8.20
  -1  -7   0  268.67    7.10
   1   7   0  294.37    9.10
   1   7   0  306.67    9.00
   1   7   0  298.97    9.40
  -2  -7   0   77.29    1.70
  -2  -7   0   92.09    4.60
  -2  -7   0   80.39    6.30
  -2  -7   0   91.49    4.00
  -2  -7   0   86.59    3.50
   2   7   0   85.99    5.30
   2   7   0   78.99    5.10
   2   7   0   86.39    4.40
  -3  -7   0  123.89    7.30
  -3  -7   0  135.49    5.60
  -3  -7   0  130.09    5.90
   3   7   0  126.99    6.20
   3   7   0  138.89    6.00
   3   7   0  128.49    7.70
  -4  -7   0   20.40    3.40
  -4  -7   0   15.00    2.00
  -4  -7   0   21.20    6.10
   4   7   0   25.30    4.80
   4   7   0   14.40    3.40
   4   7   0   20.30    3.00
  -5  -7   0   56.39    8.50
  -5  -7   0   50.09    5.50
   5   7   0   53.19    7.10
   5   7   0   40.90    6.30
  -6  -7   0   -2.30    3.80
  -6  -7   0   -5.50    3.40
   6   7   0   -4.90    5.20
  -7  -7   0    4.80    7.00
   7   7   0    9.60    6.20
   5  -8   0   69.49    8.50
   5  -8   0   55.39    7.80
  -5   8   0   47.00    4.50
  -5   8   0   58.09    5.20
   4  -8   0   23.70    5.60
   4  -8   0   25.70    7.00
  -4   8   0   27.00    3.30
  -4   8   0   21.70    3.60
   3  -8   0   83.99    7.40
   3  -8   0   86.49    6.00
   3  -8   0   79.69    8.40
  -3   8   0   83.59    4.70
  -3   8   0   85.29    5.20
   2  -8   0  181.48    8.00
   2  -8   0  177.98    9.60
   2  -8   0  176.78    8.80
  -2   8   0  182.08    7.20
   1  -8   0   -0.10    1.70
   1  -8   0   -4.20    4.00
   1  -8   0    1.90    2.70
  -1   8   0    0.70    2.20
  -1   8   0    0.30    1.60
   0  -8   0  230.28    8.90
   0  -8   0  237.98   10.10
   0  -8   0  239.38    8.50
   0   8   0  234.18    8.30
   0   8   0  241.18    8.20
  -1  -8   0  179.08    6.70
  -1  -8   0  184.98    8.70
  -1  -8   0  187.38    7.80
   1   8   0  184.38    7.60
   1   8   0  189.08    7.80
   1   8   0  180.68    7.00
  -2  -8   0  212.28    8.90
  -2  -8   0  204.18    8.00
   2   8   0  192.58    7.80
   2   8   0  187.18    8.60
   2   8   0  201.08    7.80
  -3  -8   0    2.60    3.30
  -3  -8   0    3.20    2.30
  -3  -8   0    0.30    1.80
   3   8   0    2.00    4.10
   3   8   0    3.00    2.50
   3   8   0    3.40    2.40
  -4  -8   0   16.10    2.50
  -4  -8   0   16.00    5.00
  -4  -8   0   18.50    3.40
   4   8   0   21.90    3.50
   4   8   0   19.80    5.40
  -5  -8   0   21.40    4.20
  -5  -8   0   24.50    6.40
   5   8   0   30.50    5.20
  -6  -8   0    4.30    4.00
  -6  -8   0    6.90    6.90
   6   8   0   15.80    6.30
   5  -9   0   21.60    7.40
   5  -9   0   23.20    6.60
  -5   9   0   22.40    4.20
   4  -9   0    8.40    3.70
   4  -9   0   14.90    7.00
  -4   9   0   11.50    3.40
  -4   9   0    4.70    2.70
   3  -9   0   24.20    3.90
   3  -9   0   16.80    5.00
   3  -9   0   25.20    5.70
  -3   9   0   23.70    3.20
  -3   9   0   25.00    3.80
  -3   9   0   28.10    3.70
   2  -9   0    2.50    3.40
   2  -9   0    2.50    3.20
   2  -9   0   -0.50    3.70
  -2   9   0   -1.70    2.60
   1  -9   0   36.20    4.70
   1  -9   0   51.49    6.10
   1  -9   0   35.10    4.70
  -1   9   0   37.30    4.30
  -1   9   0   43.10    4.00
   0  -9   0    4.70    2.60
   0  -9   0    7.90    4.70
   0  -9   0    3.10    2.30
   0   9   0    5.80    3.00
   0   9   0    7.90    3.20
  -1  -9   0  143.69    9.20
  -1  -9   0  133.09    7.20
   1   9   0  125.49    7.10
   1   9   0  129.29    6.80
   1   9   0  128.49    7.10
  -2  -9   0   62.99    5.90
  -2  -9   0   73.39    5.70
   2   9   0   86.09    6.70
   2   9   0   78.49    5.70
   2   9   0   72.19    5.50
  -3  -9   0   31.80    5.30
  -3  -9   0   36.30    4.10
   3   9   0   38.60    4.90
   3   9   0   31.80    4.00
   3   9   0   34.60    4.40
  -4  -9   0   17.50    5.60
  -4  -9   0   13.90    3.30
   4   9   0   14.70    5.70
   4   9   0   18.80    3.80
  -5  -9   0    2.70    4.60
   5   9   0   -2.40    5.60
  -6  -9   0   29.00    8.40
   6   9   0   21.90    5.50
   4 -10   0   22.20    6.20
   4 -10   0   19.30    6.00
  -4  10   0   20.80    3.60
  -4  10   0   20.20    4.10
   3 -10   0    2.10    4.70
   3 -10   0    2.70    3.70
   3 -10   0   14.00    5.00
  -3  10   0    2.90    2.70
  -3  10   0    6.10    2.40
  -3  10   0    6.10    2.70
   2 -10   0   22.90    4.70
   2 -10   0   19.50    5.60
   2 -10   0   34.20    5.50
  -2  10   0   32.20    4.50
   1 -10   0   95.09    6.60
   1 -10   0   82.89    8.00
   1 -10   0   95.69    7.20
  -1  10   0   77.39    6.30
   0 -10   0    5.20    2.80
   0 -10   0    6.10    3.50
   0 -10   0    0.90    4.80
   0  10   0    7.30    3.50
   0  10   0    7.90    3.50
  -1 -10   0  160.28   10.30
  -1 -10   0  169.78    8.70
   1  10   0  160.58    8.30
   1  10   0  183.18    8.70
  -2 -10   0   11.30    3.80
  -2 -10   0   16.10    4.00
   2  10   0   10.00    4.50
   2  10   0   17.80    4.10
   2  10   0   12.50    3.30
  -3 -10   0   42.00    4.80
  -3 -10   0   47.60    6.40
   3  10   0   40.50    5.30
   3  10   0   44.70    5.40
   3  10   0   24.00    5.00
  -4 -10   0    5.00    2.80
  -4 -10   0    3.30    6.90
   4  10   0    8.50    3.70
   4  10   0    2.10    5.50
  -5 -10   0    8.80    7.40
   5  10   0   18.80    6.80
   3 -11   0    0.40    3.90
   3 -11   0    7.50    5.20
   3 -11   0   -4.70    4.20
  -3  11   0   -1.20    2.60
  -3  11   0   -1.70    2.80
   2 -11   0   31.70    5.80
   2 -11   0   32.10    6.40
   2 -11   0   27.70    4.60
  -2  11   0   32.30    5.00
   1 -11   0    7.20    4.20
   1 -11   0   18.70    4.50
   1 -11   0   12.90    6.40
  -1  11   0   10.00    4.20
   0 -11   0   57.89    6.50
   0 -11   0   65.09    7.30
   0  11   0   58.59    5.70
   0  11   0   61.19    6.20
  -1 -11   0   15.70    4.60
  -1 -11   0   18.50    5.80
   1  11   0   22.80    5.00
   1  11   0   16.70    4.30
  -2 -11   0   10.50    5.30
  -2 -11   0    7.60    3.90
   2  11   0   11.00    5.00
   2  11   0    8.40    4.00
  -3 -11   0   46.00    5.30
  -3 -11   0   31.80    6.30
   3  11   0   27.90    5.20
   3  11   0   50.19    6.00
  -4 -11   0    5.80    3.10
  -4 -11   0    7.70    7.40
   4  11   0    4.80    3.90
   4  11   0   -1.30    5.50
  -5 -11   0   18.10    8.50
   5  11   0   21.90    6.80
   2 -12   0   15.30    7.70
   2 -12   0    8.50    4.70
   2 -12   0   11.50    4.80
  -2  12   0    9.20    4.10
   1 -12   0    9.80    6.70
   1 -12   0   13.80    4.00
  -1  12   0   15.00    4.60
   0 -12   0   26.20    4.70
   0 -12   0   31.00    7.50
   0  12   0   32.80    4.80
  -1 -12   0    1.10    4.20
  -1 -12   0    5.60    5.50
   1  12   0    1.20    4.30
   1  12   0    7.10    4.20
  -2 -12   0   44.60    7.30
  -2 -12   0   54.59    6.40
   2  12   0   40.90    6.50
   2  12   0   40.60    5.30
  -3 -12   0    7.50    3.00
  -3 -12   0    5.20    5.40
   3  12   0   10.50    4.50
   3  12   0    0.40    5.50
  -4 -12   0   16.70    6.60
  -4 -12   0   14.90    3.80
   4  12   0   18.10    4.20
   4  12   0   21.90    6.90
   1 -13   0   19.50    5.90
   1 -13   0   27.30    6.50
  -1  13   0   22.00    5.30
   0 -13   0   19.70    5.50
   0 -13   0   20.90    5.80
   0  13   0    7.60    4.80
  -1 -13   0   19.40    6.70
  -1 -13   0   12.80    5.20
   1  13   0   10.70    5.00
  -2 -13   0   42.80    6.40
   2  13   0   34.10    6.00
   2  13   0   30.90    5.30
  -3 -13   0    1.60    3.80
  -3 -13   0    9.40    4.30
   3  13   0    3.70    4.30
   3  13   0    3.10    5.70
   2  13  -1   55.79    7.10
   2  13  -1   60.49    7.40
  -2 -13   1   47.70    6.70
  -2 -13   1   65.99    7.40
   1  13  -1   18.30    5.40
  -1 -13   1   38.70    6.60
  -1 -13   1   28.30    7.00
   0  13  -1   37.20    5.40
   0 -13   1   45.50    6.80
   0 -13   1   32.30    7.80
  -1  13  -1   41.10    6.20
   4  12  -1   20.00    5.20
   4  12  -1   15.50    6.60
  -4 -12   1   12.10    8.10
   3  12  -1    0.40    4.40
   3  12  -1    9.00    4.50
  -3 -12   1   12.90    4.20
  -3 -12   1    7.20    5.00
   2  12  -1   27.50    5.90
   2  12  -1   30.80    5.70
  -2 -12   1   20.70    4.80
  -2 -12   1   24.80    4.40
   1  12  -1    6.20    3.40
   1  12  -1   11.70    4.70
  -1 -12   1   11.50    4.50
  -1 -12   1    5.80    4.40
   0  12  -1   73.49    7.30
   0 -12   1   71.59    8.00
   0 -12   1   76.09    7.70
  -1  12  -1    0.10    3.90
   1 -12   1   -7.60    5.80
   1 -12   1   -0.90    4.30
  -2  12  -1   14.60    4.30
   2 -12   1   11.70    5.00
   2 -12   1   28.00    6.70
   5  11  -1   16.20    6.90
  -5 -11   1   14.00    6.30
   4  11  -1    1.10    5.70
   4  11  -1    4.00    3.00
  -4 -11   1   -3.90    2.70
  -4 -11   1    0.60    6.70
   3  11  -1   52.19    6.10
   3  11  -1   55.59    5.70
  -3 -11   1   45.50    6.50
  -3 -11   1   50.59    5.50
   2  11  -1    0.10    2.60
   2  11  -1   -0.70    4.60
   2  11  -1    4.20    2.60
  -2 -11   1    1.00    3.70
  -2 -11   1    3.70    4.70
   1  11  -1  114.89    7.90
   1  11  -1  112.69    8.10
  -1 -11   1  121.79    7.60
  -1 -11   1  118.19    8.70
   0  11  -1   58.19    6.20
   0 -11   1   60.89    6.00
   0 -11   1   59.59    8.20
  -1  11  -1   74.99    6.20
   1 -11   1   63.59    6.40
   1 -11   1   58.69    7.50
  -2  11  -1   60.09    5.90
   2 -11   1   74.99    7.50
   2 -11   1   49.99    6.50
   2 -11   1   59.79    8.00
  -3  11  -1   -0.90    3.10
   3 -11   1   -3.40    6.40
   3 -11   1   -1.30    3.90
   3 -11   1    0.90    4.50
   5  10  -1    2.90    6.10
  -5 -10   1    6.80    6.70
   4  10  -1   22.50    4.50
   4  10  -1   18.20    6.20
  -4 -10   1   28.20    4.40
  -4 -10   1   16.10    7.40
   3  10  -1   12.20    5.40
   3  10  -1   19.20    4.20
   3  10  -1   19.20    4.00
  -3 -10   1   17.40    4.90
  -3 -10   1   18.70    4.10
   2  10  -1    8.20    3.60
   2  10  -1   12.90    3.90
   2  10  -1   12.30    4.70
  -2 -10   1   10.30    4.60
  -2 -10   1   17.30    4.00
   1  10  -1   77.19    6.10
   1  10  -1   79.69    5.70
   1  10  -1   89.59    7.30
  -1 -10   1   95.09    7.10
  -1 -10   1   91.39    7.40
   0  10  -1   18.90    3.90
   0  10  -1   12.60    3.90
   0 -10   1   14.20    4.20
   0 -10   1   17.70    4.70
   0 -10   1   16.20    3.40
  -1  10  -1   89.89    6.70
   1 -10   1  111.09    7.70
   1 -10   1   84.59    8.10
   1 -10   1   80.69    6.80
  -2  10  -1    5.30    3.40
   2 -10   1    6.10    3.90
   2 -10   1    7.10    3.80
   2 -10   1    0.90    4.00
  -3  10  -1   21.80    3.90
  -3  10  -1   20.00    3.30
   3 -10   1   14.80    3.70
   3 -10   1   26.70    7.60
   3 -10   1   21.00    5.30
  -4  10  -1    3.40    3.20
   4 -10   1    7.00    5.40
   4 -10   1    2.40    4.80
   6   9  -1   16.20    6.70
  -6  -9   1   14.30    4.80
  -6  -9   1   27.70    8.50
   5   9  -1   11.60    6.00
  -5  -9   1    2.20    3.50
  -5  -9   1    2.20    6.70
   4   9  -1   46.40    5.80
   4   9  -1   35.20    4.50
  -4  -9   1   38.60    3.80
  -4  -9   1   36.60    7.70
   3   9  -1    3.20    2.20
   3   9  -1    3.40    2.90
   3   9  -1    0.40    4.40
  -3  -9   1   -1.90    3.50
  -3  -9   1    1.00    2.70
   2   9  -1  129.49    7.00
   2   9  -1  136.49    7.50
   2   9  -1  142.29    7.20
  -2  -9   1  135.79    7.20
  -2  -9   1  128.99    8.60
   1   9  -1   -1.10    2.60
   1   9  -1    1.30    2.30
   1   9  -1    2.10    3.00
  -1  -9   1    0.20    2.90
  -1  -9   1   -0.30    2.90
   0   9  -1  223.68    8.20
   0   9  -1  225.88    8.90
   0  -9   1  233.78   11.60
   0  -9   1  237.08    8.70
   0  -9   1  214.58    9.00
  -1   9  -1   73.89    5.10
  -1   9  -1   71.09    4.60
   1  -9   1   86.39    8.00
   1  -9   1   82.19    6.10
   1  -9   1   66.89    6.00
  -2   9  -1   37.80    4.10
   2  -9   1   25.90    5.30
   2  -9   1   35.00    4.20
   2  -9   1   32.00    4.90
  -3   9  -1  134.49    6.50
  -3   9  -1  124.69    6.10
   3  -9   1  115.09    7.50
   3  -9   1  119.49    8.20
   3  -9   1  126.39    9.60
  -4   9  -1    6.40    2.70
  -4   9  -1    3.30    2.90
   4  -9   1   11.20    5.10
   4  -9   1    4.70    4.80
  -5   9  -1   39.90    4.50
   5  -9   1   38.50    6.20
   5  -9   1   35.40    8.90
   6   8  -1   -3.10    3.70
  -6  -8   1    0.90    3.90
  -6  -8   1   -3.30    6.10
   5   8  -1   44.20    6.90
  -5  -8   1   28.20    7.80
  -5  -8   1   32.80    4.90
   4   8  -1   25.50    3.70
   4   8  -1   15.00    4.00
   4   8  -1   18.20    4.10
  -4  -8   1   22.20    3.70
  -4  -8   1   21.30    3.00
  -4  -8   1   16.20    5.10
   3   8  -1   23.90    4.10
   3   8  -1   24.50    4.10
   3   8  -1   22.80    3.60
  -3  -8   1   12.70    3.90
  -3  -8   1   26.30    3.60
  -3  -8   1   17.10    2.80
   2   8  -1  125.89    6.70
   2   8  -1  132.89    6.00
   2   8  -1  132.09    7.50
  -2  -8   1  136.99    7.90
  -2  -8   1  129.29    5.30
  -2  -8   1  124.69    6.40
   1   8  -1   64.59    4.90
   1   8  -1   72.99    5.40
   1   8  -1   57.79    5.30
  -1  -8   1   62.19    6.10
  -1  -8   1   72.09    5.30
  -1  -8   1   68.29    3.90
   0   8  -1  253.27    9.80
   0   8  -1  249.48    8.20
   0   8  -1  254.67    8.50
   0  -8   1  269.67   10.70
   0  -8   1  255.17    8.70
   0  -8   1  243.98    9.20
  -1   8  -1   15.30    3.00
  -1   8  -1   14.60    2.60
   1  -8   1   14.00    3.10
   1  -8   1    7.40    4.50
   1  -8   1   13.60    3.20
  -2   8  -1  137.49    6.30
   2  -8   1  128.69    7.20
   2  -8   1  142.99    8.80
   2  -8   1  135.89    6.60
  -3   8  -1    1.10    1.40
  -3   8  -1    1.00    2.70
  -3   8  -1   -0.50    2.20
   3  -8   1    1.80    5.20
   3  -8   1    5.10    3.60
   3  -8   1    5.90    2.90
  -4   8  -1   43.20    4.10
  -4   8  -1   43.00    4.00
   4  -8   1   49.20    6.40
   4  -8   1   49.40    8.10
  -5   8  -1   12.20    3.60
  -5   8  -1    6.30    2.80
   5  -8   1   12.10    5.60
   5  -8   1    1.40    6.40
   7   7  -1    0.80    5.70
  -7  -7   1   -0.50    6.20
  -7  -7   1   -0.60    4.30
   6   7  -1   22.30    6.40
  -6  -7   1   25.80    7.60
  -6  -7   1   21.40    4.10
   5   7  -1   47.80    6.50
  -5  -7   1   54.79    5.70
  -5  -7   1   62.19    9.10
   4   7  -1    0.90    2.00
   4   7  -1   -0.60    3.30
   4   7  -1    1.10    4.10
  -4  -7   1   -0.50    1.70
  -4  -7   1   -0.40    4.80
  -4  -7   1    1.30    2.50
   3   7  -1   89.69    5.10
   3   7  -1  100.99    7.00
   3   7  -1  100.89    6.70
  -3  -7   1   98.29    5.00
  -3  -7   1   90.49    6.30
  -3  -7   1   92.49    5.30
   2   7  -1   15.40    3.10
   2   7  -1   16.70    2.90
   2   7  -1   10.80    3.30
  -2  -7   1   14.70    2.90
  -2  -7   1    7.90    1.20
  -2  -7   1   16.80    3.00
  -2  -7   1    9.80    1.40
  -2  -7   1    9.20    1.90
   1   7  -1  189.98    7.20
   1   7  -1  177.68    6.70
   1   7  -1  177.98    6.90
  -1  -7   1  163.08    5.00
  -1  -7   1  180.48    6.90
  -1  -7   1  169.88    5.70
  -1  -7   1  173.18    5.20
  -1  -7   1  170.68    8.40
   0   7  -1   60.69    4.30
   0   7  -1   55.69    3.20
   0   7  -1   58.99    4.40
   0   7  -1   59.29    3.60
   0  -7   1   58.89    4.00
   0  -7   1   56.29    2.20
   0  -7   1   58.69    4.10
   0  -7   1   64.49    6.00
  -1   7  -1   61.19    3.90
  -1   7  -1   71.89    4.50
  -1   7  -1   56.79    3.40
   1  -7   1   70.29    4.50
   1  -7   1   68.19    4.00
   1  -7   1   68.89    4.40
   1  -7   1   70.99    6.00
  -2   7  -1  113.69    4.20
  -2   7  -1  111.59    4.30
  -2   7  -1  113.59    5.30
   2  -7   1  107.89    5.50
   2  -7   1  118.89    8.60
   2  -7   1  106.19    6.50
   2  -7   1  114.19    5.00
  -3   7  -1   61.49    4.20
  -3   7  -1   61.79    4.40
  -3   7  -1   57.29    3.90
  -3   7  -1   58.49    3.80
   3  -7   1   55.09    5.90
   3  -7   1   56.09    4.80
   3  -7   1   56.19    7.20
  -4   7  -1   47.50    4.00
  -4   7  -1   44.00    4.30
  -4   7  -1   46.10    4.40
   4  -7   1   40.80    6.00
   4  -7   1   48.50    6.50
  -5   7  -1   -1.70    1.80
  -5   7  -1    0.80    2.50
  -5   7  -1    1.00    2.20
   5  -7   1    1.80    4.40
   5  -7   1    5.10    4.50
  -6   7  -1   17.70    3.80
   6  -7   1   31.00    8.10
   6  -7   1   20.90    6.10
   7   6  -1   10.60    4.70
  -7  -6   1   21.90    7.30
  -7  -6   1   16.20    5.40
   6   6  -1   31.70    6.40
  -6  -6   1   29.70    5.30
  -6  -6   1   36.30    7.60
   5   6  -1   23.80    5.30
  -5  -6   1   19.70    4.10
  -5  -6   1   28.70    6.60
   4   6  -1  154.18    7.50
   4   6  -1  141.79    8.20
   4   6  -1  133.29    5.60
  -4  -6   1  157.08    7.00
  -4  -6   1  159.68    9.30
   3   6  -1   10.80    2.40
   3   6  -1    7.20    3.50
   3   6  -1    9.80    3.90
  -3  -6   1   10.50    2.10
  -3  -6   1   12.30    2.70
   2   6  -1   78.99    5.60
   2   6  -1   83.99    5.80
   2   6  -1   85.99    4.40
  -2  -6   1   84.09    4.50
  -2  -6   1   81.39    2.50
  -2  -6   1   78.59    2.30
  -2  -6   1   85.39    4.90
  -2  -6   1   79.69    4.00
   1   6  -1  363.26    9.60
   1   6  -1  377.06   10.20
   1   6  -1  358.36   10.40
  -1  -6   1  356.86   10.00
  -1  -6   1  375.86   11.40
  -1  -6   1  350.56    8.30
  -1  -6   1  369.16    8.90
  -1  -6   1  373.66    8.80
   0   6  -1  190.88    6.20
   0   6  -1  195.08    6.50
   0   6  -1  195.48    7.40
   0   6  -1  181.68    5.60
   0  -6   1  194.48    6.30
   0  -6   1  194.08    6.70
   0  -6   1  201.48    7.90
  -1   6  -1 1135.89   24.00
  -1   6  -1 1128.49   23.00
   1  -6   1 1152.18   24.90
   1  -6   1 1127.69   26.50
   1  -6   1 1137.69   24.80
   1  -6   1 1130.59   23.80
  -2   6  -1    9.20    1.60
  -2   6  -1   12.50    1.80
  -2   6  -1    8.40    2.10
  -2   6  -1    9.20    1.30
   2  -6   1   12.90    2.40
   2  -6   1   12.50    2.60
   2  -6   1    9.00    3.10
  -3   6  -1  207.58    7.00
  -3   6  -1  203.28    6.90
  -3   6  -1  209.68    6.30
  -3   6  -1  215.98    7.00
   3  -6   1  192.18    7.50
   3  -6   1  201.78    7.20
   3  -6   1  212.78   10.80
  -4   6  -1    9.00    2.10
  -4   6  -1    7.80    2.40
  -4   6  -1   11.20    2.40
   4  -6   1    1.50    4.60
  -5   6  -1   46.60    4.10
  -5   6  -1   49.60    4.40
  -5   6  -1   48.60    5.00
   5  -6   1   57.39    8.50
  -6   6  -1   42.30    4.90
  -6   6  -1   38.30    4.20
  -6   6  -1   43.40    4.60
   6  -6   1   34.50    6.70
   6  -6   1   45.80    7.60
   7   5  -1   32.10    6.80
  -7  -5   1   29.50    5.20
  -7  -5   1   12.30    6.70
   6   5  -1   12.50    4.00
  -6  -5   1   18.50    6.40
  -6  -5   1    7.70    4.10
   5   5  -1   12.20    3.10
   5   5  -1   15.20    4.50
  -5  -5   1   15.30    3.90
  -5  -5   1    7.20    4.90
  -5  -5   1   11.50    2.30
   4   5  -1  198.88    8.60
   4   5  -1  192.68    7.50
   4   5  -1  168.68    5.90
  -4  -5   1  197.58    8.30
  -4  -5   1  179.68    5.80
  -4  -5   1  216.28   11.00
   3   5  -1   -0.80    2.50
   3   5  -1   -0.10    1.50
   3   5  -1    6.10    3.10
  -3  -5   1    0.00    1.10
  -3  -5   1    0.30    1.90
  -3  -5   1    2.30    1.20
  -3  -5   1    2.10    2.50
   2   5  -1  177.28    5.70
   2   5  -1  175.38    7.00
   2   5  -1  181.48    6.90
  -2  -5   1  172.58    5.70
  -2  -5   1  172.28    6.40
  -2  -5   1  171.78    5.90
  -2  -5   1  166.58    3.90
   1   5  -1  472.45   11.60
   1   5  -1  482.45   11.40
   1   5  -1  480.55   12.10
  -1  -5   1  488.05   12.50
  -1  -5   1  476.15   11.60
  -1  -5   1  463.85   10.00
  -1  -5   1  479.45   10.40
  -1  -5   1  468.55   10.60
   0   5  -1 1103.99   22.60
   0   5  -1 1099.59   23.50
   0   5  -1 1106.19   22.10
   0  -5   1 1113.49   23.20
   0  -5   1 1090.59   24.20
   0  -5   1 1070.89   22.50
  -1   5  -1  274.27    6.60
  -1   5  -1  281.07    7.60
  -1   5  -1  266.17    7.00
  -1   5  -1  278.37    6.90
   1  -5   1  266.27    7.50
   1  -5   1  294.07    8.20
   1  -5   1  279.27    9.80
  -2   5  -1    3.80    1.00
  -2   5  -1    1.20    1.20
  -2   5  -1    3.80    1.60
  -2   5  -1    4.10    1.10
   2  -5   1    1.90    2.00
   2  -5   1    2.20    1.40
   2  -5   1    3.80    2.60
  -3   5  -1  122.99    4.90
  -3   5  -1  116.79    5.10
  -3   5  -1  112.49    4.10
  -3   5  -1  117.29    4.60
   3  -5   1  112.49    3.70
   3  -5   1  118.99    5.80
   3  -5   1  113.89    5.10
   3  -5   1  119.29    7.20
  -4   5  -1    6.40    2.00
  -4   5  -1    5.80    1.60
  -4   5  -1    5.60    2.10
   4  -5   1    2.40    3.00
   4  -5   1    2.20    2.90
  -5   5  -1   63.19    4.70
  -5   5  -1   61.79    4.30
  -5   5  -1   58.39    5.10
   5  -5   1   56.29    6.90
  -6   5  -1    3.10    2.00
  -6   5  -1    2.40    2.70
  -6   5  -1    1.80    3.20
   6  -5   1   -0.60    5.80
   7   4  -1   53.89    7.40
  -7  -4   1   60.59    6.60
  -7  -4   1   63.49    9.70
   6   4  -1   17.50    5.10
   6   4  -1   13.40    4.10
  -6  -4   1   20.90    3.40
  -6  -4   1   10.50    5.70
  -6  -4   1   15.60    4.60
   5   4  -1  101.69    5.90
   5   4  -1  106.19    6.60
  -5  -4   1  125.29    9.40
  -5  -4   1  106.39    5.00
  -5  -4   1  107.19    7.20
   4   4  -1   54.29    4.60
   4   4  -1   47.00    2.90
   4   4  -1   46.00    2.50
   4   4  -1   46.00    4.10
  -4  -4   1   56.19    5.90
  -4  -4   1   51.79    4.60
  -4  -4   1   49.10    2.90
   3   4  -1  104.59    5.10
   3   4  -1   96.99    2.80
   3   4  -1   99.09    4.90
   3   4  -1   95.19    3.70
  -3  -4   1   95.29    3.10
  -3  -4   1   96.09    3.40
  -3  -4   1   99.09    4.80
  -3  -4   1  102.79    6.20
   2   4  -1   73.09    2.10
   2   4  -1   74.19    3.30
   2   4  -1   71.39    4.40
   2   4  -1   84.99    4.40
  -2  -4   1   84.59    4.20
  -2  -4   1   78.19    2.10
  -2  -4   1   82.49    3.80
  -2  -4   1   77.09    2.50
  -2  -4   1   81.99    3.40
   1   4  -1  324.47    8.20
   1   4  -1  322.77    7.90
   1   4  -1  325.67    8.90
  -1  -4   1  335.47    8.90
  -1  -4   1  313.87    6.90
  -1  -4   1  312.97    8.10
  -1  -4   1  330.17    7.10
  -1  -4   1  322.27    7.60
   0   4  -1 1013.20   21.20
   0   4  -1 1014.90   20.60
   0   4  -1 1024.30   18.90
   0   4  -1 1015.10   20.10
   0  -4   1 1018.10   21.80
   0  -4   1 1016.10   20.70
   0  -4   1  993.00   20.40
   0  -4   1 1010.70   21.00
  -1   4  -1  477.15   10.40
  -1   4  -1  481.75   10.10
  -1   4  -1  476.85   10.20
  -1   4  -1  473.65   10.70
   1  -4   1  486.05   11.00
   1  -4   1  481.95   11.20
   1  -4   1  480.15   12.50
  -2   4  -1  495.65   11.10
  -2   4  -1  495.55   11.20
  -2   4  -1  520.25   11.80
  -2   4  -1  528.95   11.50
   2  -4   1  524.25   14.30
   2  -4   1  494.65   11.90
   2  -4   1  513.05   10.80
   2  -4   1  513.05   12.30
  -3   4  -1    6.70    2.00
  -3   4  -1    3.20    1.00
  -3   4  -1    7.40    1.60
  -3   4  -1    6.30    1.40
   3  -4   1    9.80    3.80
   3  -4   1    5.30    1.70
   3  -4   1    7.10    1.70
   3  -4   1    8.30    3.10
  -4   4  -1  257.77    8.00
  -4   4  -1  261.17    8.80
  -4   4  -1  255.07    8.00
   4  -4   1  248.18    7.70
   4  -4   1  258.77    9.60
   4  -4   1  245.98   10.70
  -5   4  -1   31.10    3.30
  -5   4  -1   25.30    3.90
  -5   4  -1   27.20    3.20
   5  -4   1   23.50    5.50
   5  -4   1   29.90    6.10
  -6   4  -1   13.50    3.10
  -6   4  -1   15.60    3.30
  -6   4  -1   13.70    3.80
   6  -4   1    5.10    5.90
  -7   4  -1   49.70    5.10
  -7   4  -1   52.69    6.50
  -7   4  -1   54.69    5.10
   7  -4   1   43.00    7.30
   7   3  -1   26.50    4.90
  -7  -3   1   23.60    5.50
  -7  -3   1   22.80    7.00
   6   3  -1   97.99    7.80
   6   3  -1   96.39    7.60
  -6  -3   1   84.99    9.30
  -6  -3   1   72.49    6.90
  -6  -3   1   92.99    6.20
   5   3  -1   37.40    3.10
   5   3  -1   42.70    4.60
   5   3  -1   49.80    4.80
  -5  -3   1   40.10    3.50
  -5  -3   1   39.00    6.20
  -5  -3   1   38.20    4.60
   4   3  -1   50.69    2.40
   4   3  -1   55.89    3.20
   4   3  -1   58.49    5.10
   4   3  -1   50.19    4.20
  -4  -3   1   58.19    3.70
  -4  -3   1   55.09    6.20
  -4  -3   1   57.69    4.80
   3   3  -1  335.17    7.80
   3   3  -1  339.27    9.30
   3   3  -1  355.36    7.80
  -3  -3   1  342.37   11.50
  -3  -3   1  341.07    8.40
  -3  -3   1  345.67   10.10
   2   3  -1   22.50    1.30
   2   3  -1   17.90    2.10
   2   3  -1   15.60    1.50
   2   3  -1   23.00    1.30
   2   3  -1   14.50    2.40
  -2  -3   1   21.20    2.30
  -2  -3   1   21.90    3.20
  -2  -3   1   19.40    1.40
  -2  -3   1   18.90    1.50
   1   3  -1  858.81   15.90
   1   3  -1  848.82   17.80
   1   3  -1  831.42   17.40
   1   3  -1  841.72   16.90
  -1  -3   1  839.72   17.10
  -1  -3   1  851.91   17.20
  -1  -3   1  847.32   16.20
  -1  -3   1  852.31   16.00
  -1  -3   1  846.82   17.40
   0   3  -1   12.50    1.60
   0   3  -1   11.10    1.50
   0   3  -1    9.50    0.60
   0   3  -1   16.70    1.60
   0  -3   1   10.00    1.50
   0  -3   1    9.60    2.00
   0  -3   1    8.90    1.50
  -1   3  -1  443.56    9.40
  -1   3  -1  443.46    9.50
  -1   3  -1  440.76    8.90
  -1   3  -1  434.26    9.40
   1  -3   1  444.66   11.00
   1  -3   1  434.06    9.90
   1  -3   1  446.26   10.10
   1  -3   1  439.86    9.10
  -2   3  -1  457.25   10.10
  -2   3  -1  448.36    9.60
  -2   3  -1  453.15   10.60
  -2   3  -1  441.16   10.10
  -2   3  -1  446.66   10.00
   2  -3   1  456.15   10.00
   2  -3   1  444.86   10.20
   2  -3   1  463.05   12.50
   2  -3   1  450.15   10.90
  -3   3  -1    6.60    1.90
  -3   3  -1    4.10    1.10
  -3   3  -1    5.30    1.50
   3  -3   1    5.20    2.10
   3  -3   1    6.50    1.40
   3  -3   1    8.30    2.60
   3  -3   1    4.00    2.30
  -4   3  -1   95.49    4.40
  -4   3  -1   94.89    4.40
  -4   3  -1   86.39    4.70
   4  -3   1   87.29    5.00
   4  -3   1   88.79    6.70
   4  -3   1   92.19    6.30
  -5   3  -1    3.00    2.00
  -5   3  -1    5.10    2.10
  -5   3  -1    3.10    2.10
   5  -3   1    1.50    3.80
   5  -3   1    1.70    4.30
  -6   3  -1   64.59    5.10
  -6   3  -1   69.29    5.10
  -6   3  -1   65.89    6.00
   6  -3   1   83.39    8.30
  -7   3  -1   19.90    3.70
  -7   3  -1   18.70    3.60
  -7   3  -1   19.90    4.70
   7  -3   1   12.60    6.60
   7   2  -1   25.40    4.40
  -7  -2   1   16.50    6.30
  -7  -2   1   15.70    4.10
   6   2  -1   69.09    6.70
   6   2  -1   83.89    6.10
   6   2  -1   80.49    6.90
  -6  -2   1   65.49    6.50
  -6  -2   1   80.19    6.00
  -6  -2   1   73.09    8.60
   5   2  -1   -0.90    1.40
   5   2  -1    1.70    2.20
   5   2  -1    1.10    3.20
  -5  -2   1    3.90    2.30
  -5  -2   1    3.70    3.90
  -5  -2   1   -0.70    2.50
   4   2  -1  199.58    7.30
   4   2  -1  193.38    6.20
  -4  -2   1  187.38    7.80
  -4  -2   1  178.28    6.30
  -4  -2   1  195.58    8.80
   3   2  -1  140.49    4.30
   3   2  -1  139.79    5.30
   3   2  -1  137.99    3.50
  -3  -2   1  146.49    7.10
  -3  -2   1  134.29    5.50
  -3  -2   1  135.69    4.60
   2   2  -1  805.72   17.20
   2   2  -1  809.92   15.90
   2   2  -1  836.52   16.10
  -2  -2   1  819.72   17.60
  -2  -2   1  835.72   15.50
  -2  -2   1  811.92   16.50
  -2  -2   1  815.12   18.60
   1   2  -1   15.90    0.90
   1   2  -1   15.60    1.30
   1   2  -1   17.80    1.80
   1   2  -1   17.00    1.10
  -1  -2   1   18.00    1.50
  -1  -2   1   17.20    1.50
  -1  -2   1   13.80    1.10
  -1  -2   1   17.90    1.00
   0   2  -1   96.69    2.70
   0   2  -1   96.29    2.80
   0   2  -1   92.59    3.40
   0   2  -1   95.29    2.10
   0  -2   1   90.59    3.00
   0  -2   1   89.99    3.40
   0  -2   1   91.49    3.00
  -1   2  -1 1794.22   33.70
  -1   2  -1 1779.32   33.50
  -1   2  -1 1773.52   33.80
  -1   2  -1 1768.62   34.90
   1  -2   1 1811.12   35.00
   1  -2   1 1814.12   33.60
   1  -2   1 1768.02   34.30
   1  -2   1 1762.12   33.80
   1  -2   1 1779.72   34.10
  -2   2  -1   27.80    1.70
  -2   2  -1   28.50    1.20
  -2   2  -1   26.80    2.20
  -2   2  -1   32.70    1.70
  -2   2  -1   29.30    2.10
   2  -2   1   34.50    2.80
   2  -2   1   24.70    1.60
   2  -2   1   27.60    2.00
  -3   2  -1  296.97    8.40
  -3   2  -1  286.17    7.50
  -3   2  -1  299.77    7.60
   3  -2   1  293.57    9.50
   3  -2   1  291.37    6.80
   3  -2   1  295.47    8.20
  -4   2  -1    8.90    1.60
  -4   2  -1   11.10    1.70
  -4   2  -1   13.50    2.60
   4  -2   1   15.20    3.00
   4  -2   1   13.80    3.20
  -5   2  -1  176.58    6.40
  -5   2  -1  183.88    6.90
  -5   2  -1  171.88    7.40
   5  -2   1  184.58    8.20
   5  -2   1  165.38    9.50
  -6   2  -1  152.48    8.20
  -6   2  -1  152.78    7.00
  -6   2  -1  153.38    6.80
   6  -2   1  133.19   10.20
   6  -2   1  141.19   10.60
  -7   2  -1    4.10    2.90
  -7   2  -1    3.60    3.90
  -7   2  -1   10.70    3.10
   7  -2   1   13.50    6.30
   7   1  -1   69.59    8.40
   7   1  -1   74.19    6.40
  -7  -1   1   65.39    5.70
  -7  -1   1   71.39    8.80
   6   1  -1   52.49    4.60
   6   1  -1   42.00    5.80
   6   1  -1   56.59    5.20
   6   1  -1   66.69    5.60
  -6  -1   1   48.50    4.60
  -6  -1   1   51.39    5.30
  -6  -1   1   66.29    7.80
   5   1  -1   88.39    4.90
   5   1  -1   88.89    6.90
  -5  -1   1   88.69    4.40
  -5  -1   1   78.99    5.20
  -5  -1   1   87.09    6.40
  -5  -1   1   82.79    7.80
  -5  -1   1   86.49    4.80
   4   1  -1  555.54   13.20
  -4  -1   1  529.75   14.50
  -4  -1   1  542.65   12.90
  -4  -1   1  517.75   12.30
  -4  -1   1  542.55   13.50
  -4  -1   1  531.85   15.80
   3   1  -1   26.40    2.20
   3   1  -1   21.70    0.80
  -3  -1   1   26.20    2.20
  -3  -1   1   24.40    1.70
  -3  -1   1   27.10    2.80
  -3  -1   1   23.50    2.30
  -3  -1   1   23.50    3.60
   2   1  -1  144.49    3.10
   2   1  -1  151.88    4.20
  -2  -1   1  155.48    4.30
  -2  -1   1  151.18    5.10
  -2  -1   1  153.28    3.90
  -2  -1   1  147.59    4.30
  -2  -1   1  148.49    5.70
   1   1  -1  616.04   11.70
   1   1  -1  596.04   11.40
   1   1  -1  591.64   12.30
  -1  -1   1  608.24   11.80
  -1  -1   1  604.34   11.80
  -1  -1   1  601.44   11.70
  -1  -1   1  595.14   12.30
  -1  -1   1  591.44   12.70
  -1  -1   1  600.94   11.50
   0   1  -1  710.63   13.90
   0   1  -1  711.43   14.10
   0   1  -1  724.93   13.70
   0  -1   1  716.73   13.90
   0  -1   1  744.13   13.90
   0  -1   1  718.23   14.00
  -1   1  -1  481.05    9.90
  -1   1  -1  468.15    9.20
  -1   1  -1  470.35    9.40
  -1   1  -1  471.25    9.40
  -1   1  -1  482.25   10.00
   1  -1   1  483.85   10.40
   1  -1   1  475.05    9.90
   1  -1   1  477.85    9.50
  -2   1  -1  118.99    3.40
  -2   1  -1  116.79    3.50
  -2   1  -1  122.49    4.70
  -2   1  -1  120.09    4.10
   2  -1   1  122.39    4.40
   2  -1   1  123.49    4.70
   2  -1   1  117.09    3.00
  -3   1  -1  370.26    9.70
  -3   1  -1  395.26   11.40
  -3   1  -1  387.16    9.10
  -3   1  -1  384.06    9.00
   3  -1   1  385.46   10.40
   3  -1   1  371.86    8.00
   3  -1   1  383.66   11.20
  -4   1  -1    1.90    1.10
  -4   1  -1    1.00    1.80
  -4   1  -1    2.50    1.40
  -4   1  -1    2.40    3.10
   4  -1   1    0.10    1.80
   4  -1   1   -1.30    3.40
  -5   1  -1  142.49    5.70
  -5   1  -1  149.69    6.10
  -5   1  -1  144.19    7.00
  -5   1  -1  146.79    8.90
   5  -1   1  150.68    6.10
   5  -1   1  156.28    9.40
   5  -1   1  138.29    7.90
  -6   1  -1   -1.80    2.30
  -6   1  -1   -2.30    2.70
  -6   1  -1    2.30    2.20
   6  -1   1    2.80    3.70
   6  -1   1    0.00    4.80
  -7   1  -1   41.70    5.00
  -7   1  -1   47.00    4.60
   7  -1   1   49.20    7.60
   7   0  -1   43.20    8.20
   7   0  -1   45.00    6.80
  -7   0   1   47.80    5.20
  -7   0   1   46.50    4.60
   6   0  -1    7.40    2.60
   6   0  -1   17.70    4.20
  -6   0   1    6.60    4.90
  -6   0   1    4.60    2.30
  -6   0   1    5.70    2.40
  -6   0   1    4.80    2.00
  -6   0   1    8.00    3.10
   5   0  -1  273.87    9.40
   5   0  -1  278.57   10.80
  -5   0   1  257.87    9.20
  -5   0   1  276.67   10.40
  -5   0   1  258.37    7.90
  -5   0   1  265.27   11.70
  -5   0   1  264.97    8.50
   4   0  -1   66.39    5.10
   4   0  -1   64.09    4.10
  -4   0   1   50.79    3.20
  -4   0   1   65.29    4.10
  -4   0   1   69.29    4.90
  -4   0   1   60.79    5.50
  -4   0   1   53.59    3.00
  -3   0   1  153.48    4.90
  -3   0   1  142.59    5.80
  -3   0   1  149.79    4.60
  -3   0   1  157.38    5.30
  -3   0   1  155.18    6.50
  -2   0   1   15.00    1.20
  -2   0   1   17.20    2.20
  -2   0   1   14.50    1.90
  -2   0   1   16.40    1.60
  -2   0   1   15.80    1.30
   1   0  -1   37.30    0.90
   1   0  -1   35.30    0.80
   1   0  -1   35.90    1.60
  -1   0   1   39.10    1.90
  -1   0   1   38.40    1.50
  -1   0   1   39.90    1.60
  -1   0   1   37.70    1.30
  -1   0   1   38.40    1.90
  -1   0  -1  270.27    5.50
  -1   0  -1  263.97    5.10
  -1   0  -1  271.67    6.30
  -1   0  -1  262.47    5.90
  -1   0  -1  267.77    5.50
  -1   0  -1  263.17    6.50
   1   0   1  264.07    5.20
   1   0   1  263.87    5.50
   1   0   1  264.37    5.30
   1   0   1  282.47    6.30
  -2   0  -1  223.48    5.90
  -2   0  -1  229.68    5.30
  -2   0  -1  225.08    6.10
  -2   0  -1  220.18    6.90
  -2   0  -1  221.28    5.40
   2   0   1  232.78    6.70
   2   0   1  217.48    4.60
  -3   0  -1  304.37    7.40
  -3   0  -1  306.47    8.30
  -3   0  -1  299.07    9.70
  -3   0  -1  306.27    8.50
  -3   0  -1  306.77    7.70
   3   0   1  299.07    6.20
   3   0   1  317.27    9.20
  -4   0  -1  179.88    6.50
  -4   0  -1  187.18    8.30
  -4   0  -1  174.28    7.20
  -4   0  -1  169.38    5.80
  -4   0  -1  173.78    5.60
   4   0   1  168.38    7.70
  -5   0  -1   -0.50    2.40
  -5   0  -1    0.90    1.90
  -5   0  -1    5.40    1.90
  -5   0  -1    1.70    2.40
   5   0   1   -1.60    3.10
   5   0   1    4.20    3.00
   5   0   1    2.10    2.40
  -6   0  -1  119.99    5.70
  -6   0  -1  110.69    7.20
  -6   0  -1  127.29    9.70
   6   0   1  134.19   10.30
   6   0   1  115.29    7.70
   6   0   1  112.59    6.50
  -7   0  -1   56.09    4.80
  -7   0  -1   77.69    6.80
   7   0   1   50.59    8.00
   7  -1  -1   -0.80    3.60
   7  -1  -1    0.00    4.80
  -7   1   1    3.30    2.80
  -7   1   1    3.10    3.00
  -7   1   1    7.00    3.60
   6  -1  -1  191.58    8.90
   6  -1  -1  185.18   10.80
   6  -1  -1  176.98   10.40
  -6   1   1  189.88    7.90
  -6   1   1  202.28    9.10
  -6   1   1  191.08    7.50
   5  -1  -1   28.10    3.30
   5  -1  -1   34.20    4.50
   5  -1  -1   26.30    4.10
  -5   1   1   24.70    3.40
  -5   1   1   19.00    3.20
  -5   1   1   26.80    3.20
  -5   1   1   27.00    2.70
   4  -1  -1  109.29    5.90
  -4   1   1  102.89    4.90
  -4   1   1  118.99    6.00
  -4   1   1  104.29    6.90
  -4   1   1  113.09    4.80
  -4   1   1  107.29    4.40
   3  -1  -1  305.07    8.50
   3  -1  -1  280.67    6.00
  -3   1   1  303.07    8.20
  -3   1   1  299.67    9.50
  -3   1   1  306.57    7.50
  -3   1   1  298.27    8.70
  -3   1   1  296.77    7.70
   2  -1  -1  142.19    3.20
  -2   1   1  144.39    4.40
  -2   1   1  154.08    4.30
  -2   1   1  152.68    5.20
  -2   1   1  152.18    4.10
  -2   1   1  146.39    4.80
   1  -1  -1  319.97    6.50
   1  -1  -1  322.17    7.50
  -1   1   1  327.47    6.30
  -1   1   1  326.07    6.90
  -1   1   1  321.67    6.70
  -1   1   1  325.27    6.90
  -1   1   1  316.57    7.10
   0  -1  -1  635.54   12.20
   0  -1  -1  655.53   12.10
   0  -1  -1  639.04   12.30
   0  -1  -1  581.24   12.10
   0  -1  -1  649.14   12.50
   0   1   1  643.34   12.20
   0   1   1  624.44   12.10
   0   1   1  642.54   12.10
  -1  -1  -1  759.42   14.40
  -1  -1  -1  774.32   15.00
  -1  -1  -1  771.82   15.80
  -1  -1  -1  750.22   14.80
   1   1   1  751.62   14.40
   1   1   1  746.23   14.90
   1   1   1  775.22   15.60
   1   1   1  745.33   15.00
  -2  -1  -1  135.59    4.20
  -2  -1  -1  148.99    4.80
  -2  -1  -1  142.09    3.70
  -2  -1  -1  144.69    5.60
   2   1   1  132.19    5.10
   2   1   1  142.09    3.20
   2   1   1  143.79    4.40
  -3  -1  -1  107.79    4.40
  -3  -1  -1  111.89    3.90
  -3  -1  -1  116.89    3.70
  -3  -1  -1  112.59    6.10
  -3  -1  -1  119.39    5.10
   3   1   1  107.79    2.80
   3   1   1  110.29    4.50
   3   1   1  119.49    5.40
  -4  -1  -1  544.45   14.20
  -4  -1  -1  571.44   14.00
  -4  -1  -1  544.15   12.80
  -4  -1  -1  565.14   12.50
  -4  -1  -1  558.14   16.50
   4   1   1  488.55   11.30
   4   1   1  579.44   13.80
   4   1   1  567.24   15.50
  -5  -1  -1   78.59    7.50
  -5  -1  -1   84.69    5.40
  -5  -1  -1   73.49    4.00
   5   1   1   76.19    6.70
   5   1   1   78.69    5.30
  -6  -1  -1   45.50    7.30
  -6  -1  -1   40.70    4.30
  -6  -1  -1   37.80    3.30
   6   1   1   32.90    5.60
   6   1   1   32.90    4.60
   6   1   1   36.90    3.80
   6   1   1   38.00    6.60
  -7  -1  -1    0.10    3.70
  -7  -1  -1   -3.10    3.10
   7   1   1   12.40    6.60
   7  -2  -1   27.50    5.60
   7  -2  -1   27.10    6.70
  -7   2   1   29.40    3.70
  -7   2   1   29.80    4.10
   6  -2  -1  188.78   10.50
   6  -2  -1  196.68    9.50
  -6   2   1  194.68    7.80
  -6   2   1  185.48    8.50
  -6   2   1  201.58    8.40
   5  -2  -1   39.80    4.40
   5  -2  -1   44.40    5.80
   5  -2  -1   42.00    5.40
  -5   2   1   46.30    3.70
  -5   2   1   36.70    4.00
  -5   2   1   39.40    3.80
   4  -2  -1  257.47    8.50
   4  -2  -1  253.37    9.30
   4  -2  -1  246.58    9.90
  -4   2   1  247.28    7.70
  -4   2   1  248.08    8.10
  -4   2   1  248.68    8.60
  -4   2   1  259.27    7.30
   3  -2  -1  683.63   15.80
   3  -2  -1  664.63   15.00
   3  -2  -1  670.33   16.60
   3  -2  -1  625.94   13.40
  -3   2   1  671.93   15.60
  -3   2   1  688.63   14.50
  -3   2   1  678.23   14.90
  -3   2   1  668.83   15.30
   2  -2  -1  650.83   13.30
   2  -2  -1  670.63   14.10
   2  -2  -1  673.33   15.50
   2  -2  -1  674.83   13.70
  -2   2   1  630.04   12.40
  -2   2   1  658.93   14.30
  -2   2   1  677.83   14.30
  -2   2   1  660.33   13.70
  -2   2   1  668.23   13.90
  -2   2   1  668.03   12.40
   1  -2  -1  267.37    7.30
   1  -2  -1  270.17    5.70
   1  -2  -1  273.47    6.10
   1  -2  -1  274.47    5.20
  -1   2   1  271.07    5.90
  -1   2   1  274.37    5.90
  -1   2   1  270.37    6.20
  -1   2   1  268.17    5.90
  -1   2   1  272.47    6.10
  -1   2   1  269.27    6.00
   0  -2  -1   26.00    1.80
   0  -2  -1   30.10    2.40
   0  -2  -1   27.20    1.70
   0   2   1   28.90    1.40
   0   2   1   25.50    1.50
  -1  -2  -1 9106.89  185.18
  -1  -2  -1 9905.71  184.08
  -1  -2  -1 9900.91  181.28
  -1  -2  -1 9488.65  183.08
  -1  -2  -1 9912.71  183.48
   1   2   1 9818.02  186.38
   1   2   1 9312.37  181.68
   1   2   1 9999.00  183.18
  -2  -2  -1  943.91   19.60
  -2  -2  -1  940.21   19.10
  -2  -2  -1  941.61   21.00
  -2  -2  -1  974.80   18.00
   2   2   1  940.41   18.40
   2   2   1  951.80   18.70
   2   2   1  956.30   19.50
  -3  -2  -1  797.12   18.10
  -3  -2  -1  791.82   19.80
  -3  -2  -1  825.12   17.40
   3   2   1  802.92   17.00
   3   2   1  816.02   19.20
   3   2   1  795.52   17.70
   3   2   1  795.12   15.80
  -4  -2  -1  127.29    5.50
  -4  -2  -1  122.39    5.70
  -4  -2  -1  121.49    7.60
   4   2   1  127.79    6.10
   4   2   1  115.29    3.40
   4   2   1  118.49    6.70
   4   2   1  126.69    5.10
  -5  -2  -1  111.09    9.00
  -5  -2  -1   99.89    5.90
  -5  -2  -1  102.29    5.80
   5   2   1  108.09    5.00
   5   2   1  105.89    5.50
   5   2   1  102.19    8.00
   5   2   1  103.29    6.30
  -6  -2  -1    5.70    2.20
  -6  -2  -1    3.90    5.10
   6   2   1    2.90    3.00
   6   2   1    1.60    3.40
  -7  -2  -1   12.50    3.90
  -7  -2  -1   11.90    6.20
   7   2   1    8.30    4.60
   7   2   1   17.40    5.40
   7  -3  -1   14.70    5.00
   7  -3  -1   18.00    5.20
  -7   3   1   22.70    3.80
  -7   3   1   22.90    4.10
   6  -3  -1    3.60    4.00
   6  -3  -1   -1.30    4.80
   6  -3  -1    4.50    3.10
  -6   3   1    3.40    3.10
  -6   3   1    3.70    2.60
  -6   3   1    2.20    1.80
   5  -3  -1  121.29    7.60
   5  -3  -1  126.59    9.00
  -5   3   1  119.59    6.10
  -5   3   1  122.39    6.00
  -5   3   1  122.59    5.30
   4  -3  -1   13.30    3.30
   4  -3  -1   12.70    3.30
   4  -3  -1   11.90    2.40
  -4   3   1   13.00    2.50
  -4   3   1   16.60    2.20
  -4   3   1   13.90    2.20
   3  -3  -1   10.40    2.90
   3  -3  -1    6.70    1.30
   3  -3  -1    9.20    1.80
   3  -3  -1   10.50    3.30
  -3   3   1    9.00    1.60
  -3   3   1    7.40    1.40
  -3   3   1    8.70    1.90
  -3   3   1    6.70    1.30
   2  -3  -1  519.85   11.60
   2  -3  -1  548.35   13.70
   2  -3  -1  533.35   10.80
   2  -3  -1  530.25   11.60
  -2   3   1  553.74   11.00
  -2   3   1  540.85   12.00
  -2   3   1  515.95   11.00
  -2   3   1  545.35   11.80
  -2   3   1  535.55   11.60
  -2   3   1  544.05   11.90
   1  -3  -1   90.49    2.50
   1  -3  -1  101.79    4.30
   1  -3  -1   89.99    3.90
   1  -3  -1   94.59    3.30
  -1   3   1   97.49    3.10
  -1   3   1   95.49    2.90
  -1   3   1   88.09    2.70
  -1   3   1   93.99    3.10
   0  -3  -1  269.37    6.60
   0  -3  -1  256.47    6.50
   0  -3  -1  274.07    7.30
   0   3   1  259.87    6.30
   0   3   1  267.67    6.30
  -1  -3  -1 3149.19   58.99
  -1  -3  -1 3122.79   57.69
  -1  -3  -1 3173.98   58.19
  -1  -3  -1 3048.09   57.89
  -1  -3  -1 3021.90   59.89
  -1  -3  -1 3067.59   58.29
   1   3   1 3114.49   60.29
   1   3   1 3053.79   63.09
   1   3   1 3163.28   61.19
  -2  -3  -1  895.21   18.80
  -2  -3  -1  894.01   20.50
  -2  -3  -1  884.21   18.00
  -2  -3  -1  898.01   17.80
   2   3   1  897.31   18.00
   2   3   1  936.01   16.80
   2   3   1  911.91   19.10
   2   3   1  895.31   17.00
   2   3   1  909.01   18.00
  -3  -3  -1    3.10    0.40
  -3  -3  -1    1.40    1.20
  -3  -3  -1    3.00    3.00
  -3  -3  -1    9.30    2.10
  -3  -3  -1    2.90    0.50
   3   3   1    3.50    1.00
   3   3   1    3.70    1.20
   3   3   1    4.10    2.00
   3   3   1    2.60    0.80
  -4  -3  -1   73.49    3.90
  -4  -3  -1   71.09    6.30
  -4  -3  -1   85.39    5.40
   4   3   1   84.09    3.40
   4   3   1   78.19    3.00
   4   3   1   78.79    5.50
   4   3   1   89.39    6.80
   4   3   1   80.89    4.10
  -5  -3  -1  185.48    8.50
  -5  -3  -1  183.88   10.70
  -5  -3  -1  201.78    7.70
   5   3   1  177.68    6.90
   5   3   1  179.08    8.30
   5   3   1  194.38    9.70
   5   3   1  185.78    6.20
  -6  -3  -1    0.80    3.90
  -6  -3  -1    2.40    2.80
   6   3   1    4.70    4.00
   6   3   1    6.80    4.40
  -7  -3  -1   10.10    2.90
  -7  -3  -1    9.70    6.70
   7   3   1   20.40    5.30
   7  -4  -1    4.50    4.90
   7  -4  -1    1.90    4.60
  -7   4   1    4.90    3.30
  -7   4   1    4.40    2.40
   6  -4  -1   31.10    5.70
   6  -4  -1   29.50    6.80
  -6   4   1   37.00    4.80
  -6   4   1   24.40    3.60
  -6   4   1   39.60    4.50
   5  -4  -1  279.47   12.20
  -5   4   1  290.07    9.90
  -5   4   1  262.67    8.80
  -5   4   1  289.97    9.60
   4  -4  -1    8.10    2.80
   4  -4  -1    7.00    3.00
  -4   4   1    8.30    2.00
  -4   4   1    6.10    1.70
  -4   4   1    4.00    1.50
   3  -4  -1  228.98    6.70
   3  -4  -1  229.08    7.20
   3  -4  -1  232.58    5.70
   3  -4  -1  236.28    9.30
  -3   4   1  243.98    7.40
  -3   4   1  229.48    6.80
  -3   4   1  206.38    4.90
  -3   4   1  243.18    7.20
   2  -4  -1  449.36   10.90
   2  -4  -1  463.05   13.30
   2  -4  -1  454.15   10.10
  -2   4   1  470.95   10.60
  -2   4   1  469.65   10.90
  -2   4   1  473.15   10.30
  -2   4   1  470.45   10.90
   1  -4  -1  527.55   13.40
   1  -4  -1  525.75   12.00
   1  -4  -1  530.65   12.70
   1  -4  -1  519.95   10.80
  -1   4   1  527.65   11.60
  -1   4   1  526.75   11.30
   0  -4  -1  739.53   16.80
   0  -4  -1  718.33   15.70
   0  -4  -1  723.43   15.80
   0   4   1  725.63   15.20
   0   4   1  742.83   15.40
  -1  -4  -1  450.85   11.10
  -1  -4  -1  450.15    9.40
  -1  -4  -1  444.26    8.80
  -1  -4  -1  450.75    8.90
  -1  -4  -1  444.16   10.30
  -1  -4  -1  463.45   10.10
   1   4   1  442.36   10.10
   1   4   1  438.36   10.40
   1   4   1  439.56   10.00
  -2  -4  -1 3977.00   77.89
  -2  -4  -1 3997.90   74.39
  -2  -4  -1 4053.69   77.59
  -2  -4  -1 4022.00   75.49
  -2  -4  -1 4025.60   76.59
   2   4   1 3906.51   77.29
   2   4   1 4038.30   76.09
   2   4   1 4041.00   75.09
  -3  -4  -1    7.60    2.90
  -3  -4  -1   10.20    1.30
  -3  -4  -1   10.00    1.60
  -3  -4  -1   12.70    2.10
  -3  -4  -1   10.30    1.10
   3   4   1    7.10    1.70
   3   4   1   11.40    1.70
   3   4   1   10.00    3.30
  -4  -4  -1  162.28    5.80
  -4  -4  -1  166.58    8.70
  -4  -4  -1  174.18    7.10
   4   4   1  175.08    9.00
   4   4   1  167.68    7.60
   4   4   1  170.68    5.40
   4   4   1  163.88    5.70
   4   4   1  160.68    4.40
  -5  -4  -1   71.09    4.80
  -5  -4  -1   66.29    7.70
  -5  -4  -1   72.29    5.40
   5   4   1   78.49    6.40
   5   4   1   84.59    7.00
  -6  -4  -1   73.59    5.00
  -6  -4  -1   65.39    8.50
   6   4   1   73.89    8.10
   6   4   1   71.39    6.40
  -7  -4  -1    0.10    3.00
  -7  -4  -1   -0.10    5.80
   7   4   1   -0.20    4.70
   6  -5  -1    4.80    4.40
   6  -5  -1    7.60    4.60
  -6   5   1    9.10    3.00
  -6   5   1   -1.80    2.40
   5  -5  -1   55.69    6.60
   5  -5  -1   57.99    7.80
  -5   5   1   57.29    5.00
  -5   5   1   50.49    4.20
  -5   5   1   51.29    4.50
   4  -5  -1   58.09    5.90
   4  -5  -1   66.09    7.20
  -4   5   1   63.69    4.40
  -4   5   1   57.89    4.00
  -4   5   1   61.19    4.50
   3  -5  -1    8.50    4.20
   3  -5  -1    7.90    1.90
   3  -5  -1    7.20    3.00
   3  -5  -1    9.40    2.10
  -3   5   1    3.90    1.70
  -3   5   1    5.30    1.30
  -3   5   1   11.00    2.10
  -3   5   1    6.40    2.00
   2  -5  -1   10.20    2.30
   2  -5  -1   13.60    2.30
   2  -5  -1    9.00    1.40
   2  -5  -1   11.70    4.00
  -2   5   1   11.70    1.90
  -2   5   1   14.20    2.00
  -2   5   1   13.10    1.70
   1  -5  -1  959.00   22.40
   1  -5  -1  989.90   20.90
   1  -5  -1  936.81   18.60
   1  -5  -1  984.20   21.50
  -1   5   1  973.70   18.30
  -1   5   1  992.40   20.40
  -1   5   1  998.30   20.10
   0  -5  -1    2.90    1.60
   0  -5  -1    3.80    2.00
   0  -5  -1    3.00    1.70
   0   5   1    1.60    1.50
   0   5   1    1.70    1.40
  -1  -5  -1 1048.30   21.10
  -1  -5  -1 1036.60   21.60
  -1  -5  -1 1056.69   22.80
  -1  -5  -1 1002.60   19.00
  -1  -5  -1 1019.40   20.00
   1   5   1 1021.30   21.40
   1   5   1 1000.90   21.30
   1   5   1 1013.80   21.30
  -2  -5  -1  324.07    8.20
  -2  -5  -1  307.27    6.90
  -2  -5  -1  320.17    7.60
  -2  -5  -1  326.17    8.40
  -2  -5  -1  314.97    9.80
   2   5   1  304.07    8.90
   2   5   1  317.47    8.30
   2   5   1  305.67    8.20
  -3  -5  -1  160.28    6.20
  -3  -5  -1  154.18    7.90
  -3  -5  -1  163.88    5.00
  -3  -5  -1  147.89    4.80
   3   5   1  155.28    7.20
   3   5   1  155.48    6.10
   3   5   1  160.88    5.40
  -4  -5  -1   38.40    5.40
  -4  -5  -1   31.80    1.30
  -4  -5  -1   33.40    3.60
  -4  -5  -1   38.40    3.10
   4   5   1   37.80    3.50
   4   5   1   41.30    3.20
   4   5   1   37.50    4.70
  -5  -5  -1   63.29    7.80
  -5  -5  -1   55.59    4.20
  -5  -5  -1   69.19    5.20
   5   5   1   58.89    6.20
   5   5   1   77.09    7.70
  -6  -5  -1  141.79   12.30
  -6  -5  -1  105.39    5.70
   6   5   1  104.19    8.50
   6   5   1   91.79    9.70
  -7  -5  -1    0.30    3.00
  -7  -5  -1   -6.70    5.80
   7   5   1   -2.00    5.10
   6  -6  -1   34.10    6.60
   6  -6  -1   31.50    5.60
  -6   6   1   29.90    4.40
  -6   6   1   24.60    3.60
   5  -6  -1   36.30    5.30
   5  -6  -1   28.30    7.00
  -5   6   1   30.50    3.90
  -5   6   1   29.10    3.80
   4  -6  -1  325.67   13.40
   4  -6  -1  325.27   12.70
  -4   6   1  310.97    9.50
  -4   6   1  319.97   10.10
   3  -6  -1  102.09    5.10
   3  -6  -1   98.69    8.00
   3  -6  -1   95.89    6.70
  -3   6   1  101.99    5.00
  -3   6   1   88.29    4.00
  -3   6   1   87.69    4.20
   2  -6  -1  164.98    7.60
   2  -6  -1  148.39    7.80
   2  -6  -1  147.79    4.70
   2  -6  -1  163.78    6.40
  -2   6   1  158.28    5.40
  -2   6   1  158.88    5.70
   1  -6  -1  377.86   11.10
   1  -6  -1  379.86   12.10
   1  -6  -1  401.36   10.80
  -1   6   1  405.76    9.90
  -1   6   1  374.26    7.90
  -1   6   1  395.16   10.20
   0  -6  -1  660.93   15.70
   0  -6  -1  678.03   16.00
   0  -6  -1  684.13   17.40
   0   6   1  668.33   15.00
   0   6   1  672.93   15.40
  -1  -6  -1  157.48    4.10
  -1  -6  -1  159.28    6.90
  -1  -6  -1  166.38    5.70
  -1  -6  -1  149.39    5.70
   1   6   1  154.38    5.80
   1   6   1  154.28    6.20
   1   6   1  152.78    5.70
  -2  -6  -1   71.49    3.60
  -2  -6  -1   80.69    5.90
  -2  -6  -1   69.09    2.10
  -2  -6  -1   72.79    3.60
  -2  -6  -1   75.49    4.20
   2   6   1   73.99    4.60
   2   6   1   74.59    4.00
   2   6   1   73.09    3.80
  -3  -6  -1  811.42   17.10
  -3  -6  -1  839.52   19.00
  -3  -6  -1  871.81   18.20
   3   6   1  815.12   20.10
   3   6   1  837.02   18.50
   3   6   1  819.22   18.50
  -4  -6  -1    3.90    1.20
  -4  -6  -1    2.40    1.40
  -4  -6  -1    2.90    3.20
  -4  -6  -1    1.60    2.30
   4   6   1    1.80    2.90
   4   6   1    2.70    2.00
   4   6   1    0.20    3.70
  -5  -6  -1   97.89    6.70
  -5  -6  -1   93.69    9.10
   5   6   1  101.19    6.90
   5   6   1   99.79    8.00
  -6  -6  -1   14.00    3.00
  -6  -6  -1   14.00    6.60
   6   6   1   15.40    5.60
  -7  -6  -1    2.60    6.50
   7   6   1    2.20    5.60
   6  -7  -1   31.50    8.10
   6  -7  -1   24.90    6.50
  -6   7   1   33.10    4.60
  -6   7   1   30.30    4.50
   5  -7  -1   16.50    5.30
   5  -7  -1   23.10    5.90
  -5   7   1   14.70    3.20
  -5   7   1   18.20    3.50
   4  -7  -1  105.49    7.70
   4  -7  -1  102.59    9.50
  -4   7   1  101.59    5.40
  -4   7   1  102.19    5.30
   3  -7  -1    0.20    3.20
   3  -7  -1   -3.60    4.30
   3  -7  -1    0.50    2.30
  -3   7   1   -0.20    1.90
  -3   7   1    0.50    1.90
  -3   7   1    1.90    2.10
   2  -7  -1   11.10    3.40
   2  -7  -1   10.30    2.40
   2  -7  -1    9.40    3.30
  -2   7   1   19.00    2.80
  -2   7   1   19.20    2.40
   1  -7  -1   90.29    5.80
   1  -7  -1   92.79    5.10
   1  -7  -1  101.69    6.70
  -1   7   1   94.49    2.70
  -1   7   1   99.49    4.40
  -1   7   1  100.89    4.70
   0  -7  -1  404.16   11.30
   0  -7  -1  416.56   11.70
   0  -7  -1  413.06   13.10
   0   7   1  420.76   11.20
   0   7   1  412.26   11.10
  -1  -7  -1   37.60    3.40
  -1  -7  -1   32.60    4.80
  -1  -7  -1   33.80    3.60
   1   7   1   30.70    3.30
   1   7   1   37.00    4.10
   1   7   1   36.20    3.50
  -2  -7  -1  195.18    6.30
  -2  -7  -1  195.78    8.80
  -2  -7  -1  198.28    5.90
  -2  -7  -1  195.08    7.20
   2   7   1  197.58    7.00
   2   7   1  189.88    7.50
   2   7   1  187.98    7.00
  -3  -7  -1  100.19    5.00
  -3  -7  -1   98.29    4.90
   3   7   1  100.99    6.90
   3   7   1  102.49    5.30
   3   7   1   83.39    4.60
  -4  -7  -1   50.59    7.40
  -4  -7  -1   50.49    4.60
   4   7   1   61.69    5.70
   4   7   1   51.39    3.80
  -5  -7  -1    5.90    5.70
  -5  -7  -1    9.10    3.50
   5   7   1    9.60    3.90
   5   7   1    9.70    4.90
  -6  -7  -1    1.00    4.40
   6   7   1   11.70    4.40
  -7  -7  -1   30.50    7.10
   7   7   1   29.60    5.90
   5  -8  -1   34.50    5.80
   5  -8  -1   23.80    6.20
  -5   8   1   24.30    4.00
  -5   8   1   23.00    3.90
   4  -8  -1    3.60    4.50
   4  -8  -1   -7.30    5.20
  -4   8   1   -1.80    2.30
  -4   8   1   -2.20    2.30
   3  -8  -1  220.98    9.10
   3  -8  -1  213.88   11.20
   3  -8  -1  225.78   10.20
  -3   8   1  224.68    8.40
  -3   8   1  212.08    7.60
  -3   8   1  207.98    7.30
   2  -8  -1   50.49    5.00
   2  -8  -1   41.80    5.70
   2  -8  -1   49.40    5.40
  -2   8   1   44.50    3.50
  -2   8   1   53.59    4.40
   1  -8  -1   75.39    7.20
   1  -8  -1   65.79    5.20
   1  -8  -1   61.39    5.30
  -1   8   1   56.99    4.60
  -1   8   1   59.69    4.50
   0  -8  -1   22.10    3.10
   0  -8  -1   26.60    4.30
   0  -8  -1   24.70    3.60
   0   8   1   26.00    3.10
   0   8   1   27.30    3.80
  -1  -8  -1   23.40    3.10
  -1  -8  -1   27.90    3.70
  -1  -8  -1   29.90    4.20
   1   8   1   28.00    4.10
   1   8   1   24.80    3.50
  -2  -8  -1   85.79    6.90
  -2  -8  -1   79.79    4.60
  -2  -8  -1   86.29    5.50
   2   8   1   82.59    5.00
   2   8   1   83.19    5.30
   2   8   1   75.99    4.60
  -3  -8  -1   59.69    6.00
  -3  -8  -1   51.19    3.80
  -3  -8  -1   52.89    4.40
   3   8   1   53.79    4.20
   3   8   1   56.99    6.00
   3   8   1   60.09    4.80
  -4  -8  -1   85.79    5.60
  -4  -8  -1   87.39    8.90
  -4  -8  -1   97.29    4.80
   4   8   1   89.59    6.90
   4   8   1   88.69    5.90
   4   8   1  104.39    8.60
  -5  -8  -1    0.90    4.10
   5   8   1    2.10    5.10
  -6  -8  -1   35.80    8.80
   6   8   1   22.90    6.60
   5  -9  -1   81.29    9.30
   5  -9  -1   50.89    7.70
  -5   9   1   50.39    5.40
  -5   9   1   54.59    5.00
   4  -9  -1   51.79    8.50
   4  -9  -1   69.29    8.00
  -4   9   1   78.59    5.40
  -4   9   1   71.79    5.20
   3  -9  -1   66.99    5.40
   3  -9  -1   72.39    7.90
   3  -9  -1   82.89    7.70
  -3   9   1   82.49    5.60
  -3   9   1   71.29    5.30
   2  -9  -1    7.40    4.20
   2  -9  -1   20.00    4.50
   2  -9  -1   14.80    3.80
  -2   9   1   20.50    3.50
   1  -9  -1    7.60    3.70
   1  -9  -1   14.40    3.60
   1  -9  -1   10.30    3.40
  -1   9   1   13.00    2.90
  -1   9   1   16.70    3.50
   0  -9  -1   20.00    3.30
   0  -9  -1   18.50    3.60
   0  -9  -1   15.40    5.10
   0   9   1   18.30    3.10
   0   9   1   21.70    3.90
  -1  -9  -1  319.47   12.70
  -1  -9  -1  294.27    9.80
  -1  -9  -1  315.67   10.90
   1   9   1  311.17   10.60
   1   9   1  303.17   10.60
  -2  -9  -1   44.70    5.90
  -2  -9  -1   42.40    4.60
   2   9   1   48.30    4.60
   2   9   1   47.90    4.50
   2   9   1   41.60    4.60
  -3  -9  -1   81.29    5.60
  -3  -9  -1   65.29    6.90
   3   9   1   65.49    6.50
   3   9   1   66.89    4.70
   3   9   1   76.79    5.90
  -4  -9  -1   25.60    3.60
  -4  -9  -1   16.80    5.60
   4   9   1   29.60    5.00
   4   9   1   30.30    4.40
   4   9   1   24.20    4.70
  -5  -9  -1    7.20    5.10
   5   9   1    4.00    4.10
  -6  -9  -1   24.20    8.80
   6   9   1   26.70    6.90
   4 -10  -1   60.09    9.40
   4 -10  -1   66.39    7.40
  -4  10   1   54.59    5.10
  -4  10   1   58.99    5.10
   3 -10  -1   -1.30    4.20
   3 -10  -1   -9.10    3.40
   3 -10  -1    2.30    3.50
  -3  10   1    4.60    3.50
  -3  10   1    0.10    2.50
  -3  10   1    1.20    2.80
   2 -10  -1   59.69    6.80
   2 -10  -1   50.69    5.90
   2 -10  -1   64.59    7.70
  -2  10   1   58.79    5.30
   1 -10  -1   89.39    9.00
   1 -10  -1   90.89    7.20
   1 -10  -1   85.49    6.30
  -1  10   1   85.79    6.50
  -1  10   1   87.29    5.60
   0 -10  -1   21.90    3.80
   0 -10  -1   18.80    5.70
   0 -10  -1   16.30    3.40
   0  10   1   17.80    4.10
   0  10   1   14.80    3.80
  -1 -10  -1   37.50    6.30
  -1 -10  -1   37.40    5.10
   1  10   1   43.00    4.60
   1  10   1   37.80    5.00
  -2 -10  -1    6.20    3.50
  -2 -10  -1    8.50    4.70
   2  10   1    9.20    3.70
   2  10   1   16.00    3.60
   2  10   1   12.90    3.50
  -3 -10  -1   15.40    5.20
  -3 -10  -1   24.20    4.10
   3  10   1   16.30    4.20
   3  10   1   15.60    3.80
   3  10   1   18.80    5.40
  -4 -10  -1    0.40    2.70
  -4 -10  -1   -1.10    6.50
   4  10   1    8.50    3.40
   4  10   1    2.30    3.50
   4  10   1   -3.80    5.10
  -5 -10  -1   18.60    8.00
   5  10   1   34.10    5.80
  -6 -10  -1   -0.60    7.20
   6  10   1  -10.60    5.40
   3 -11  -1   35.40    8.50
   3 -11  -1   24.20    6.40
   3 -11  -1   17.70    4.10
  -3  11   1   27.70    3.80
  -3  11   1   23.00    3.50
   2 -11  -1   16.80    4.70
   2 -11  -1   28.70    5.60
   2 -11  -1   26.10    7.60
  -2  11   1   20.60    4.30
   1 -11  -1    3.20    5.90
   1 -11  -1   -0.60    3.70
   1 -11  -1    4.10    3.90
  -1  11   1    3.50    3.70
   0 -11  -1   23.50    4.90
   0 -11  -1   20.60    4.20
   0 -11  -1   21.40    6.40
   0  11   1   18.00    3.60
   0  11   1   15.40    4.40
  -1 -11  -1    4.20    3.80
  -1 -11  -1    4.10    3.80
   1  11   1    2.90    4.40
   1  11   1    9.70    3.20
  -2 -11  -1   34.40    5.60
  -2 -11  -1   42.50    4.90
   2  11   1   45.70    5.70
   2  11   1   43.00    5.30
  -3 -11  -1   38.50    5.10
  -3 -11  -1   27.70    6.30
   3  11   1   42.90    5.60
   3  11   1   30.30    6.30
   3  11   1   42.20    5.80
  -4 -11  -1   27.20    6.90
  -4 -11  -1   25.10    4.10
   4  11   1   36.00    5.40
   4  11   1   27.80    6.80
  -5 -11  -1   10.00    8.10
   5  11   1   -3.20    5.80
   2 -12  -1    1.00    6.70
   2 -12  -1    2.10    4.60
   2 -12  -1    1.80    4.30
  -2  12   1   -5.70    3.20
  -2  12   1   -1.70    2.90
   1 -12  -1   43.30    6.40
   1 -12  -1   28.50    5.40
   1 -12  -1   29.60    6.20
  -1  12   1   41.30    5.80
   0 -12  -1   34.70    5.90
   0 -12  -1   32.20    6.10
   0  12   1   19.60    4.90
  -1 -12  -1    1.60    4.30
  -1 -12  -1    2.50    4.00
   1  12   1   -1.50    4.50
   1  12   1    0.20    3.90
  -2 -12  -1   28.10    6.60
  -2 -12  -1   52.79    6.30
   2  12   1   36.00    5.80
   2  12   1   34.20    5.20
  -3 -12  -1   11.10    4.20
  -3 -12  -1    5.40    5.30
   3  12   1   -2.70    5.40
   3  12   1    1.40    4.10
  -4 -12  -1    5.10    5.90
  -4 -12  -1   10.20    3.60
   4  12   1    8.80    4.50
   4  12   1   12.30    6.30
   1 -13  -1    1.90    6.70
   1 -13  -1    9.90    3.90
  -1  13   1    8.20    4.60
   0 -13  -1   -0.60    5.70
   0 -13  -1   -2.70    4.20
   0  13   1    0.90    3.20
  -1 -13  -1   11.40    4.80
  -1 -13  -1   14.40    5.20
   1  13   1   21.50    5.60
   1  13   1   20.70    5.40
  -2 -13  -1   -2.00    4.00
  -2 -13  -1    0.50    5.40
   2  13   1    1.50    3.20
   2  13   1   -3.30    3.50
  -3 -13  -1    7.40    4.20
   3  13   1   16.60    6.20
   3  13   1   16.50    4.20
   2  13  -2   10.10    5.00
  -2 -13   2   19.00    4.50
  -2 -13   2   11.90    6.70
   1  13  -2   11.40    5.10
  -1 -13   2    8.80    4.40
  -1 -13   2    3.30    4.70
   0  13  -2    7.20    4.60
   0 -13   2   12.50    6.20
   0 -13   2   11.30    4.20
   4  12  -2    9.90    3.80
   4  12  -2    5.00    6.20
  -4 -12   2    5.20    7.60
   3  12  -2   17.10    5.10
   3  12  -2   21.50    6.20
  -3 -12   2   10.70    4.40
   2  12  -2    0.00    4.80
   2  12  -2    0.20    3.00
  -2 -12   2   -3.30    3.90
  -2 -12   2    7.10    5.20
   1  12  -2   -1.30    3.90
  -1 -12   2    3.80    3.40
  -1 -12   2    5.30    5.10
   0  12  -2   73.39    6.80
   0 -12   2   66.49    8.80
   0 -12   2   56.29    7.10
  -1  12  -2    0.40    2.80
   1 -12   2   -4.00    4.00
   1 -12   2    8.00    4.90
  -2  12  -2   36.90    5.50
   2 -12   2   32.60    5.40
   2 -12   2   19.50    7.90
   5  11  -2    6.20    6.50
  -5 -11   2    8.10    7.70
   4  11  -2    8.50    6.00
   4  11  -2    3.00    3.90
  -4 -11   2    2.80    7.10
  -4 -11   2    0.40    2.80
   3  11  -2   41.10    6.80
   3  11  -2   52.79    6.10
  -3 -11   2   36.40    6.00
  -3 -11   2   44.20    5.40
   2  11  -2    5.40    3.80
   2  11  -2    0.60    4.60
   2  11  -2    0.10    3.70
  -2 -11   2   -0.60    3.10
  -2 -11   2    3.50    4.00
   1  11  -2   92.59    7.10
   1  11  -2   82.79    6.70
  -1 -11   2   91.49    7.60
  -1 -11   2   75.89    8.00
   0  11  -2   78.79    7.00
   0 -11   2   72.39    7.50
   0 -11   2   67.59    7.00
  -1  11  -2  108.79    7.90
   1 -11   2  120.39    9.20
   1 -11   2  101.49   10.30
  -2  11  -2   23.60    4.40
   2 -11   2   28.60    4.80
   2 -11   2   25.80    7.60
   2 -11   2   26.20    5.30
  -3  11  -2    1.70    3.10
   3 -11   2  -15.40    6.00
   3 -11   2   -1.40    3.70
   3 -11   2   -0.20    4.30
   5  10  -2   -1.10    6.00
  -5 -10   2    5.80    6.90
   4  10  -2   37.60    5.90
   4  10  -2   37.10    5.10
  -4 -10   2   31.60    6.80
  -4 -10   2   38.10    4.20
   3  10  -2   23.50    4.50
   3  10  -2   27.80    6.10
   3  10  -2   27.10    4.70
  -3 -10   2   21.30    4.70
  -3 -10   2   24.60    4.30
   2  10  -2   31.90    4.70
   2  10  -2   29.00    4.20
   2  10  -2   26.90    4.20
  -2 -10   2   22.20    4.30
  -2 -10   2   29.10    5.40
   1  10  -2   61.99    5.10
   1  10  -2   66.99    5.70
   1  10  -2   75.29    6.00
  -1 -10   2   76.89    7.60
  -1 -10   2   61.69    5.70
   0  10  -2   31.70    4.60
   0  10  -2   29.50    4.70
   0 -10   2   29.50    4.40
   0 -10   2   33.30    6.40
  -1  10  -2  187.28    9.00
   1 -10   2  189.78    9.80
   1 -10   2  199.78    9.30
   1 -10   2  196.98   12.50
  -2  10  -2   -0.30    3.00
   2 -10   2    3.20    6.00
   2 -10   2   -3.60    3.30
   2 -10   2   -0.50    3.40
  -3  10  -2   36.10    4.10
  -3  10  -2   38.30    4.00
  -3  10  -2   33.90    4.10
   3 -10   2   33.20    5.40
   3 -10   2   40.60    8.40
   3 -10   2   43.20    5.60
  -4  10  -2    0.20    3.20
   4 -10   2    4.90    6.90
   4 -10   2    7.50    5.00
   6   9  -2    3.80    5.80
  -6  -9   2   -2.00    4.40
  -6  -9   2    0.40    2.80
   5   9  -2   22.50    6.60
  -5  -9   2   16.70    7.70
  -5  -9   2    9.10    3.70
   4   9  -2   21.70    3.90
   4   9  -2   16.50    4.40
   4   9  -2   17.50    5.80
  -4  -9   2   33.80    7.90
  -4  -9   2   20.80    3.10
   3   9  -2    5.10    3.40
   3   9  -2    0.60    3.30
   3   9  -2    0.70    2.10
  -3  -9   2   -0.50    3.30
  -3  -9   2    1.80    2.90
   2   9  -2  167.58    8.60
   2   9  -2  187.98    8.30
   2   9  -2  186.78    9.00
  -2  -9   2  174.18    9.40
  -2  -9   2  185.78    7.80
   1   9  -2    3.80    3.00
   1   9  -2    5.40    3.30
   1   9  -2    0.20    3.10
  -1  -9   2    5.80    3.20
  -1  -9   2   -0.20    4.00
   0   9  -2  346.97   11.40
   0   9  -2  336.47   10.20
   0   9  -2  365.76   12.90
   0  -9   2  347.57   13.20
   0  -9   2  342.27   10.90
   0  -9   2  324.57   11.70
  -1   9  -2   92.99    5.40
   1  -9   2   84.69    6.50
   1  -9   2   90.79    6.20
   1  -9   2   99.19    8.70
  -2   9  -2  102.39    6.20
   2  -9   2  100.19    7.00
   2  -9   2  107.69    9.40
   2  -9   2  115.29    7.90
  -3   9  -2   66.49    5.40
  -3   9  -2   78.09    5.00
  -3   9  -2   69.39    5.10
   3  -9   2   86.09    7.70
   3  -9   2   69.09    9.10
   3  -9   2   65.09    6.20
  -4   9  -2    8.10    3.30
   4  -9   2    4.40    4.90
   4  -9   2   14.90    5.30
  -5   9  -2   51.29    5.60
   5  -9   2   42.30    9.10
   5  -9   2   61.19    7.60
   6   8  -2   13.00    4.80
  -6  -8   2   10.30    3.70
  -6  -8   2    7.60    5.20
   5   8  -2   14.50    6.00
  -5  -8   2   11.70    3.90
  -5  -8   2   12.60    6.70
   4   8  -2   -4.10    4.60
   4   8  -2    2.90    2.60
   4   8  -2   -1.90    3.90
  -4  -8   2    1.90    5.40
  -4  -8   2    2.60    2.30
  -4  -8   2   -0.60    2.50
   3   8  -2   65.69    5.10
   3   8  -2   62.09    6.30
   3   8  -2   61.59    6.00
  -3  -8   2   65.09    4.80
  -3  -8   2   64.39    5.60
  -3  -8   2   66.39    5.10
   2   8  -2   26.20    3.90
   2   8  -2   28.80    4.30
   2   8  -2   28.50    3.70
  -2  -8   2   26.80    3.20
  -2  -8   2   26.10    2.80
  -2  -8   2   24.30    4.40
   1   8  -2  179.18    7.40
   1   8  -2  179.08    7.30
   1   8  -2  178.18    8.20
  -1  -8   2  163.88    5.90
  -1  -8   2  164.48    6.50
  -1  -8   2  163.78    7.10
  -1  -8   2  164.28    8.80
   0   8  -2   46.80    4.50
   0   8  -2   39.60    4.70
   0   8  -2   42.60    3.80
   0  -8   2   37.70    4.90
   0  -8   2   33.60    3.30
   0  -8   2   39.70    4.40
  -1   8  -2   80.19    5.30
   1  -8   2   71.29    5.50
   1  -8   2   74.59    7.40
   1  -8   2   77.19    5.60
   1  -8   2   73.79    4.70
  -2   8  -2  294.27    9.50
   2  -8   2  272.87    9.00
   2  -8   2  280.77   10.00
   2  -8   2  273.17   10.80
   2  -8   2  293.17   12.50
  -3   8  -2    9.60    2.80
  -3   8  -2    9.90    2.30
  -3   8  -2    9.00    2.40
   3  -8   2   11.30    3.30
   3  -8   2   10.50    4.00
   3  -8   2    8.70    4.40
  -4   8  -2   45.70    4.00
  -4   8  -2   42.40    4.20
  -4   8  -2   48.40    4.90
   4  -8   2   48.60    7.30
   4  -8   2   46.60    6.60
  -5   8  -2    0.20    1.90
   5  -8   2   -2.00    6.50
   5  -8   2    4.90    3.60
   7   7  -2   -4.00    5.60
  -7  -7   2    4.60    6.50
  -7  -7   2   -0.60    3.00
   6   7  -2   25.50    5.10
  -6  -7   2   24.90    5.20
  -6  -7   2   28.70    7.80
   5   7  -2   22.80    5.70
  -5  -7   2   23.70    6.70
  -5  -7   2   24.10    4.50
   4   7  -2   36.30    3.80
   4   7  -2   36.60    5.20
   4   7  -2   33.50    5.70
  -4  -7   2   33.60    4.50
  -4  -7   2   36.20    6.70
   3   7  -2  155.28    8.60
   3   7  -2  170.78    6.70
   3   7  -2  175.48    7.80
  -3  -7   2  171.38    7.20
  -3  -7   2  176.08    6.60
   2   7  -2   44.60    3.90
   2   7  -2   46.70    4.90
   2   7  -2   59.09    5.30
  -2  -7   2   45.20    3.80
  -2  -7   2   39.80    3.30
  -2  -7   2   44.10    4.70
   1   7  -2  432.36   12.10
   1   7  -2  429.56   11.40
   1   7  -2  410.76   11.40
  -1  -7   2  430.86   13.10
  -1  -7   2  387.26    9.70
  -1  -7   2  399.66   11.60
  -1  -7   2  417.26   10.10
   0   7  -2   14.20    2.70
   0   7  -2   15.80    2.80
   0   7  -2   13.90    3.40
   0  -7   2   12.30    2.90
   0  -7   2    8.10    3.90
   0  -7   2   11.10    2.10
  -1   7  -2  708.13   14.60
  -1   7  -2  717.33   16.90
  -1   7  -2  704.33   15.60
   1  -7   2  748.83   17.70
   1  -7   2  730.93   17.00
   1  -7   2  692.33   17.70
   1  -7   2  702.83   19.20
  -2   7  -2  128.19    4.70
  -2   7  -2  126.79    5.70
   2  -7   2  145.79    6.80
   2  -7   2  132.69    5.80
   2  -7   2  134.29    9.10
  -3   7  -2  147.09    5.60
  -3   7  -2  147.99    5.90
  -3   7  -2  131.29    5.70
  -3   7  -2  134.59    5.80
   3  -7   2  152.48    7.10
   3  -7   2  132.49   10.00
  -4   7  -2   93.29    5.20
  -4   7  -2   88.59    5.50
  -4   7  -2   99.09    5.20
   4  -7   2  105.89   10.00
  -5   7  -2   12.50    2.80
  -5   7  -2   12.50    3.50
  -5   7  -2   10.40    3.20
   5  -7   2   11.10    5.30
  -6   7  -2   75.69    6.10
  -6   7  -2   72.99    6.60
   6  -7   2  101.29   10.10
   6  -7   2   85.39   11.00
   7   6  -2    5.00    5.70
  -7  -6   2   -2.70    4.30
  -7  -6   2   -0.30    4.10
   6   6  -2   17.20    5.80
  -6  -6   2   20.80    4.90
  -6  -6   2   13.30    5.00
   5   6  -2   -1.40    4.10
   5   6  -2   -2.50    3.10
  -5  -6   2   -0.60    3.10
  -5  -6   2   -6.80    4.40
   4   6  -2  149.09    7.60
   4   6  -2  157.78    6.00
   4   6  -2  142.69    7.80
  -4  -6   2  161.88   10.20
  -4  -6   2  145.89    7.50
   3   6  -2   21.20    2.80
   3   6  -2   23.20    4.20
   3   6  -2   27.50    4.50
  -3  -6   2   23.30    3.30
  -3  -6   2   24.00    2.60
   2   6  -2   54.09    3.90
   2   6  -2   49.10    4.70
   2   6  -2   55.39    4.90
  -2  -6   2   51.99    3.90
  -2  -6   2   48.30    4.30
  -2  -6   2   55.49    3.60
  -2  -6   2   52.99    2.30
   1   6  -2   24.80    2.80
   1   6  -2   23.40    3.70
   1   6  -2   20.40    2.40
  -1  -6   2   21.30    2.60
  -1  -6   2   22.50    2.10
  -1  -6   2   27.20    3.80
  -1  -6   2   27.80    2.40
  -1  -6   2   21.30    1.90
   0   6  -2  172.28    5.60
   0   6  -2  184.58    6.40
   0   6  -2  174.08    5.80
   0   6  -2  178.38    6.90
   0  -6   2  179.18    6.00
   0  -6   2  180.78    6.80
   0  -6   2  173.98    8.00
   0  -6   2  188.08    6.60
  -1   6  -2  219.98    8.50
  -1   6  -2  224.28    6.10
  -1   6  -2  240.68    7.30
  -1   6  -2  223.08    5.70
  -1   6  -2  196.78    6.60
   1  -6   2  235.48    8.00
   1  -6   2  211.08    7.00
   1  -6   2  242.28    9.80
  -2   6  -2   28.70    2.40
  -2   6  -2   38.20    3.20
  -2   6  -2   32.50    2.70
   2  -6   2   36.50    3.70
   2  -6   2   36.80    3.80
   2  -6   2   28.30    4.40
  -3   6  -2  196.98    6.90
  -3   6  -2  184.58    6.80
  -3   6  -2  192.18    6.40
   3  -6   2  196.58   10.70
   3  -6   2  191.38    7.50
   3  -6   2  184.78    7.30
  -4   6  -2    0.10    1.50
  -4   6  -2   -0.80    1.90
  -4   6  -2    4.30    1.80
   4  -6   2   -0.30    4.60
  -5   6  -2   60.59    5.40
  -5   6  -2   70.99    5.50
  -5   6  -2   69.19    4.90
   5  -6   2   53.89    8.50
  -6   6  -2   -0.80    2.70
  -6   6  -2    1.00    1.90
  -6   6  -2    3.40    3.40
   6  -6   2   -3.90    6.20
   7   5  -2   36.00    6.70
  -7  -5   2   31.10    7.80
  -7  -5   2   28.40    5.90
   6   5  -2   18.70    5.50
  -6  -5   2    6.30    4.10
  -6  -5   2   14.80    4.80
   5   5  -2  130.89    8.50
   5   5  -2  122.49    7.00
  -5  -5   2  124.79    9.90
  -5  -5   2  114.29    7.70
   4   5  -2  107.69    4.80
   4   5  -2  111.19    6.90
   4   5  -2  105.49    6.30
  -4  -5   2  101.89    6.50
  -4  -5   2  128.49    8.80
   3   5  -2   56.59    5.10
   3   5  -2   63.19    5.30
   3   5  -2   55.09    3.50
   3   5  -2   57.69    2.20
  -3  -5   2   66.49    3.50
  -3  -5   2   60.49    4.50
  -3  -5   2   61.99    6.30
   2   5  -2   58.89    5.40
   2   5  -2   60.79    4.00
   2   5  -2   56.29    3.50
  -2  -5   2   57.09    3.50
  -2  -5   2   54.79    3.50
  -2  -5   2   57.59    2.30
  -2  -5   2   58.59    4.20
   1   5  -2    1.50    1.70
   1   5  -2    1.40    1.90
   1   5  -2    3.10    2.20
  -1  -5   2   -1.40    1.50
  -1  -5   2    0.90    0.90
  -1  -5   2    0.70    1.10
  -1  -5   2    2.00    2.40
  -1  -5   2    1.00    1.00
   0   5  -2  946.61   20.70
   0   5  -2  897.91   19.20
   0   5  -2  911.91   17.50
   0   5  -2  924.01   19.70
   0   5  -2  942.01   19.10
   0  -5   2  934.11   20.00
   0  -5   2  946.51   21.10
   0  -5   2  928.61   20.10
  -1   5  -2   19.10    2.30
  -1   5  -2   16.00    2.90
  -1   5  -2   20.80    2.40
  -1   5  -2   18.20    1.90
  -1   5  -2   18.40    1.60
   1  -5   2   19.90    2.70
   1  -5   2   16.90    3.60
   1  -5   2   14.80    2.50
  -2   5  -2  244.18    6.60
  -2   5  -2  246.08    7.00
  -2   5  -2  242.08    6.80
  -2   5  -2  239.58    7.00
   2  -5   2  244.28    7.50
   2  -5   2  248.48    8.00
   2  -5   2  233.98   10.00
  -3   5  -2   70.79    3.90
  -3   5  -2   67.89    3.20
  -3   5  -2   73.69    3.70
  -3   5  -2   75.89    4.00
   3  -5   2   73.49    4.30
   3  -5   2   71.79    3.30
   3  -5   2   89.99    7.30
   3  -5   2   75.89    5.60
  -4   5  -2  119.09    5.20
  -4   5  -2  121.49    5.30
  -4   5  -2  119.99    5.70
   4  -5   2  128.29    7.30
   4  -5   2  112.09    8.00
  -5   5  -2   67.99    4.70
  -5   5  -2   62.09    5.20
  -5   5  -2   76.49    5.30
   5  -5   2   65.29    7.50
  -6   5  -2   31.50    4.30
  -6   5  -2   28.30    3.30
  -6   5  -2   29.30    3.90
   6  -5   2   28.00    6.20
   7   4  -2   61.99    6.70
  -7  -4   2   64.59    7.50
  -7  -4   2   66.09    9.30
   6   4  -2   39.90    6.30
   6   4  -2   37.40    6.10
  -6  -4   2   29.80    6.00
  -6  -4   2   35.60    5.50
   5   4  -2  113.39    7.60
   5   4  -2  108.19    6.40
  -5  -4   2  108.69    7.30
  -5  -4   2   98.39    7.80
   4   4  -2    0.90    1.00
   4   4  -2    1.30    2.40
   4   4  -2    0.10    1.20
   4   4  -2    1.50    2.50
  -4  -4   2   -2.20    3.50
  -4  -4   2    1.70    1.70
   3   4  -2  270.47    6.30
   3   4  -2  260.47    6.90
   3   4  -2  257.37    5.50
   3   4  -2  260.67    8.90
   3   4  -2  277.37    8.70
  -3  -4   2  269.97    6.30
  -3  -4   2  253.17   10.30
  -3  -4   2  255.07    8.50
   2   4  -2  110.59    5.10
   2   4  -2  108.59    5.30
   2   4  -2  112.39    3.30
   2   4  -2   99.69    3.90
  -2  -4   2  112.89    4.60
  -2  -4   2  103.19    3.10
  -2  -4   2  100.79    4.30
  -2  -4   2  103.29    3.90
   1   4  -2  262.27    7.30
   1   4  -2  277.67    8.40
   1   4  -2  261.77    5.30
   1   4  -2  264.87    6.80
  -1  -4   2  255.07    7.10
  -1  -4   2  261.27    7.50
  -1  -4   2  257.37    6.70
  -1  -4   2  259.47    5.60
  -1  -4   2  255.87    6.10
   0   4  -2   86.29    4.40
   0   4  -2   80.69    2.20
   0   4  -2   81.19    3.30
   0   4  -2   82.69    3.20
   0   4  -2   87.09    3.60
   0  -4   2   84.69    3.80
   0  -4   2   83.39    3.90
   0  -4   2   83.89    4.50
  -1   4  -2  474.25    9.70
  -1   4  -2  464.95   10.20
  -1   4  -2  483.05   10.80
  -1   4  -2  463.35   11.90
  -1   4  -2  456.85   10.70
   1  -4   2  475.55   11.40
   1  -4   2  474.35   11.20
   1  -4   2  470.25   12.70
  -2   4  -2  803.12   17.20
  -2   4  -2  811.02   17.20
  -2   4  -2  814.32   16.60
  -2   4  -2  817.82   16.70
   2  -4   2  797.12   18.00
   2  -4   2  762.32   15.30
   2  -4   2  793.12   17.40
   2  -4   2  801.22   16.60
   2  -4   2  794.52   19.60
  -3   4  -2    5.80    2.00
  -3   4  -2    5.00    1.30
  -3   4  -2    3.60    1.40
  -3   4  -2    5.40    1.30
   3  -4   2    5.60    1.90
   3  -4   2    6.00    3.60
   3  -4   2    2.90    1.60
   3  -4   2   10.50    2.80
  -4   4  -2  388.66   11.20
  -4   4  -2  365.26   10.10
  -4   4  -2  367.66   10.00
   4  -4   2  379.76   13.80
   4  -4   2  374.06   12.40
   4  -4   2  358.06   10.40
  -5   4  -2    0.80    1.90
  -5   4  -2    2.60    2.70
  -5   4  -2    1.80    1.60
   5  -4   2    3.70    4.80
   5  -4   2    2.80    4.10
  -6   4  -2   48.00    4.40
  -6   4  -2   52.39    5.70
  -6   4  -2   53.79    4.50
   6  -4   2   58.49    8.70
  -7   4  -2    3.00    2.90
  -7   4  -2    4.50    2.90
  -7   4  -2    7.10    2.70
   7  -4   2   13.50    5.50
   7   3  -2   15.60    5.40
  -7  -3   2    5.40    3.50
  -7  -3   2   10.60    6.10
   6   3  -2  192.98    9.30
   6   3  -2  185.28   10.10
   6   3  -2  187.98   10.00
  -6  -3   2  205.48   12.50
  -6  -3   2  189.28    9.50
   5   3  -2    2.90    2.70
   5   3  -2    4.70    1.60
  -5  -3   2    1.00    2.90
  -5  -3   2    7.10    2.30
  -5  -3   2    4.30    4.30
   4   3  -2   69.69    2.80
   4   3  -2   71.79    3.40
   4   3  -2   75.09    5.10
  -4  -3   2   70.09    5.30
  -4  -3   2   81.19    4.20
  -4  -3   2   83.99    7.30
   3   3  -2  420.96   11.10
   3   3  -2  398.26    9.10
   3   3  -2  431.96    9.40
  -3  -3   2  402.66   11.30
  -3  -3   2  402.16   12.50
  -3  -3   2  406.16    9.70
   2   3  -2   48.60    2.10
   2   3  -2   48.30    2.30
   2   3  -2   50.89    3.40
  -2  -3   2   45.10    3.10
  -2  -3   2   45.60    1.90
  -2  -3   2   59.09    4.40
  -2  -3   2   45.60    2.20
   1   3  -2  175.38    5.90
   1   3  -2  172.48    4.80
   1   3  -2  168.78    4.30
   1   3  -2  179.08    4.00
  -1  -3   2  168.88    4.30
  -1  -3   2  176.68    5.10
  -1  -3   2  170.98    4.90
  -1  -3   2  171.38    3.40
  -1  -3   2  171.48    4.90
   0   3  -2  358.76    8.10
   0   3  -2  346.17    7.90
   0   3  -2  335.97    8.80
   0   3  -2  335.67    7.50
   0  -3   2  344.67    8.70
   0  -3   2  342.47    8.40
   0  -3   2  335.27    7.70
   0  -3   2  344.47    8.30
  -1   3  -2 1416.56   28.90
  -1   3  -2 1441.56   26.70
  -1   3  -2 1405.26   28.10
  -1   3  -2 1419.16   27.60
  -1   3  -2 1444.46   27.80
   1  -3   2 1438.86   29.40
   1  -3   2 1409.56   28.10
   1  -3   2 1450.75   27.80
   1  -3   2 1451.95   28.60
  -2   3  -2  591.14   12.70
  -2   3  -2  597.64   13.40
  -2   3  -2  599.74   12.60
  -2   3  -2  617.14   13.60
   2  -3   2  596.14   13.20
   2  -3   2  609.14   11.60
   2  -3   2  602.84   14.50
   2  -3   2  628.94   15.40
   2  -3   2  625.34   13.40
  -3   3  -2  139.99    4.70
  -3   3  -2  136.49    3.40
  -3   3  -2  140.49    4.80
  -3   3  -2  150.08    5.70
   3  -3   2  135.19    5.70
   3  -3   2  138.99    4.70
   3  -3   2  130.99    7.00
   3  -3   2  138.49    7.40
  -4   3  -2   17.90    2.40
  -4   3  -2   18.60    2.90
  -4   3  -2   26.20    2.60
   4  -3   2   16.90    3.10
   4  -3   2   16.90    4.40
   4  -3   2   22.40    4.70
  -5   3  -2   49.90    3.70
  -5   3  -2   46.40    4.40
  -5   3  -2   54.09    4.10
   5  -3   2   53.49    6.40
   5  -3   2   47.10    6.50
  -6   3  -2   41.60    5.10
  -6   3  -2   36.30    4.00
  -6   3  -2   42.10    4.10
   6  -3   2   37.20    6.10
  -7   3  -2    2.80    2.90
  -7   3  -2    2.00    2.70
  -7   3  -2    3.30    2.80
   7  -3   2   -9.90    5.40
   7   2  -2   34.80    5.90
  -7  -2   2   29.20    6.10
  -7  -2   2   30.90    6.00
   6   2  -2  102.19    7.60
   6   2  -2  111.29    8.60
   6   2  -2  118.09    7.40
  -6  -2   2  105.09    6.40
  -6  -2   2   92.29    8.60
  -6  -2   2  109.49    8.40
   5   2  -2   88.49    4.50
   5   2  -2  102.79    6.30
  -5  -2   2   93.89    6.60
  -5  -2   2   96.19    5.00
  -5  -2   2  111.19    9.00
   4   2  -2  261.47    7.60
   4   2  -2  261.27    9.10
  -4  -2   2  253.57    7.90
  -4  -2   2  260.87    7.70
  -4  -2   2  274.77   10.90
  -4  -2   2  258.07    9.20
   3   2  -2   85.29    4.50
   3   2  -2   88.79    3.50
   3   2  -2   84.49    2.60
  -3  -2   2   94.59    3.80
  -3  -2   2   98.29    5.00
  -3  -2   2   90.59    5.80
  -3  -2   2   83.09    3.60
   2   2  -2  923.01   18.10
   2   2  -2  905.11   19.40
   2   2  -2  895.81   17.60
  -2  -2   2  894.91   17.30
  -2  -2   2  897.71   20.20
  -2  -2   2  903.01   18.00
  -2  -2   2  932.11   19.50
   1   2  -2    3.00    0.90
   1   2  -2    4.30    1.00
   1   2  -2    4.40    1.20
   1   2  -2    3.20    0.90
  -1  -2   2    2.70    1.00
  -1  -2   2    3.10    0.80
  -1  -2   2    3.90    0.90
  -1  -2   2    3.40    1.10
   0   2  -2  119.59    4.20
   0   2  -2  116.69    3.70
   0   2  -2  117.89    3.50
   0  -2   2  126.19    4.10
   0  -2   2  123.59    3.70
   0  -2   2  133.39    4.00
   0  -2   2  117.69    3.40
  -1   2  -2 1381.96   26.60
  -1   2  -2 1375.86   27.30
  -1   2  -2 1377.86   27.10
  -1   2  -2 1370.86   26.40
  -1   2  -2 1372.86   25.90
   1  -2   2 1389.66   26.80
   1  -2   2 1402.76   27.60
  -2   2  -2  796.22   16.70
  -2   2  -2  794.42   15.90
  -2   2  -2  762.42   16.60
  -2   2  -2  758.72   15.40
  -2   2  -2  777.12   15.30
  -2   2  -2  784.42   15.70
   2  -2   2  803.42   16.90
   2  -2   2  800.42   17.70
   2  -2   2  786.12   14.80
   2  -2   2  767.52   16.00
  -3   2  -2  734.23   15.60
  -3   2  -2  712.73   15.50
  -3   2  -2  738.53   16.60
   3  -2   2  741.33   15.30
   3  -2   2  712.93   16.70
   3  -2   2  739.63   18.10
  -4   2  -2   14.80    2.10
  -4   2  -2   13.00    2.30
  -4   2  -2   11.30    2.00
   4  -2   2   15.90    3.30
   4  -2   2    8.30    4.10
   4  -2   2   15.10    2.10
  -5   2  -2  173.98    7.60
  -5   2  -2  189.68    6.90
  -5   2  -2  191.68    6.80
   5  -2   2  180.38    9.20
   5  -2   2  172.88    8.30
  -6   2  -2    5.80    1.90
  -6   2  -2    4.30    2.40
  -6   2  -2    7.50    3.30
   6  -2   2    8.60    5.30
   6  -2   2    1.50    5.40
  -7   2  -2   25.80    4.90
  -7   2  -2   20.50    3.10
   7  -2   2   26.80    7.20
   7   1  -2   23.20    4.90
  -7  -1   2   26.40    6.80
  -7  -1   2   20.70    4.40
   6   1  -2   25.60    4.30
   6   1  -2   13.30    2.90
   6   1  -2   19.20    4.40
  -6  -1   2   11.40    2.70
  -6  -1   2   16.50    4.50
  -6  -1   2   15.00    5.50
  -6  -1   2   12.50    3.00
   5   1  -2  252.07    8.60
  -5  -1   2  260.07    8.50
  -5  -1   2  263.37   11.30
  -5  -1   2  259.37    9.90
  -5  -1   2  245.18    7.60
  -5  -1   2  259.57    8.90
   4   1  -2  105.79    4.80
  -4  -1   2  110.09    4.40
  -4  -1   2  102.69    5.90
  -4  -1   2   98.29    4.90
  -4  -1   2   95.79    3.90
  -4  -1   2  114.09    7.30
   3   1  -2    5.60    0.60
   3   1  -2    4.10    1.40
  -3  -1   2    5.70    2.00
  -3  -1   2    5.50    2.70
  -3  -1   2    5.60    1.10
  -3  -1   2    7.50    1.50
  -3  -1   2    4.00    1.50
   2   1  -2   51.19    3.00
   2   1  -2   44.40    1.50
   2   1  -2   46.00    2.30
  -2  -1   2   45.90    2.20
  -2  -1   2   49.20    3.50
  -2  -1   2   44.60    2.00
  -2  -1   2   44.60    2.70
  -2  -1   2   44.90    2.30
   1   1  -2    4.30    0.90
   1   1  -2    4.00    0.60
   1   1  -2    3.90    1.00
   1   1  -2    3.30    0.60
   1   1  -2    4.50    0.70
  -1  -1   2    6.00    0.80
  -1  -1   2    4.20    1.10
  -1  -1   2    4.50    0.90
  -1  -1   2    4.20    0.60
  -1  -1   2    4.10    0.60
  -1  -1   2    5.50    1.50
   0   1  -2  683.83   13.50
   0   1  -2  666.73   13.60
   0   1  -2  667.03   13.00
   0   1  -2  691.23   13.20
   0  -1   2  639.44   13.50
   0  -1   2  659.93   13.10
   0  -1   2  667.03   13.20
   0  -1   2  671.93   13.40
   0  -1   2  669.93   12.90
  -1   1  -2  401.46    8.80
  -1   1  -2  401.16    8.70
  -1   1  -2  394.96    9.10
  -1   1  -2  402.26    8.60
  -1   1  -2  404.56    8.20
  -1   1  -2  402.56    7.90
   1  -1   2  401.96    9.00
   1  -1   2  395.76    8.00
   1  -1   2  405.06    8.50
   1  -1   2  404.76    9.60
  -2   1  -2 1692.13   34.20
  -2   1  -2 1715.53   33.30
  -2   1  -2 1703.03   33.70
  -2   1  -2 1708.93   32.40
  -2   1  -2 1711.03   33.40
  -2   1  -2 1714.33   32.40
   2  -1   2 1688.13   34.40
   2  -1   2 1647.34   31.90
   2  -1   2 1725.63   32.30
   2  -1   2 1711.33   33.70
  -3   1  -2   87.69    5.30
  -3   1  -2   92.09    4.30
  -3   1  -2   83.49    3.30
  -3   1  -2   85.99    3.20
   3  -1   2   87.79    3.00
   3  -1   2   90.89    5.00
   3  -1   2   86.89    5.90
  -4   1  -2   24.00    2.40
  -4   1  -2   21.90    4.30
  -4   1  -2   20.40    2.30
  -4   1  -2   18.90    2.50
   4  -1   2   18.00    3.00
   4  -1   2   24.20    4.70
   4  -1   2   19.40    2.60
  -5   1  -2   42.90    4.20
  -5   1  -2   39.10    3.40
  -5   1  -2   38.50    3.10
   5  -1   2   39.70    4.40
   5  -1   2   41.40    3.60
   5  -1   2   43.80    6.20
  -6   1  -2   24.90    3.20
  -6   1  -2   22.90    3.70
  -6   1  -2   24.00    3.20
   6  -1   2   30.80    6.70
   6  -1   2   15.10    4.60
  -7   1  -2   26.90    3.60
  -7   1  -2   30.30    5.00
   7  -1   2   29.60    7.60
   6   0  -2   49.70    5.60
   6   0  -2   35.70    5.40
   6   0  -2   38.30    4.40
  -6   0   2   50.69    4.70
  -6   0   2   54.19    6.00
  -6   0   2   48.80    3.80
  -6   0   2   49.00    6.90
  -6   0   2   46.10    4.50
   5   0  -2  252.77    9.70
   5   0  -2  232.48    8.60
  -5   0   2  227.38    8.50
  -5   0   2  216.68    7.20
  -5   0   2  246.88    9.90
  -5   0   2  226.28    8.00
  -5   0   2  244.98   11.20
   4   0  -2  281.17    8.50
  -4   0   2  263.07    8.30
  -4   0   2  272.97   10.50
  -4   0   2  270.97    7.50
  -4   0   2  263.57    8.00
  -4   0   2  278.27    9.20
   3   0  -2  220.28    4.60
   3   0  -2  243.28    7.10
  -3   0   2  234.88    6.60
  -3   0   2  228.68    6.80
  -3   0   2  235.88    8.50
  -3   0   2  245.48    7.80
  -3   0   2  237.58    6.30
   2   0  -2  178.18    3.80
   2   0  -2  186.38    5.30
  -2   0   2  187.18    4.70
  -2   0   2  184.88    5.80
  -2   0   2  189.88    5.00
  -2   0   2  188.88    6.20
  -2   0   2  189.08    5.10
   1   0  -2 2937.81   58.59
   1   0  -2 2841.82   55.89
   1   0  -2 2799.92   55.29
   1   0  -2 2955.50   55.79
  -1   0   2 2878.61   55.59
  -1   0   2 2882.61   55.09
  -1   0   2 2981.20   53.89
  -1   0   2 2838.02   54.09
  -1   0   2 2909.01   56.39
  -1   0   2 2851.01   56.69
   0   0  -2   49.40    1.90
   0   0  -2   51.29    1.60
   0   0  -2   52.19    1.60
   0   0  -2   52.39    1.70
   0   0  -2   50.19    1.70
   0   0   2   51.19    1.90
   0   0   2   52.59    1.70
   0   0   2   48.20    1.70
   0   0   2   52.79    1.80
  -1   0  -2 3080.09   60.09
  -1   0  -2 2981.80   59.49
  -1   0  -2 3064.29   59.39
  -1   0  -2 3057.69   59.39
  -1   0  -2 3077.69   59.99
  -1   0  -2 3066.09   58.79
  -1   0  -2 3107.39   57.69
   1   0   2 3091.09   57.99
   1   0   2 3056.39   60.59
   1   0   2 3155.08   60.79
   1   0   2 3069.79   58.99
   1   0   2 3092.29   58.19
   1   0   2 3048.60   60.09
  -2   0  -2  687.13   15.40
  -2   0  -2  698.23   13.90
  -2   0  -2  676.63   13.00
  -2   0  -2  714.13   16.10
  -2   0  -2  715.03   14.00
  -2   0  -2  696.63   14.80
  -2   0  -2  697.83   13.20
   2   0   2  691.93   15.90
   2   0   2  694.13   13.60
   2   0   2  731.23   15.80
   2   0   2  681.13   14.00
  -3   0  -2  161.08    5.60
  -3   0  -2  150.18    6.90
  -3   0  -2  147.99    4.40
  -3   0  -2  156.58    4.70
   3   0   2  170.68    7.10
   3   0   2  147.09    3.80
   3   0   2  148.69    4.80
   3   0   2  151.28    6.00
  -4   0  -2  403.86   11.30
  -4   0  -2  416.56   10.20
  -4   0  -2  411.16   13.40
  -4   0  -2  413.96   10.00
   4   0   2  376.66    8.70
   4   0   2  398.26   10.30
   4   0   2  412.26   13.60
   4   0   2  418.36   12.70
  -5   0  -2    3.80    1.80
  -5   0  -2    0.00    3.60
  -5   0  -2    3.80    2.50
  -5   0  -2    9.20    2.20
   5   0   2    2.30    4.40
   5   0   2    2.90    2.50
   5   0   2    2.30    2.60
  -6   0  -2  158.38    8.20
  -6   0  -2  136.69   10.20
  -6   0  -2  138.09    5.80
   6   0   2  137.89   10.80
   6   0   2  133.39    8.30
  -7   0  -2   14.20    3.00
  -7   0  -2   19.10    4.60
   7   0   2   10.50    5.40
   7  -1  -2    2.70    3.20
   7  -1  -2    3.80    3.80
  -7   1   2    0.30    2.00
  -7   1   2    0.60    2.00
   6  -1  -2  114.39    7.80
   6  -1  -2  112.39    8.80
   6  -1  -2  127.39    7.40
   6  -1  -2  119.79    7.80
  -6   1   2  116.19    6.00
  -6   1   2  113.59    7.10
  -6   1   2  105.79    7.90
  -6   1   2  113.39    5.90
   5  -1  -2   54.59    5.60
   5  -1  -2   63.59    5.50
   5  -1  -2   59.89    5.10
  -5   1   2   63.89    4.00
  -5   1   2   54.99    4.40
  -5   1   2   51.69    3.50
  -5   1   2   54.69    5.20
   4  -1  -2  275.67    8.80
   4  -1  -2  271.57    8.80
  -4   1   2  273.17   10.30
  -4   1   2  270.67    7.70
  -4   1   2  265.17    8.30
  -4   1   2  260.37    9.20
  -4   1   2  261.17    7.90
   3  -1  -2  549.25   13.10
   3  -1  -2  525.35   10.60
  -3   1   2  540.25   12.70
  -3   1   2  543.85   14.00
  -3   1   2  532.75   12.00
  -3   1   2  548.75   13.50
  -3   1   2  547.15   12.40
   2  -1  -2  156.48    3.70
   2  -1  -2  158.38    5.10
   2  -1  -2  158.28    5.00
  -2   1   2  174.08    5.80
  -2   1   2  175.28    5.40
  -2   1   2  177.58    4.50
  -2   1   2  164.68    4.70
  -2   1   2  173.88    4.90
   1  -1  -2  541.55   11.20
   1  -1  -2  527.55   11.20
   1  -1  -2  517.45   10.40
   1  -1  -2  525.35   11.30
  -1   1   2  525.05   10.70
  -1   1   2  530.65   10.50
  -1   1   2  538.45   10.30
  -1   1   2  519.45   11.00
   0  -1  -2   48.60    1.60
   0  -1  -2   53.29    1.70
   0  -1  -2   47.50    1.70
   0  -1  -2   46.70    1.90
   0  -1  -2   48.10    1.80
   0  -1  -2   48.30    1.90
   0   1   2   48.20    1.70
   0   1   2   47.60    1.60
   0   1   2   46.70    1.80
   0   1   2   52.39    1.70
   0   1   2   49.80    2.00
  -1  -1  -2  356.36    8.50
  -1  -1  -2  350.46    7.30
  -1  -1  -2  355.96    7.80
  -1  -1  -2  371.66    8.50
  -1  -1  -2  342.37    7.30
   1   1   2  363.46    7.00
   1   1   2  353.26    7.40
   1   1   2  369.46    8.50
   1   1   2  366.16    7.30
   1   1   2  360.46    7.60
  -2  -1  -2  620.24   13.10
  -2  -1  -2  599.64   14.60
  -2  -1  -2  614.44   11.60
  -2  -1  -2  598.84   12.20
   2   1   2  600.34   12.10
   2   1   2  618.94   12.90
   2   1   2  629.14   14.30
  -3  -1  -2  257.37    6.30
  -3  -1  -2  258.77    9.20
  -3  -1  -2  256.47    7.40
   3   1   2  263.67    8.60
   3   1   2  259.97    7.20
   3   1   2  252.27    5.80
  -4  -1  -2  113.39    4.20
  -4  -1  -2  102.89    4.90
  -4  -1  -2  103.09    6.40
   4   1   2  106.79    6.10
   4   1   2  108.39    3.30
   4   1   2  115.59    5.30
  -5  -1  -2   33.50    2.70
  -5  -1  -2   25.40    3.10
  -5  -1  -2   37.00    5.80
   5   1   2   26.00    4.70
   5   1   2   32.10    3.90
  -6  -1  -2   28.40    3.80
  -6  -1  -2   31.60    3.40
  -6  -1  -2   44.30    6.80
   6   1   2   43.50    6.40
   6   1   2   28.60    5.60
   6   1   2   35.60    4.60
  -7  -1  -2    2.80    4.10
  -7  -1  -2    1.60    2.40
   7   1   2  -10.30    5.60
   7  -2  -2   46.10    7.20
   7  -2  -2   48.60    6.60
  -7   2   2   62.99    4.90
  -7   2   2   64.59    5.70
   6  -2  -2   51.09    5.40
   6  -2  -2   52.09    6.00
   6  -2  -2   49.40    6.80
  -6   2   2   55.09    4.60
  -6   2   2   50.39    4.20
   5  -2  -2   89.49    6.90
   5  -2  -2   86.49    5.90
   5  -2  -2   81.99    6.30
   5  -2  -2   86.49    5.70
  -5   2   2   81.09    5.50
  -5   2   2   79.79    4.50
  -5   2   2   84.79    6.10
  -5   2   2   89.59    5.10
   4  -2  -2  235.78    8.50
   4  -2  -2  232.98    9.40
   4  -2  -2  225.28    7.90
   4  -2  -2  239.88    8.50
  -4   2   2  223.08    7.70
  -4   2   2  220.68    6.90
  -4   2   2  214.18    7.10
  -4   2   2  224.28    8.30
   3  -2  -2    3.20    1.60
   3  -2  -2    4.70    1.00
   3  -2  -2    0.70    2.60
  -3   2   2    4.70    1.70
  -3   2   2    7.20    2.00
  -3   2   2    2.80    1.20
  -3   2   2    5.00    1.60
   2  -2  -2  395.66    8.90
   2  -2  -2  405.56   10.30
   2  -2  -2  406.36   10.20
   2  -2  -2  381.86    8.50
  -2   2   2  395.76    8.90
  -2   2   2  391.16    7.70
  -2   2   2  404.96    9.20
  -2   2   2  397.36    9.60
  -2   2   2  396.86    9.40
   1  -2  -2   24.50    2.20
   1  -2  -2   22.30    1.40
   1  -2  -2   22.80    1.10
   1  -2  -2   23.60    2.10
  -1   2   2   23.00    1.80
  -1   2   2   22.90    1.40
  -1   2   2   23.00    1.40
  -1   2   2   21.80    1.50
   0  -2  -2  507.55   11.20
   0  -2  -2  516.05   10.40
   0  -2  -2  508.95   10.40
   0  -2  -2  499.85   10.90
   0  -2  -2  511.15   10.60
   0   2   2  517.25   10.50
   0   2   2  493.75   10.60
   0   2   2  517.35   10.40
   0   2   2  504.15   10.40
  -1  -2  -2    2.70    0.60
  -1  -2  -2    3.70    1.00
  -1  -2  -2    2.40    1.30
  -1  -2  -2    0.50    1.60
   1   2   2    3.30    0.60
   1   2   2    0.60    1.60
   1   2   2    2.90    1.00
   1   2   2    3.80    1.70
  -2  -2  -2  152.68    4.90
  -2  -2  -2  150.98    4.40
  -2  -2  -2  155.88    3.70
  -2  -2  -2  151.88    5.80
  -2  -2  -2  147.79    3.60
   2   2   2  151.98    3.80
   2   2   2  149.09    3.60
   2   2   2  156.98    4.00
   2   2   2  149.99    4.70
   2   2   2  157.48    5.70
  -3  -2  -2  254.17    9.50
  -3  -2  -2  262.67    7.40
  -3  -2  -2  255.87    7.70
   3   2   2  249.58    6.10
   3   2   2  263.87    7.70
   3   2   2  266.47    6.60
   3   2   2  260.97    9.20
  -4  -2  -2   14.10    3.40
  -4  -2  -2   20.50    2.70
   4   2   2   16.30    3.40
   4   2   2   15.80    1.60
   4   2   2   18.00    2.30
   4   2   2   19.70    3.40
  -5  -2  -2   86.39    5.00
  -5  -2  -2   84.79    7.70
   5   2   2   91.59    5.90
   5   2   2   91.69    5.00
   5   2   2   89.69    7.60
  -6  -2  -2    2.70    2.10
  -6  -2  -2    6.20    5.00
   6   2   2   -3.20    2.70
   6   2   2   -1.10    3.30
  -7  -2  -2   56.19    5.60
  -7  -2  -2   81.39    9.70
   7   2   2   55.69    9.40
   7  -3  -2   87.79    9.60
   7  -3  -2   71.69    7.50
  -7   3   2   80.59    6.40
  -7   3   2   78.79    6.00
   6  -3  -2    4.20    4.80
   6  -3  -2    2.20    3.80
   6  -3  -2    5.00    3.50
  -6   3   2   -0.60    2.40
  -6   3   2    1.30    1.80
   5  -3  -2  193.08    9.60
   5  -3  -2  194.68    9.10
   5  -3  -2  184.08    8.80
  -5   3   2  202.68    7.00
  -5   3   2  180.08    7.50
  -5   3   2  203.18    7.80
   4  -3  -2  161.58    7.30
   4  -3  -2  175.58    8.80
   4  -3  -2  174.58    6.20
  -4   3   2  173.58    7.00
  -4   3   2  176.38    6.00
  -4   3   2  182.28    6.60
  -4   3   2  170.38    6.80
   3  -3  -2  346.07    9.20
   3  -3  -2  342.47    8.30
   3  -3  -2  354.46    8.50
   3  -3  -2  351.96   11.30
  -3   3   2  341.07    9.40
  -3   3   2  355.06    9.30
  -3   3   2  349.77    9.50
  -3   3   2  364.46    9.00
   2  -3  -2  317.07    7.20
   2  -3  -2  326.07    7.70
   2  -3  -2  325.17    9.60
   2  -3  -2  322.47    6.70
   2  -3  -2  334.67    9.30
  -2   3   2  333.87    8.10
  -2   3   2  310.97    7.90
  -2   3   2  302.87    7.00
  -2   3   2  326.07    7.60
  -2   3   2  320.67    7.10
   1  -3  -2  130.69    4.60
   1  -3  -2  131.59    4.10
   1  -3  -2  120.99    5.20
  -1   3   2  125.59    3.80
  -1   3   2  122.79    3.30
  -1   3   2  123.49    3.90
   0  -3  -2   13.90    1.50
   0  -3  -2   15.00    1.70
   0  -3  -2   13.30    1.20
   0  -3  -2   12.10    2.30
   0   3   2   12.30    1.90
   0   3   2   12.00    1.20
   0   3   2   13.30    1.60
  -1  -3  -2  215.88    4.50
  -1  -3  -2  222.08    6.30
  -1  -3  -2  207.48    5.50
  -1  -3  -2  213.98    5.80
   1   3   2  209.38    4.90
   1   3   2  213.68    5.50
   1   3   2  216.18    6.00
   1   3   2  202.58    6.20
  -2  -3  -2  801.22   16.80
  -2  -3  -2  807.32   18.70
  -2  -3  -2  796.72   16.30
  -2  -3  -2  788.32   15.90
   2   3   2  771.02   15.50
   2   3   2  810.42   18.30
   2   3   2  791.72   14.90
   2   3   2  777.82   16.10
   2   3   2  799.02   17.00
  -3  -3  -2   57.19    1.80
  -3  -3  -2   63.29    3.30
  -3  -3  -2   68.09    4.00
  -3  -3  -2   57.39    5.10
   3   3   2   57.39    4.30
   3   3   2   56.59    2.60
   3   3   2   58.79    4.90
   3   3   2   55.59    2.60
  -4  -3  -2   58.99    6.40
  -4  -3  -2   66.99    4.90
  -4  -3  -2   67.59    3.80
   4   3   2   61.99    2.80
   4   3   2   74.49    5.50
   4   3   2   61.29    3.40
   4   3   2   65.39    6.20
  -5  -3  -2   98.19    5.70
  -5  -3  -2  105.79    8.40
   5   3   2  104.99    6.60
   5   3   2  104.99    8.50
   5   3   2   88.29    4.20
  -6  -3  -2   30.90    5.70
  -6  -3  -2   38.10    4.50
   6   3   2   19.40    4.80
   6   3   2   42.70    6.70
  -7  -3  -2   42.20    8.60
  -7  -3  -2   53.69    5.70
   7   3   2   39.50    6.00
   7   3   2   39.40    8.30
   7  -4  -2    4.60    5.00
   7  -4  -2   18.00    6.80
  -7   4   2   11.60    3.50
  -7   4   2    2.70    3.20
   6  -4  -2   56.79    7.10
   6  -4  -2   63.59    7.20
  -6   4   2   57.19    5.00
  -6   4   2   58.19    5.30
   5  -4  -2  241.68   10.10
   5  -4  -2  237.78   10.50
   5  -4  -2  284.17   12.90
  -5   4   2  237.28    8.90
  -5   4   2  238.18    8.10
   4  -4  -2  155.18    9.00
   4  -4  -2  147.69    7.90
  -4   4   2  149.59    6.40
  -4   4   2  140.59    5.50
  -4   4   2  151.68    6.20
   3  -4  -2  478.45   11.20
   3  -4  -2  468.65   10.80
   3  -4  -2  461.75   13.40
   3  -4  -2  485.75   14.60
   3  -4  -2  453.95    9.60
  -3   4   2  480.35   11.70
  -3   4   2  487.85   11.80
  -3   4   2  420.46    9.10
  -3   4   2  478.05   11.30
  -3   4   2  464.95    9.20
  -3   4   2  462.55   11.50
   2  -4  -2   92.99    5.10
   2  -4  -2   80.89    2.50
   2  -4  -2   82.59    5.00
   2  -4  -2   84.29    3.70
  -2   4   2   82.79    3.20
  -2   4   2   86.49    3.50
  -2   4   2   80.39    3.20
  -2   4   2   82.89    3.20
   1  -4  -2  129.19    5.90
   1  -4  -2  115.19    4.70
   1  -4  -2  124.49    4.50
  -1   4   2  115.59    3.20
  -1   4   2  116.49    3.90
  -1   4   2  120.99    4.20
   0  -4  -2  304.77    7.70
   0  -4  -2  304.47    8.80
   0  -4  -2  299.27    7.90
   0   4   2  311.57    7.20
   0   4   2  305.87    7.70
   0   4   2  289.37    7.50
  -1  -4  -2  135.79    5.30
  -1  -4  -2  145.39    4.80
  -1  -4  -2  134.09    4.60
  -1  -4  -2  134.89    3.30
   1   4   2  138.39    4.60
   1   4   2  136.29    4.10
   1   4   2  133.29    5.00
   1   4   2  131.19    4.90
  -2  -4  -2  804.42   16.50
  -2  -4  -2  818.12   17.20
  -2  -4  -2  821.02   18.60
  -2  -4  -2  840.12   17.00
  -2  -4  -2  824.12   17.00
   2   4   2  821.02   17.90
   2   4   2  822.12   17.20
   2   4   2  814.32   19.00
   2   4   2  787.22   16.30
  -3  -4  -2   19.60    4.30
  -3  -4  -2   16.80    1.50
  -3  -4  -2   18.00    2.00
  -3  -4  -2   21.70    2.40
   3   4   2   20.30    2.90
   3   4   2   17.30    0.60
   3   4   2   22.20    2.20
   3   4   2   19.30    3.60
   3   4   2   18.60    0.70
   3   4   2   16.90    2.00
  -4  -4  -2  108.29    4.90
  -4  -4  -2  104.79    5.80
  -4  -4  -2   91.99    6.70
   4   4   2   99.59    4.20
   4   4   2  100.99    4.20
   4   4   2  112.89    5.70
   4   4   2   99.39    3.20
   4   4   2   96.89    7.60
  -5  -4  -2   28.50    3.20
  -5  -4  -2   27.60    5.70
   5   4   2   25.80    3.90
   5   4   2   31.10    5.60
  -6  -4  -2   98.49    5.80
  -6  -4  -2  103.89   10.10
   6   4   2   93.19    6.80
   6   4   2  114.59    9.90
  -7  -4  -2    4.40    3.40
  -7  -4  -2    4.80    6.00
   7   4   2   -0.70    4.60
   6  -5  -2   74.69    9.10
   6  -5  -2   81.09    8.60
  -6   5   2   67.99    5.20
  -6   5   2   82.09    6.30
   5  -5  -2    8.80    5.30
   5  -5  -2    9.90    2.90
   5  -5  -2    7.00    4.10
  -5   5   2    9.40    2.80
  -5   5   2    9.30    2.60
   4  -5  -2  385.26   13.60
   4  -5  -2  375.76   14.00
  -4   5   2  398.66   11.40
  -4   5   2  395.36   10.90
   3  -5  -2   33.10    5.10
   3  -5  -2   32.00    3.00
   3  -5  -2   27.50    3.60
  -3   5   2   26.80    2.60
  -3   5   2   28.60    2.10
  -3   5   2   33.30    2.90
   2  -5  -2   16.10    2.10
   2  -5  -2   13.20    3.10
   2  -5  -2   13.70    3.90
   2  -5  -2   12.10    1.10
  -2   5   2   16.70    1.80
  -2   5   2   11.80    1.90
   1  -5  -2  242.18    8.00
   1  -5  -2  234.08    8.40
   1  -5  -2  235.38    7.30
  -1   5   2  244.38    6.90
  -1   5   2  245.18    7.00
   0  -5  -2   37.70    3.50
   0  -5  -2   42.20    3.20
   0  -5  -2   34.90    2.80
   0   5   2   38.30    3.20
   0   5   2   43.50    3.00
   0   5   2   38.40    2.30
  -1  -5  -2  101.09    2.90
  -1  -5  -2  104.49    4.50
  -1  -5  -2  100.29    5.00
  -1  -5  -2   94.59    4.00
   1   5   2  101.19    4.30
   1   5   2   92.69    3.80
   1   5   2   95.09    4.20
  -2  -5  -2  380.66    9.60
  -2  -5  -2  400.76    9.60
  -2  -5  -2  378.76    8.50
  -2  -5  -2  399.26   11.20
  -2  -5  -2  381.46    9.30
   2   5   2  380.56    9.80
   2   5   2  386.06   10.60
   2   5   2  374.16    8.90
  -3  -5  -2  170.38    5.30
  -3  -5  -2  176.38    6.40
  -3  -5  -2  178.08    5.30
  -3  -5  -2  177.38    9.10
   3   5   2  169.38    5.80
   3   5   2  169.48    7.70
   3   5   2  180.78    7.00
   3   5   2  174.38    5.30
  -4  -5  -2   61.59    2.10
  -4  -5  -2   52.99    3.70
  -4  -5  -2   55.79    4.20
  -4  -5  -2   60.79    6.90
   4   5   2   72.59    6.80
   4   5   2   59.29    5.60
   4   5   2   37.60    3.70
   4   5   2   52.79    3.50
  -5  -5  -2   55.59    3.90
  -5  -5  -2   50.59    7.20
   5   5   2   62.19    7.40
   5   5   2   53.59    6.10
  -6  -5  -2   33.80    4.10
  -6  -5  -2   33.30    7.10
   6   5   2   42.30    5.50
  -7  -5  -2   10.50    3.60
  -7  -5  -2   20.20    7.30
   7   5   2   12.60    5.70
   6  -6  -2   22.70    7.10
   6  -6  -2   22.20    6.00
  -6   6   2   18.20    3.90
  -6   6   2   19.80    3.30
   5  -6  -2  102.49    9.10
   5  -6  -2  118.69    9.60
  -5   6   2  118.09    6.70
  -5   6   2  126.59    6.00
   4  -6  -2  231.08   11.10
   4  -6  -2  234.38   12.20
  -4   6   2  249.78    8.10
  -4   6   2  238.48    8.70
   3  -6  -2   55.99    5.70
   3  -6  -2   52.49    4.20
   3  -6  -2   49.10    6.20
  -3   6   2   48.10    3.20
  -3   6   2   56.49    4.10
  -3   6   2   55.79    3.70
   2  -6  -2  194.48    9.40
   2  -6  -2  188.88    7.70
   2  -6  -2  181.38    6.90
  -2   6   2  180.58    6.10
  -2   6   2  183.58    6.20
  -2   6   2  185.98    5.80
   1  -6  -2  340.37   10.50
   1  -6  -2  337.37    9.70
   1  -6  -2  330.27   11.60
  -1   6   2  342.87    9.10
  -1   6   2  334.97    9.20
   0  -6  -2  412.66   12.60
   0  -6  -2  376.16   10.70
   0  -6  -2  403.76   10.80
   0   6   2  378.86   10.30
   0   6   2  386.16    9.50
   0   6   2  396.76   10.30
  -1  -6  -2  179.48    6.20
  -1  -6  -2  175.38    7.30
  -1  -6  -2  179.28    6.30
  -1  -6  -2  175.78    4.70
   1   6   2  178.98    6.10
   1   6   2  181.68    6.80
  -2  -6  -2    1.30    0.70
  -2  -6  -2   -2.50    1.70
  -2  -6  -2    1.30    1.70
  -2  -6  -2    1.00    3.10
   2   6   2   -2.90    1.80
   2   6   2    0.30    1.40
   2   6   2    2.50    3.10
  -3  -6  -2  895.71   18.80
  -3  -6  -2  862.61   19.40
   3   6   2  846.52   21.90
   3   6   2  856.31   19.20
   3   6   2  866.71   20.70
  -4  -6  -2    1.00    3.00
  -4  -6  -2   -1.50    2.20
  -4  -6  -2    0.10    1.30
  -4  -6  -2   -0.70    1.20
   4   6   2    4.70    3.90
   4   6   2    0.10    1.30
   4   6   2    0.80    3.80
  -5  -6  -2   56.49    4.20
  -5  -6  -2   50.59    7.60
   5   6   2   57.89    5.80
   5   6   2   52.59    6.40
  -6  -6  -2    4.30    2.40
  -6  -6  -2   14.30    6.30
   6   6   2    6.60    5.30
  -7  -6  -2   25.40    7.60
   7   6   2   17.70    6.30
   6  -7  -2   25.10    8.00
   6  -7  -2   15.70    5.60
  -6   7   2   23.10    4.20
  -6   7   2   27.80    3.80
   5  -7  -2   25.70    5.90
   5  -7  -2   35.40    5.50
  -5   7   2   31.60    3.70
  -5   7   2   32.30    4.40
   4  -7  -2   16.50    5.70
   4  -7  -2    8.50    4.60
  -4   7   2    5.70    2.00
  -4   7   2    6.50    2.60
   3  -7  -2  136.19    8.70
   3  -7  -2  142.49    6.70
   3  -7  -2  148.79    8.00
  -3   7   2  150.58    6.30
  -3   7   2  148.29    5.70
  -3   7   2  157.48    6.20
   2  -7  -2   19.00    4.90
   2  -7  -2   25.20    3.40
   2  -7  -2   19.50    3.90
  -2   7   2   16.90    2.60
  -2   7   2   17.20    2.80
   1  -7  -2   86.19    7.10
   1  -7  -2   86.39    5.20
   1  -7  -2   84.79    5.90
  -1   7   2   78.49    4.30
  -1   7   2   84.99    4.90
   0  -7  -2  174.28    8.90
   0  -7  -2  176.18    7.30
   0  -7  -2  173.98    7.00
   0   7   2  170.58    5.60
   0   7   2  169.98    6.30
   0   7   2  176.88    6.30
  -1  -7  -2    4.10    2.60
  -1  -7  -2    3.20    2.30
  -1  -7  -2    6.00    1.90
  -1  -7  -2    3.70    1.00
   1   7   2    1.00    2.20
   1   7   2    2.90    3.00
   1   7   2    4.70    2.20
  -2  -7  -2  306.07    9.20
  -2  -7  -2  281.17    6.10
  -2  -7  -2  290.97   10.40
   2   7   2  292.27    9.10
   2   7   2  283.87    8.30
   2   7   2  299.57    9.80
  -3  -7  -2  159.28    6.20
  -3  -7  -2  158.38    4.70
   3   7   2  166.18    5.70
   3   7   2  168.88    6.80
   3   7   2  168.68    8.10
   3   7   2  181.28    8.40
  -4  -7  -2  156.18   10.90
  -4  -7  -2  166.68    5.60
   4   7   2  149.69    9.80
   4   7   2  152.98    6.70
   4   7   2  145.89    7.70
  -5  -7  -2    4.60    5.20
   5   7   2   -0.20    3.50
   5   7   2    7.00    4.90
  -6  -7  -2    7.60    4.90
   6   7   2   12.60    6.10
  -7  -7  -2   30.20    7.10
   7   7   2   30.30    7.40
   5  -8  -2   18.00    5.90
   5  -8  -2   21.30    5.90
  -5   8   2   24.90    4.00
  -5   8   2   25.20    4.20
   4  -8  -2   41.70    5.60
   4  -8  -2   43.50    7.70
  -4   8   2   46.50    4.70
  -4   8   2   34.00    4.00
   3  -8  -2  295.57   10.30
   3  -8  -2  283.17   12.90
   3  -8  -2  301.57   12.80
  -3   8   2  330.97    9.70
  -3   8   2  314.27   10.40
  -3   8   2  322.17    9.20
   2  -8  -2    5.50    4.90
   2  -8  -2    4.70    3.50
   2  -8  -2    3.80    2.70
  -2   8   2    8.40    2.30
  -2   8   2    8.70    2.90
   1  -8  -2  128.39    6.50
   1  -8  -2  110.09    8.50
   1  -8  -2  106.69    6.90
  -1   8   2  120.19    5.80
  -1   8   2  115.99    6.10
   0  -8  -2  224.58   10.60
   0  -8  -2  224.78    8.60
   0  -8  -2  220.38    8.60
   0   8   2  217.98    8.10
   0   8   2  226.88    7.00
   0   8   2  225.58    8.30
  -1  -8  -2  284.97    9.50
  -1  -8  -2  294.37   10.90
  -1  -8  -2  296.77    7.60
  -1  -8  -2  298.37    9.80
   1   8   2  288.67    9.30
   1   8   2  288.37    9.50
   1   8   2  310.37   10.10
  -2  -8  -2  245.68    8.50
  -2  -8  -2  246.78   10.70
  -2  -8  -2  234.38    7.80
   2   8   2  260.67    9.00
   2   8   2  237.68    9.10
   2   8   2  252.47    8.80
  -3  -8  -2   36.00    4.70
  -3  -8  -2   31.20    3.70
   3   8   2   38.70    5.50
   3   8   2   41.60    5.30
   3   8   2   38.60    4.30
   3   8   2   32.40    3.20
  -4  -8  -2  224.78    7.30
  -4  -8  -2  213.38   12.00
   4   8   2  221.38   10.70
   4   8   2  213.58    8.50
   4   8   2  226.98   11.90
  -5  -8  -2    4.10    4.30
   5   8   2    0.40    3.60
  -6  -8  -2   25.00    8.20
   6   8   2   29.60    5.60
   5  -9  -2   -0.80    5.20
   5  -9  -2   -2.70    4.40
  -5   9   2   -1.80    2.10
  -5   9   2   -0.90    2.90
   4  -9  -2   11.50    6.90
   4  -9  -2   30.30    6.30
  -4   9   2   25.20    3.40
  -4   9   2   35.80    4.50
   3  -9  -2   33.60    4.80
   3  -9  -2   31.30    6.00
   3  -9  -2   28.00    5.70
  -3   9   2   37.70    4.20
  -3   9   2   35.70    4.00
  -3   9   2   29.00    3.90
   2  -9  -2   24.00    3.60
   2  -9  -2   26.80    5.10
   2  -9  -2   28.60    4.50
  -2   9   2   20.80    3.60
  -2   9   2   21.00    3.20
   1  -9  -2    1.80    3.00
   1  -9  -2    5.10    3.50
   1  -9  -2    3.30    3.40
  -1   9   2   -1.80    2.50
  -1   9   2    4.70    3.00
   0  -9  -2   18.70    5.20
   0  -9  -2   12.60    2.20
   0  -9  -2   11.00    2.70
   0  -9  -2   17.50    3.60
   0   9   2   14.20    3.90
   0   9   2   21.60    3.70
  -1  -9  -2  220.78    8.90
  -1  -9  -2  201.68    8.30
  -1  -9  -2  220.18   10.70
   1   9   2  201.98    7.90
   1   9   2  210.58    8.10
   1   9   2  204.68    8.80
  -2  -9  -2    4.00    2.20
  -2  -9  -2    3.60    2.90
  -2  -9  -2    1.10    2.20
   2   9   2    1.60    2.90
   2   9   2    4.50    4.20
   2   9   2    6.90    2.40
  -3  -9  -2   72.09    5.50
  -3  -9  -2   64.89    6.20
   3   9   2   69.19    5.90
   3   9   2   72.29    5.80
   3   9   2   63.69    6.40
  -4  -9  -2   36.20    3.70
  -4  -9  -2   48.30    7.40
   4   9   2   41.80    4.70
   4   9   2   44.10    6.50
   4   9   2   48.50    6.50
  -5  -9  -2   25.20    6.90
   5   9   2   39.50    6.90
  -6  -9  -2    0.30    6.90
   6   9   2    2.10    5.90
   4 -10  -2   42.50    7.30
   4 -10  -2   26.10    7.80
  -4  10   2   44.00    4.90
  -4  10   2   36.10    4.80
   3 -10  -2   16.90    4.40
   3 -10  -2   18.90    5.40
   3 -10  -2   22.60    4.80
  -3  10   2   16.40    3.60
  -3  10   2   22.60    3.80
  -3  10   2   18.00    3.30
   2 -10  -2   80.59    6.30
   2 -10  -2   80.69    6.90
   2 -10  -2   66.79    6.90
   2 -10  -2   79.19    8.20
  -2  10   2   81.09    6.10
   1 -10  -2    4.10    2.30
   1 -10  -2    4.30    3.60
   1 -10  -2    5.70    3.40
   1 -10  -2    1.90    5.20
  -1  10   2    7.30    3.00
  -1  10   2    2.00    3.30
   0 -10  -2  117.49    9.70
   0 -10  -2  109.09    7.20
   0 -10  -2  113.19    6.80
   0  10   2  108.09    7.10
   0  10   2  111.39    7.10
  -1 -10  -2   10.60    3.60
  -1 -10  -2   13.50    4.10
  -1 -10  -2    9.60    3.30
   1  10   2    8.60    4.30
   1  10   2   12.60    3.80
  -2 -10  -2  103.59    7.80
  -2 -10  -2   97.59    7.00
   2  10   2   97.59    7.90
   2  10   2  109.69    7.10
   2  10   2  113.89    7.30
  -3 -10  -2   42.60    4.90
  -3 -10  -2   49.00    6.80
   3  10   2   55.79    6.40
   3  10   2   49.00    5.40
   3  10   2   45.30    6.40
  -4 -10  -2   16.60    7.10
  -4 -10  -2   14.10    3.70
   4  10   2   21.90    4.60
   4  10   2   14.40    4.10
   4  10   2   16.00    4.70
  -5 -10  -2   55.29   10.40
   5  10   2   55.29    8.10
  -6 -10  -2    2.10    7.70
   6  10   2   -5.90    3.70
   3 -11  -2   17.70    7.50
   3 -11  -2   20.70    5.00
   3 -11  -2   19.50    6.00
  -3  11   2   28.60    4.40
  -3  11   2   26.60    3.60
   2 -11  -2   65.49    7.50
   2 -11  -2   50.69    5.80
   2 -11  -2   69.89    7.10
   2 -11  -2   56.19    9.00
  -2  11   2   63.89    5.30
  -2  11   2   59.99    5.70
   1 -11  -2   32.40    5.40
   1 -11  -2   27.80    5.20
   1 -11  -2   24.70    5.70
  -1  11   2   24.50    4.70
   0 -11  -2   17.20    3.80
   0 -11  -2    8.70    3.80
   0 -11  -2   19.80    6.50
   0  11   2    8.30    3.20
   0  11   2   13.60    4.30
  -1 -11  -2   29.00    4.30
  -1 -11  -2   35.00    6.70
   1  11   2   24.30    4.30
   1  11   2   32.20    4.40
  -2 -11  -2   67.59    6.30
  -2 -11  -2   74.99    8.40
   2  11   2   75.49    7.40
   2  11   2   60.49    6.40
  -3 -11  -2   13.20    5.80
  -3 -11  -2    8.90    3.80
   3  11   2   14.60    4.40
   3  11   2   25.40    5.10
   3  11   2    4.90    5.50
  -4 -11  -2   34.50    4.20
  -4 -11  -2   32.10    9.10
   4  11   2   42.70    5.70
   4  11   2   39.40    7.20
  -5 -11  -2   -1.90    7.80
   5  11   2    7.40    4.70
   2 -12  -2   -0.80    4.10
   2 -12  -2   -7.90    4.10
   2 -12  -2    0.30    4.70
  -2  12   2   -1.80    3.60
  -2  12   2   -3.50    2.80
   1 -12  -2   21.40    4.40
   1 -12  -2   31.80    4.90
   1 -12  -2   24.90    7.50
  -1  12   2   30.70    5.30
   0 -12  -2   -0.40    5.80
   0 -12  -2    0.00    2.90
   0  12   2   -2.30    3.90
   0  12   2   -0.10    4.10
  -1 -12  -2    7.20    3.50
  -1 -12  -2    8.80    6.10
   1  12   2   10.00    3.40
   1  12   2   13.20    5.30
  -2 -12  -2    9.30    4.50
  -2 -12  -2   17.60    4.50
   2  12   2   12.10    4.60
   2  12   2    9.50    4.20
  -3 -12  -2   17.90    4.60
  -3 -12  -2    6.50    4.30
   3  12   2   10.30    5.90
   3  12   2   10.20    4.70
  -4 -12  -2    7.70    3.40
  -4 -12  -2    4.60    6.20
   4  12   2    2.40    6.10
   4  12   2    8.60    4.30
   1 -13  -2   17.90    5.50
   1 -13  -2    3.20    4.90
  -1  13   2   15.00    4.70
   0 -13  -2   20.40    5.50
   0 -13  -2    2.50    4.60
   0  13   2    7.20    4.50
  -1 -13  -2    6.70    3.70
  -1 -13  -2    5.00    6.20
   1  13   2    5.80    4.80
   1  13   2   12.00    5.50
  -2 -13  -2    9.50    6.30
  -2 -13  -2    3.10    4.20
   2  13   2   11.80    4.50
   2  13   2    4.30    4.60
  -3 -13  -2   28.20    7.00
   3  13   2   23.20    6.80
   3  13   2   25.00    5.70
   1  13  -3   15.70    5.40
  -1 -13   3    5.30    4.00
   0  13  -3   21.40    5.40
   0 -13   3   11.70    4.90
   0 -13   3   19.80    5.80
   3  12  -3   15.40    6.10
   3  12  -3   20.50    5.20
  -3 -12   3   22.80    4.10
   2  12  -3    7.40    3.80
   2  12  -3   12.30    4.60
   2  12  -3   11.70    4.50
  -2 -12   3    1.40    5.60
  -2 -12   3    6.20    4.40
   1  12  -3    2.00    4.20
  -1 -12   3    9.00    4.70
  -1 -12   3    4.80    5.10
   0  12  -3   18.20    5.20
   0 -12   3   14.30    4.30
   0 -12   3   -1.80    5.50
  -1  12  -3   18.10    4.80
   1 -12   3   10.90    3.90
   1 -12   3   14.70    7.00
  -2  12  -3   13.00    4.20
   2 -12   3    8.80    5.20
   2 -12   3    7.60    7.10
   4  11  -3   25.10    4.30
   4  11  -3   14.10    6.50
  -4 -11   3   18.40    6.20
   3  11  -3    4.90    5.40
   3  11  -3    5.50    3.10
   3  11  -3   15.40    3.70
  -3 -11   3    7.00    3.80
   2  11  -3   12.10    4.30
   2  11  -3    7.50    4.10
   2  11  -3    6.10    4.80
  -2 -11   3    1.60    3.10
  -2 -11   3    8.40    3.20
   1  11  -3    8.40    4.00
   1  11  -3    4.50    4.00
   1  11  -3    4.00    4.20
  -1 -11   3    7.20    4.50
  -1 -11   3   -1.00    4.50
   0  11  -3   -0.50    3.70
   0 -11   3   -1.20    4.10
   0 -11   3    5.40    5.40
  -1  11  -3   65.49    6.50
   1 -11   3   50.59    7.30
   1 -11   3   64.39    6.70
  -2  11  -3    8.30    3.80
   2 -11   3    3.10    4.00
   2 -11   3    1.80    4.10
   2 -11   3    0.20    4.40
  -3  11  -3   16.60    4.10
  -3  11  -3   20.00    3.60
   3 -11   3   29.70    5.90
   3 -11   3   26.70    8.30
   3 -11   3   20.20    4.50
   5  10  -3   20.80    7.10
  -5 -10   3    5.70    5.20
   4  10  -3   33.60    5.10
   4  10  -3   21.40    5.10
  -4 -10   3   20.70    7.40
   3  10  -3    1.40    3.90
   3  10  -3   -0.40    5.00
   3  10  -3    2.70    3.70
  -3 -10   3    2.50    3.90
  -3 -10   3    2.90    3.20
   2  10  -3   19.80    4.90
   2  10  -3   19.20    5.00
   2  10  -3   19.20    3.60
  -2 -10   3   26.40    5.10
  -2 -10   3   24.40    4.40
   1  10  -3   10.40    4.00
   1  10  -3   17.30    4.50
   1  10  -3   20.10    4.30
  -1 -10   3   19.10    4.40
  -1 -10   3   12.00    4.00
   0  10  -3   17.30    4.10
   0 -10   3    5.60    3.80
   0 -10   3   16.00    4.30
  -1  10  -3   28.20    4.00
   1 -10   3   29.50    4.30
   1 -10   3   31.50    5.80
   1 -10   3   47.20    5.60
  -2  10  -3    9.90    2.80
  -2  10  -3    6.40    3.40
   2 -10   3    0.60    3.60
   2 -10   3    1.50    4.40
   2 -10   3    3.80    3.70
  -3  10  -3   24.50    4.20
  -3  10  -3   25.70    3.90
   3 -10   3   22.20    5.70
   3 -10   3   29.10    5.60
   3 -10   3   19.90    4.80
  -4  10  -3   -1.80    2.10
   4 -10   3    1.20    4.80
   4 -10   3   -5.30    4.10
   6   9  -3   -0.20    6.10
  -6  -9   3    3.10    6.50
  -6  -9   3   -6.20    3.50
   5   9  -3   58.09    8.10
  -5  -9   3   47.80    5.70
  -5  -9   3   47.40    9.10
   4   9  -3   -0.40    5.00
   4   9  -3    4.80    3.30
   4   9  -3    0.80    4.20
  -4  -9   3   -1.90    3.90
  -4  -9   3   -0.30    2.70
  -4  -9   3    0.80    2.30
   3   9  -3   32.90    5.80
   3   9  -3   27.00    5.00
   3   9  -3   28.50    4.30
  -3  -9   3   24.30    4.30
  -3  -9   3   19.70    3.20
   2   9  -3   62.89    5.60
   2   9  -3   70.09    5.20
   2   9  -3   67.49    6.50
  -2  -9   3   78.59    6.10
  -2  -9   3   67.79    5.70
   1   9  -3    9.70    3.50
   1   9  -3    9.60    3.50
   1   9  -3    5.30    3.60
  -1  -9   3    7.10    2.60
  -1  -9   3    8.40    3.30
   0   9  -3   39.30    4.70
   0   9  -3   40.10    4.80
   0   9  -3   35.70    3.80
   0  -9   3   36.10    4.80
   0  -9   3   39.50    6.00
   0  -9   3   35.70    3.70
  -1   9  -3   42.70    4.30
   1  -9   3   31.80    6.20
   1  -9   3   30.20    4.20
   1  -9   3   40.10    4.40
  -2   9  -3  131.39    7.10
   2  -9   3  135.99    8.20
   2  -9   3  136.29   10.70
   2  -9   3  119.39    7.80
  -3   9  -3    8.90    2.60
  -3   9  -3   10.20    2.70
  -3   9  -3    9.50    2.90
   3  -9   3   10.00    4.00
   3  -9   3   15.00    4.60
   3  -9   3   14.20    6.60
  -4   9  -3   30.20    3.90
   4  -9   3   17.70    5.50
   4  -9   3   34.20    8.20
   6   8  -3   42.60    7.60
  -6  -8   3   51.89    6.60
  -6  -8   3   44.20    8.90
   5   8  -3   31.20    6.70
  -5  -8   3   39.80    8.10
  -5  -8   3   25.30    4.70
   4   8  -3   18.40    5.50
   4   8  -3   17.10    5.10
   4   8  -3   15.30    3.30
  -4  -8   3   17.40    3.70
  -4  -8   3   14.60    6.10
  -4  -8   3   20.00    3.00
   3   8  -3   90.29    7.20
   3   8  -3   96.59    6.90
   3   8  -3   91.89    5.80
  -3  -8   3  107.69    5.90
  -3  -8   3   96.59    5.90
  -3  -8   3   99.59    6.40
   2   8  -3   39.50    5.10
   2   8  -3   47.60    4.60
   2   8  -3   57.99    5.80
  -2  -8   3   45.80    4.60
  -2  -8   3   43.50    4.20
  -2  -8   3   45.00    3.70
   1   8  -3   71.39    5.60
   1   8  -3   77.09    5.60
   1   8  -3   79.99    5.30
  -1  -8   3   72.79    4.10
  -1  -8   3   71.89    5.70
  -1  -8   3   82.39    5.70
   0   8  -3   52.49    4.30
   0   8  -3   52.19    4.90
   0   8  -3   58.69    4.70
   0  -8   3   59.99    5.10
   0  -8   3   64.09    4.20
   0  -8   3   74.19    6.90
  -1   8  -3   32.40    3.90
   1  -8   3   21.50    5.20
   1  -8   3   25.90    3.50
   1  -8   3   29.50    3.70
   1  -8   3   31.80    3.80
  -2   8  -3  270.37    9.20
   2  -8   3  260.77    9.40
   2  -8   3  276.97   10.50
   2  -8   3  290.97   10.90
   2  -8   3  291.77   13.30
  -3   8  -3    4.50    1.80
  -3   8  -3    4.10    2.30
  -3   8  -3    2.80    1.90
   3  -8   3    3.90    3.00
   3  -8   3    3.60    4.00
  -4   8  -3   28.20    3.50
   4  -8   3   25.00    5.90
  -5   8  -3   -0.60    2.90
   5  -8   3    4.10    3.70
   5  -8   3    2.60    4.80
   6   7  -3   18.90    5.00
  -6  -7   3    2.70    6.30
  -6  -7   3   15.50    4.80
   5   7  -3   -4.30    4.20
   5   7  -3    6.60    3.70
  -5  -7   3   -0.60    3.10
  -5  -7   3   -1.50    5.00
   4   7  -3   96.79    5.40
   4   7  -3  101.59    6.80
   4   7  -3   99.29    8.30
  -4  -7   3  110.39    7.00
  -4  -7   3  110.29    4.70
  -4  -7   3  106.79    9.30
   3   7  -3   59.19    4.00
   3   7  -3   66.39    6.20
   3   7  -3   65.69    6.50
  -3  -7   3   55.99    4.30
  -3  -7   3   63.39    5.00
   2   7  -3   35.00    4.60
   2   7  -3   31.20    4.20
   2   7  -3   33.20    3.70
  -2  -7   3   27.00    3.50
  -2  -7   3   33.30    3.30
  -2  -7   3   29.20    3.90
   1   7  -3  191.68    7.30
   1   7  -3  175.18    8.30
   1   7  -3  179.08    6.70
  -1  -7   3  178.08    6.00
  -1  -7   3  178.88    7.60
  -1  -7   3  180.78    7.30
  -1  -7   3  179.38    5.40
   0   7  -3   25.50    3.00
   0   7  -3   30.70    3.80
   0   7  -3   32.40    3.50
   0  -7   3   24.90    3.60
   0  -7   3   25.60    4.60
   0  -7   3   27.70    3.00
  -1   7  -3  344.77   11.50
  -1   7  -3  342.87   10.00
  -1   7  -3  355.86    8.20
   1  -7   3  353.26   10.70
   1  -7   3  360.46   11.10
   1  -7   3  354.76   12.40
  -2   7  -3  154.78    5.40
  -2   7  -3  157.18    6.10
   2  -7   3  161.48    7.30
   2  -7   3  161.08    9.80
   2  -7   3  164.38    7.10
  -3   7  -3  142.89    6.40
  -3   7  -3  143.79    5.70
  -3   7  -3  141.09    5.80
  -3   7  -3  158.48    6.00
   3  -7   3  143.79    7.20
   3  -7   3  172.68   10.80
   3  -7   3  142.29    7.00
  -4   7  -3   15.20    3.10
  -4   7  -3   11.60    2.30
  -4   7  -3    9.10    2.70
   4  -7   3    6.20    6.00
  -5   7  -3   21.70    3.30
  -5   7  -3   19.80    3.20
   5  -7   3   28.10    7.70
   7   6  -3   23.10    6.40
  -7  -6   3    8.60    5.30
  -7  -6   3    9.00    6.70
   6   6  -3    0.30    3.50
  -6  -6   3    2.30    4.20
  -6  -6   3    0.80    5.50
   5   6  -3   76.69    6.70
   5   6  -3   85.19    7.30
  -5  -6   3   68.09    6.10
  -5  -6   3   81.89    8.30
   4   6  -3   74.39    4.40
   4   6  -3   69.19    6.20
   4   6  -3   87.39    7.20
  -4  -6   3   76.59    8.10
  -4  -6   3   81.39    6.10
   3   6  -3   47.50    3.80
   3   6  -3   41.00    5.30
   3   6  -3   44.70    5.10
  -3  -6   3   40.10    5.90
  -3  -6   3   44.50    3.50
  -3  -6   3   43.70    4.20
   2   6  -3   80.19    7.10
   2   6  -3   72.09    4.50
   2   6  -3   67.99    5.40
  -2  -6   3   62.29    4.20
  -2  -6   3   65.79    2.90
  -2  -6   3   80.39    4.90
  -2  -6   3   72.99    4.30
   1   6  -3   70.69    4.30
   1   6  -3   62.99    6.00
   1   6  -3   72.39    4.80
  -1  -6   3   65.89    5.20
  -1  -6   3   66.99    3.50
  -1  -6   3   61.49    3.10
  -1  -6   3   66.49    4.40
  -1  -6   3   66.59    2.80
   0   6  -3  375.36   11.10
   0   6  -3  373.86    9.40
   0   6  -3  360.76    9.90
   0  -6   3  370.06   10.50
   0  -6   3  389.76   10.80
   0  -6   3  384.66   11.90
  -1   6  -3   81.79    3.10
  -1   6  -3   79.19    5.60
  -1   6  -3   78.89    4.50
  -1   6  -3   73.39    4.50
  -1   6  -3   75.29    3.20
   1  -6   3   91.19    6.90
   1  -6   3   80.49    4.40
   1  -6   3   78.99    4.90
  -2   6  -3  357.26    9.30
  -2   6  -3  363.86    9.90
  -2   6  -3  346.97    8.90
   2  -6   3  344.77   10.40
   2  -6   3  366.56   10.80
   2  -6   3  371.36   13.30
  -3   6  -3  334.87    9.70
  -3   6  -3  331.67    9.00
  -3   6  -3  340.67    9.80
  -3   6  -3  334.77    9.00
   3  -6   3  336.07   10.90
   3  -6   3  324.57   10.10
   3  -6   3  336.47   13.90
  -4   6  -3    5.40    1.50
  -4   6  -3    6.70    2.10
  -4   6  -3    4.30    2.30
   4  -6   3    3.30    3.40
   4  -6   3    9.10    4.00
  -5   6  -3   57.19    4.60
  -5   6  -3   56.29    5.00
  -5   6  -3   66.89    4.70
   5  -6   3   59.99    7.80
  -6   6  -3    3.90    2.70
  -6   6  -3    0.10    3.10
   6  -6   3   -5.60    6.10
   7   5  -3   14.90    4.50
  -7  -5   3   24.80    7.30
  -7  -5   3   12.30    5.50
   6   5  -3   -1.20    4.70
  -6  -5   3   -3.50    2.40
  -6  -5   3    5.80    5.20
   5   5  -3  120.99    8.30
   5   5  -3  117.69    7.30
  -5  -5   3  112.89    8.00
  -5  -5   3  117.99    8.70
   4   5  -3    0.30    2.50
   4   5  -3    2.20    3.10
   4   5  -3    5.30    1.80
  -4  -5   3    4.80    2.20
  -4  -5   3    1.80    3.00
   3   5  -3  179.18    7.50
   3   5  -3  186.38    7.90
   3   5  -3  178.28    5.00
   3   5  -3  172.58    5.90
  -3  -5   3  180.58    5.60
  -3  -5   3  175.98    7.20
  -3  -5   3  171.08    9.10
   2   5  -3  315.77    9.60
   2   5  -3  319.47    8.50
   2   5  -3  307.07   10.40
  -2  -5   3  298.77    7.40
  -2  -5   3  309.97    8.50
  -2  -5   3  292.87    8.60
  -2  -5   3  302.47    9.00
   1   5  -3  131.19    5.00
   1   5  -3  135.49    6.30
   1   5  -3  128.69    5.40
   1   5  -3  126.19    2.90
  -1  -5   3  122.19    3.50
  -1  -5   3  126.69    4.20
  -1  -5   3  133.09    5.30
  -1  -5   3  132.09    5.40
   0   5  -3 1509.35   29.10
   0   5  -3 1509.85   29.90
   0   5  -3 1490.55   31.10
   0   5  -3 1430.86   29.80
   0   5  -3 1477.35   27.90
   0  -5   3 1490.25   30.40
   0  -5   3 1495.25   31.10
   0  -5   3 1478.25   30.60
   0  -5   3 1405.66   29.30
  -1   5  -3    3.30    1.40
  -1   5  -3    1.50    2.40
  -1   5  -3    3.30    1.90
  -1   5  -3    4.80    2.20
  -1   5  -3    3.50    1.20
   1  -5   3    1.80    2.40
   1  -5   3    3.30    3.20
   1  -5   3    2.30    2.10
  -2   5  -3  827.02   18.90
  -2   5  -3  884.21   18.70
  -2   5  -3  877.01   18.70
  -2   5  -3  873.81   18.00
   2  -5   3  876.01   18.30
   2  -5   3  866.91   19.70
   2  -5   3  892.31   20.20
   2  -5   3  859.61   22.10
  -3   5  -3  349.17   10.10
  -3   5  -3  346.87    9.40
  -3   5  -3  351.96    8.70
  -3   5  -3  338.77    8.80
   3  -5   3  331.37    9.10
   3  -5   3  341.97   10.10
   3  -5   3  351.46   11.40
   3  -5   3  365.06   13.40
  -4   5  -3  135.79    5.90
  -4   5  -3  124.49    6.00
  -4   5  -3  141.99    5.50
   4  -5   3  143.79    8.90
   4  -5   3  125.19    7.80
  -5   5  -3   23.20    3.00
  -5   5  -3   22.60    2.90
  -5   5  -3   25.80    4.00
   5  -5   3   21.10    6.40
  -6   5  -3   25.80    3.90
  -6   5  -3   22.90    3.30
  -6   5  -3   39.00    5.00
   6  -5   3   35.20    6.70
   7   4  -3    9.90    5.40
  -7  -4   3   19.00    5.40
  -7  -4   3   15.00    5.10
   6   4  -3   31.20    5.70
   6   4  -3   21.80    4.30
  -6  -4   3   19.90    6.30
  -6  -4   3   27.20    4.50
   5   4  -3   15.30    4.30
   5   4  -3   14.40    3.60
  -5  -4   3   17.40    4.10
  -5  -4   3   14.90    5.10
   4   4  -3   86.09    5.80
   4   4  -3   83.09    3.80
   4   4  -3   72.49    3.40
  -4  -4   3   78.49    5.80
  -4  -4   3   97.39    7.60
   3   4  -3  176.88    5.40
   3   4  -3  174.98    6.90
   3   4  -3  173.38    5.00
  -3  -4   3  172.78    8.60
  -3  -4   3  171.38    7.00
  -3  -4   3  179.08    4.90
   2   4  -3   66.69    3.00
   2   4  -3   64.79    3.20
   2   4  -3   66.29    4.80
  -2  -4   3   61.39    3.20
  -2  -4   3   60.79    2.70
  -2  -4   3   65.09    3.50
  -2  -4   3   60.59    3.20
   1   4  -3  203.88    6.30
   1   4  -3  203.38    7.20
   1   4  -3  220.38    6.10
  -1  -4   3  202.18    5.40
  -1  -4   3  213.28    6.20
  -1  -4   3  199.38    4.50
  -1  -4   3  218.28    6.40
   0   4  -3    1.20    1.40
   0   4  -3    1.50    1.50
   0   4  -3    2.30    1.70
   0   4  -3    0.10    1.20
   0  -4   3    0.50    1.00
   0  -4   3   -0.70    1.20
   0  -4   3    0.70    1.10
   0  -4   3    1.80    1.80
  -1   4  -3  445.16   11.40
  -1   4  -3  443.06    8.90
  -1   4  -3  426.66   10.80
  -1   4  -3  439.86   10.40
  -1   4  -3  434.46    9.80
   1  -4   3  449.16   11.40
   1  -4   3  441.16   10.70
   1  -4   3  432.16   10.20
   1  -4   3  429.36   12.00
  -2   4  -3   49.20    3.40
  -2   4  -3   53.29    2.40
  -2   4  -3   52.69    3.10
  -2   4  -3   55.59    3.00
   2  -4   3   50.09    3.40
   2  -4   3   54.69    4.20
   2  -4   3   49.50    2.80
   2  -4   3   54.19    4.80
  -3   4  -3  272.37    7.30
  -3   4  -3  276.67    7.80
  -3   4  -3  259.67    8.20
  -3   4  -3  275.77    8.30
  -3   4  -3  277.87    6.90
   3  -4   3  276.67   10.20
   3  -4   3  283.67    8.10
   3  -4   3  280.17   11.20
   3  -4   3  288.07    8.30
  -4   4  -3  279.27    8.50
  -4   4  -3  292.97    9.60
  -4   4  -3  304.67    8.50
   4  -4   3  308.67   11.60
   4  -4   3  291.37   12.00
  -5   4  -3    2.40    1.90
  -5   4  -3    7.00    2.40
  -5   4  -3    1.30    2.60
   5  -4   3    1.90    4.20
   5  -4   3    4.20    5.00
  -6   4  -3   47.90    5.60
  -6   4  -3   47.40    4.40
  -6   4  -3   44.10    4.00
   6  -4   3   49.90    8.50
  -7   4  -3    0.50    2.50
  -7   4  -3   -1.10    2.70
   7  -4   3   -3.40    6.20
   7   3  -3    2.50    4.70
  -7  -3   3   -0.60    5.10
  -7  -3   3    0.40    4.20
   6   3  -3   93.99    7.90
   6   3  -3   88.59    7.20
  -6  -3   3   96.49    9.50
  -6  -3   3   83.89    7.60
   5   3  -3    0.50    1.50
   5   3  -3    0.50    2.60
  -5  -3   3   -3.10    3.50
  -5  -3   3    2.00    2.20
   4   3  -3  149.99    4.80
   4   3  -3  135.99    4.80
   4   3  -3  145.19    5.20
   4   3  -3  150.58    7.10
  -4  -3   3  137.99    6.70
  -4  -3   3  145.89    7.90
   3   3  -3  430.76    9.70
   3   3  -3  408.26    9.30
   3   3  -3  415.66   11.50
   3   3  -3  398.66    8.60
  -3  -3   3  425.86    8.10
  -3  -3   3  382.26    8.00
  -3  -3   3  407.16   12.80
  -3  -3   3  416.76   11.70
   2   3  -3  368.76    8.50
   2   3  -3  373.96    8.40
   2   3  -3  360.56   10.00
  -2  -3   3  363.96    8.40
  -2  -3   3  361.46    8.40
  -2  -3   3  372.46    9.80
  -2  -3   3  372.96   10.60
   1   3  -3   28.60    2.20
   1   3  -3   28.70    2.70
   1   3  -3   32.80    1.90
  -1  -3   3   38.10    3.00
  -1  -3   3   30.80    2.00
  -1  -3   3   33.40    2.10
  -1  -3   3   33.40    2.20
   0   3  -3 1120.49   22.00
   0   3  -3 1137.99   23.80
   0   3  -3 1129.49   22.40
   0   3  -3 1122.89   22.80
   0  -3   3 1142.59   22.70
   0  -3   3 1132.69   23.10
   0  -3   3 1121.39   22.40
   0  -3   3 1120.99   23.20
  -1   3  -3 1512.65   28.80
  -1   3  -3 1512.05   29.20
  -1   3  -3 1480.75   30.20
  -1   3  -3 1518.75   29.00
  -1   3  -3 1469.15   29.80
   1  -3   3 1477.15   30.10
   1  -3   3 1487.25   29.50
   1  -3   3 1448.56   30.60
   1  -3   3 1515.15   29.40
  -2   3  -3   62.19    2.40
  -2   3  -3   56.49    3.60
  -2   3  -3   60.49    2.80
  -2   3  -3   62.09    3.30
   2  -3   3   66.29    3.30
   2  -3   3   65.19    5.30
   2  -3   3   62.59    3.30
   2  -3   3   64.19    5.00
  -3   3  -3  720.93   14.50
  -3   3  -3  722.23   16.70
  -3   3  -3  734.53   15.40
  -3   3  -3  754.52   15.80
  -3   3  -3  688.03   16.70
   3  -3   3  742.43   18.40
   3  -3   3  673.33   13.40
   3  -3   3  735.73   15.90
   3  -3   3  737.53   16.90
  -4   3  -3  102.29    4.40
  -4   3  -3   97.29    5.50
  -4   3  -3  105.79    4.40
   4  -3   3   98.09    7.60
   4  -3   3   97.69    6.00
  -5   3  -3   72.39    4.50
  -5   3  -3   76.89    5.80
  -5   3  -3   77.99    4.50
   5  -3   3   73.69    7.40
   5  -3   3   85.79    7.80
   5  -3   3   73.09    7.80
  -6   3  -3   23.70    3.30
  -6   3  -3   18.80    3.60
  -6   3  -3   28.10    3.60
   6  -3   3   20.70    6.30
   6  -3   3   25.90    6.50
  -7   3  -3   34.70    4.20
  -7   3  -3   45.40    5.90
  -7   3  -3   39.90    4.00
   7  -3   3   42.40    7.60
   7   2  -3   12.40    3.90
  -7  -2   3   12.00    3.90
  -7  -2   3   14.80    6.20
   6   2  -3   41.30    5.40
   6   2  -3   38.00    5.70
  -6  -2   3   33.70    6.80
  -6  -2   3   34.40    5.60
   5   2  -3   24.30    4.10
   5   2  -3   24.20    2.90
   5   2  -3   16.60    2.60
  -5  -2   3   25.10    5.40
  -5  -2   3   22.70    4.10
   4   2  -3  140.39    5.40
   4   2  -3  129.39    4.90
   4   2  -3  141.39    6.90
  -4  -2   3  145.79    7.10
  -4  -2   3  137.59    5.10
  -4  -2   3  134.79    8.00
   3   2  -3  196.18    5.40
   3   2  -3  197.78    5.80
   3   2  -3  191.88    4.80
   3   2  -3  197.88    7.30
  -3  -2   3  187.68    7.20
  -3  -2   3  191.98    5.80
  -3  -2   3  198.78    8.10
   2   2  -3  729.43   16.50
   2   2  -3  731.53   15.00
   2   2  -3  711.93   14.40
   2   2  -3  708.73   14.10
  -2  -2   3  722.23   16.20
  -2  -2   3  704.03   14.10
  -2  -2   3  718.13   14.30
  -2  -2   3  705.03   15.00
  -2  -2   3  737.23   14.90
  -2  -2   3  742.03   16.90
   1   2  -3    8.20    1.90
   1   2  -3    7.60    1.20
   1   2  -3    7.80    0.90
   1   2  -3    8.10    1.10
  -1  -2   3    7.70    1.00
  -1  -2   3   10.20    1.20
  -1  -2   3    8.80    0.90
  -1  -2   3   10.50    1.80
   0   2  -3   79.99    3.70
   0   2  -3   79.39    2.90
   0   2  -3   73.99    3.10
   0   2  -3   76.49    2.90
   0  -2   3   76.19    3.00
   0  -2   3   72.09    2.90
   0  -2   3   81.29    2.80
   0  -2   3   74.79    3.70
   0  -2   3   77.39    3.20
  -1   2  -3  157.68    4.90
  -1   2  -3  149.69    5.30
  -1   2  -3  153.18    3.50
  -1   2  -3  161.48    4.30
   1  -2   3  162.08    4.70
   1  -2   3  159.68    5.80
   1  -2   3  162.28    5.00
  -2   2  -3  691.13   14.10
  -2   2  -3  708.23   14.30
  -2   2  -3  702.33   15.30
  -2   2  -3  678.83   15.60
  -2   2  -3  685.03   14.00
   2  -2   3  706.43   16.60
   2  -2   3  694.63   14.80
   2  -2   3  717.33   15.70
  -3   2  -3   76.39    3.10
  -3   2  -3   80.19    3.90
  -3   2  -3   77.49    2.10
  -3   2  -3   73.19    2.10
  -3   2  -3   83.99    3.40
   3  -2   3   83.99    5.20
   3  -2   3   78.89    3.40
   3  -2   3   80.49    6.30
   3  -2   3   76.99    2.40
  -4   2  -3  123.89    5.60
  -4   2  -3  127.89    4.90
  -4   2  -3  132.09    4.80
   4  -2   3  130.89    8.50
   4  -2   3  121.69    6.20
   4  -2   3  121.49    4.70
   4  -2   3  121.89    4.10
  -5   2  -3  265.57    8.30
  -5   2  -3  257.67    9.50
  -5   2  -3  262.07    8.00
   5  -2   3  254.77   10.00
   5  -2   3  272.17   12.30
  -6   2  -3   -3.10    1.90
  -6   2  -3    2.90    2.30
  -6   2  -3   -1.20    1.30
   6  -2   3   -1.40    5.40
  -7   2  -3   69.29    4.90
  -7   2  -3   69.19    6.60
   7  -2   3   73.89    9.30
   7   1  -3   29.40    5.30
  -7  -1   3   34.40    7.00
  -7  -1   3   24.60    5.70
   6   1  -3    3.70    2.70
   6   1  -3    4.10    3.10
   6   1  -3    3.50    2.40
   6   1  -3    2.50    2.30
  -6  -1   3   -0.50    1.70
  -6  -1   3    3.60    4.70
  -6  -1   3    3.70    3.60
   5   1  -3  492.85   13.40
   5   1  -3  507.55   15.40
   5   1  -3  504.25   13.50
  -5  -1   3  467.75   16.50
  -5  -1   3  468.95   12.80
  -5  -1   3  500.95   15.30
   4   1  -3   53.09    4.90
   4   1  -3   48.80    4.10
   4   1  -3   48.60    3.20
  -4  -1   3   44.60    3.00
  -4  -1   3   49.40    4.70
  -4  -1   3   54.49    5.80
  -4  -1   3   49.40    2.80
   3   1  -3  590.54   12.00
   3   1  -3  601.94   15.10
   3   1  -3  607.34   13.50
   3   1  -3  611.94   13.90
  -3  -1   3  618.44   13.20
  -3  -1   3  616.34   13.70
  -3  -1   3  610.04   15.90
  -3  -1   3  612.54   15.20
   2   1  -3  644.34   14.80
   2   1  -3  643.74   13.30
   2   1  -3  637.04   12.70
   2   1  -3  670.23   13.80
  -2  -1   3  625.24   13.70
  -2  -1   3  660.53   13.50
  -2  -1   3  623.24   12.10
  -2  -1   3  639.74   12.20
  -2  -1   3  646.94   15.00
  -2  -1   3  655.83   14.70
   1   1  -3    5.00    0.90
   1   1  -3    5.70    0.90
   1   1  -3    3.90    1.20
   1   1  -3    7.00    1.30
  -1  -1   3    6.20    1.40
  -1  -1   3    6.70    1.00
  -1  -1   3    4.60    1.00
  -1  -1   3    5.10    0.80
  -1  -1   3    5.90    1.30
  -1  -1   3    4.20    0.70
   0   1  -3    5.20    1.30
   0   1  -3    2.40    0.90
   0   1  -3    1.40    1.40
   0   1  -3    3.70    1.50
   0  -1   3    3.00    1.00
   0  -1   3    1.60    1.30
   0  -1   3    2.60    1.40
   0  -1   3    3.30    0.80
  -1   1  -3  508.95    9.70
  -1   1  -3  502.45   11.60
  -1   1  -3  511.65   10.90
  -1   1  -3  501.15   10.40
   1  -1   3  519.95   11.50
   1  -1   3  502.15   10.90
   1  -1   3  513.75   10.80
   1  -1   3  507.95   11.80
   1  -1   3  498.05    9.70
  -2   1  -3 1789.92   34.80
  -2   1  -3 1782.82   33.60
  -2   1  -3 1710.93   33.40
  -2   1  -3 1790.12   33.50
  -2   1  -3 1740.73   35.30
  -2   1  -3 1801.52   33.30
  -2   1  -3 1753.02   35.40
   2  -1   3 1757.72   34.30
   2  -1   3 1757.52   33.90
   2  -1   3 1807.42   35.40
   2  -1   3 1798.02   36.20
  -3   1  -3  219.18    5.90
  -3   1  -3  207.58    8.00
  -3   1  -3  223.78    5.90
  -3   1  -3  218.98    7.10
   3  -1   3  219.78    7.90
   3  -1   3  219.68    5.80
   3  -1   3  227.18    9.00
   3  -1   3  210.28    5.40
  -4   1  -3  209.78    7.60
  -4   1  -3  221.18    6.50
  -4   1  -3  213.58    6.20
  -4   1  -3  212.98    9.20
   4  -1   3  209.58    8.20
   4  -1   3  205.98    9.90
   4  -1   3  209.88    6.10
   4  -1   3  205.58    5.80
  -5   1  -3   70.79    4.20
  -5   1  -3   64.89    4.80
  -5   1  -3   73.79    4.30
   5  -1   3   75.59    6.40
   5  -1   3   88.49    8.30
  -6   1  -3   69.19    6.20
  -6   1  -3   67.69    4.30
   6  -1   3   72.69    8.60
  -7   1  -3    4.80    3.80
  -7   1  -3    6.70    2.10
   7  -1   3    5.90    5.10
  -7   0   3   33.80    6.00
  -7   0   3   43.60    5.00
   6   0  -3   14.80    3.30
   6   0  -3   20.90    4.20
   6   0  -3   15.40    4.20
   6   0  -3   16.60    3.10
  -6   0   3   18.20    3.40
  -6   0   3   22.60    4.70
  -6   0   3   22.70    3.20
  -6   0   3   10.10    4.20
   5   0  -3  307.77   11.00
   5   0  -3  319.57   10.40
   5   0  -3  312.97   10.50
  -5   0   3  301.77    9.50
  -5   0   3  320.67   12.20
  -5   0   3  318.47   11.60
  -5   0   3  300.37    8.90
   4   0  -3  311.47    9.70
   4   0  -3  348.77    9.80
  -4   0   3  306.67    9.30
  -4   0   3  342.87   11.40
  -4   0   3  324.77   10.80
  -4   0   3  325.17    8.70
  -4   0   3  336.67    9.30
   3   0  -3   86.19    4.00
   3   0  -3   85.49    4.10
   3   0  -3   77.59    2.20
  -3   0   3   82.79    3.40
  -3   0   3   82.89    4.70
  -3   0   3   84.39    4.30
  -3   0   3   82.39    3.60
   2   0  -3   29.20    2.00
   2   0  -3   33.40    2.10
   2   0  -3   32.00    1.40
   2   0  -3   30.20    2.30
  -2   0   3   32.40    2.00
  -2   0   3   38.50    2.80
  -2   0   3   31.50    1.70
  -2   0   3   32.20    2.90
   1   0  -3 1092.59   21.10
   1   0  -3 1079.39   20.40
   1   0  -3 1107.49   21.30
   1   0  -3 1085.19   20.60
  -1   0   3 1063.19   21.10
  -1   0   3 1101.69   21.40
  -1   0   3 1082.09   20.70
  -1   0   3 1063.39   20.90
  -1   0   3 1040.20   20.50
  -1   0   3 1085.09   20.50
  -1   0   3 1078.79   20.60
   0   0  -3  235.98    5.30
   0   0  -3  228.98    5.50
   0   0  -3  232.08    5.80
   0   0  -3  226.08    5.60
   0   0  -3  237.08    5.50
   0   0   3  237.08    5.50
   0   0   3  229.88    5.90
   0   0   3  239.78    5.80
   0   0   3  231.28    5.40
  -1   0  -3  205.28    5.80
  -1   0  -3  216.88    5.00
  -1   0  -3  204.68    4.30
  -1   0  -3  208.68    4.80
  -1   0  -3  208.58    5.40
   1   0   3  213.48    5.30
   1   0   3  213.18    6.20
   1   0   3  213.08    4.40
   1   0   3  205.38    4.60
   1   0   3  203.78    5.00
   1   0   3  205.68    6.20
  -2   0  -3  493.45   10.60
  -2   0  -3  512.45   12.60
  -2   0  -3  533.95   10.70
  -2   0  -3  515.15   10.60
  -2   0  -3  527.35   11.80
  -2   0  -3  526.85   10.30
  -2   0  -3  497.95   12.50
   2   0   3  517.05   10.80
   2   0   3  533.45   12.50
   2   0   3  523.85   13.20
   2   0   3  525.75   10.70
  -3   0  -3  101.39    4.60
  -3   0  -3   97.59    3.30
  -3   0  -3   97.99    5.80
  -3   0  -3   98.79    3.50
   3   0   3   99.69    6.50
   3   0   3  100.99    3.30
   3   0   3  100.39    5.70
   3   0   3   92.09    3.60
  -4   0  -3  191.98    5.70
  -4   0  -3  194.08    7.10
  -4   0  -3  199.48    5.90
  -4   0  -3  200.28    9.10
   4   0   3  196.18    9.80
   4   0   3  188.78    5.30
   4   0   3  204.48    9.00
   4   0   3  200.78    6.30
  -5   0  -3   86.09    4.10
  -5   0  -3   94.79    6.00
  -5   0  -3   90.89    7.80
   5   0   3   84.29    7.20
   5   0   3  110.69    9.20
   5   0   3   89.19    5.30
  -6   0  -3  125.29    7.90
  -6   0  -3  137.79   10.40
  -6   0  -3  147.29    6.20
   6   0   3  137.79   11.20
   6   0   3  131.49    8.30
  -7   0  -3    2.60    3.60
  -7   0  -3    1.20    2.30
   7   0   3    9.30    6.90
   7  -1  -3    2.00    2.90
  -7   1   3   -1.70    2.60
  -7   1   3    2.10    3.30
   6  -1  -3   48.50    6.20
   6  -1  -3   53.29    5.80
   6  -1  -3   57.89    5.40
  -6   1   3   74.99    6.10
  -6   1   3   71.19    5.70
  -6   1   3   59.29    4.40
   5  -1  -3   35.00    3.70
   5  -1  -3   32.70    4.20
   5  -1  -3   38.30    4.40
   5  -1  -3   33.50    4.80
  -5   1   3   34.00    3.00
  -5   1   3   31.60    3.60
  -5   1   3   29.80    4.30
   4  -1  -3  773.72   18.70
   4  -1  -3  801.92   19.40
   4  -1  -3  777.72   18.90
  -4   1   3  777.92   18.10
  -4   1   3  781.12   17.30
  -4   1   3  791.62   19.40
  -4   1   3  772.12   17.80
  -4   1   3  778.52   20.10
   3  -1  -3  125.69    5.40
   3  -1  -3  134.79    5.40
   3  -1  -3  124.99    5.50
   3  -1  -3  130.99    3.40
  -3   1   3  127.99    6.10
  -3   1   3  131.69    5.40
  -3   1   3  135.89    4.80
  -3   1   3  129.79    4.40
   2  -1  -3   33.20    2.70
   2  -1  -3   25.40    2.10
   2  -1  -3   18.20    2.00
   2  -1  -3   31.00    1.50
  -2   1   3   19.90    2.00
   1  -1  -3  792.72   15.90
   1  -1  -3  779.32   15.20
   1  -1  -3  749.62   14.80
   1  -1  -3  753.22   15.40
   1  -1  -3  760.42   15.90
   1  -1  -3  781.92   15.10
  -1   1   3  773.32   15.20
  -1   1   3  777.12   15.00
  -1   1   3  767.02   15.80
  -1   1   3  746.83   15.50
  -1   1   3  740.03   14.90
  -1   1   3  770.32   14.90
   0  -1  -3  274.77    6.30
   0  -1  -3  275.67    6.60
   0  -1  -3  277.87    6.20
   0  -1  -3  280.77    6.80
   0  -1  -3  281.27    6.40
   0   1   3  283.37    6.40
   0   1   3  286.77    6.50
   0   1   3  274.67    6.30
   0   1   3  274.17    6.40
   0   1   3  279.17    5.40
   0   1   3  283.87    6.30
  -1  -1  -3  420.86    9.40
  -1  -1  -3  415.96    9.70
  -1  -1  -3  435.06    8.20
  -1  -1  -3  421.06    8.10
  -1  -1  -3  445.56    9.00
  -1  -1  -3  417.46   10.00
  -1  -1  -3  433.26    8.90
   1   1   3  419.66    8.10
   1   1   3  416.36    8.20
   1   1   3  420.86   10.30
   1   1   3  423.56   10.10
   1   1   3  434.66    8.90
   1   1   3  418.56    8.80
   1   1   3  417.66    9.00
  -2  -1  -3   -0.70    0.50
  -2  -1  -3   -0.60    1.30
  -2  -1  -3   -0.50    0.60
  -2  -1  -3   -0.50    1.50
  -2  -1  -3    1.40    1.20
  -2  -1  -3   -0.30    0.30
   2   1   3   -0.20    0.80
   2   1   3    0.90    2.00
   2   1   3   -0.10    1.00
   2   1   3    0.50    0.60
   2   1   3    1.00    1.40
  -3  -1  -3 1427.36   27.30
  -3  -1  -3 1445.96   28.90
  -3  -1  -3 1387.56   30.70
   3   1   3 1357.56   27.10
   3   1   3 1390.26   27.90
   3   1   3 1407.06   30.30
  -4  -1  -3   62.59    3.10
  -4  -1  -3   65.59    6.30
  -4  -1  -3   66.69    4.30
   4   1   3   57.59    2.70
   4   1   3   54.99    4.10
   4   1   3   51.69    4.90
  -5  -1  -3  115.19    4.80
  -5  -1  -3  119.99    6.00
  -5  -1  -3  108.29    7.60
   5   1   3  117.89    5.90
   5   1   3  113.09    7.30
   5   1   3  119.79    9.30
  -6  -1  -3    2.40    3.10
  -6  -1  -3    6.50    5.00
  -6  -1  -3   11.80    2.40
   6   1   3    8.00    3.40
   6   1   3    6.20    6.00
   6   1   3    8.80    4.90
  -7  -1  -3   24.00    4.90
  -7  -1  -3   30.90    7.50
   7   1   3   17.30    7.20
   7  -2  -3  165.18   10.70
  -7   2   3  153.08    8.40
  -7   2   3  167.88    8.00
   6  -2  -3   27.40    5.00
   6  -2  -3   20.40    4.10
   6  -2  -3   27.10    5.40
  -6   2   3   15.90    2.60
  -6   2   3   21.80    4.50
  -6   2   3   26.40    4.00
   5  -2  -3  123.69    7.30
   5  -2  -3  122.59    6.50
   5  -2  -3  117.49    6.80
   5  -2  -3  125.79    7.30
  -5   2   3  109.49    5.80
  -5   2   3  123.49    5.50
  -5   2   3  125.59    7.20
   4  -2  -3  395.76   12.30
   4  -2  -3  417.26   12.10
   4  -2  -3  400.46   11.10
   4  -2  -3  390.76   11.80
  -4   2   3  389.66   11.80
  -4   2   3  399.06   10.30
  -4   2   3  400.96   10.90
   3  -2  -3  447.76    9.90
   3  -2  -3  477.55   12.50
   3  -2  -3  463.05   12.50
   3  -2  -3  458.55   12.20
  -3   2   3  464.45   11.20
  -3   2   3  465.05   12.10
  -3   2   3  468.15   10.80
   2  -2  -3  326.97    8.90
   2  -2  -3  316.97    8.70
   2  -2  -3  319.77    8.50
   2  -2  -3  317.87    7.20
  -2   2   3  303.37    8.20
  -2   2   3  319.07    7.80
  -2   2   3  319.67    7.50
  -2   2   3  319.17    6.60
   1  -2  -3  484.95    9.70
   1  -2  -3  484.45   11.00
   1  -2  -3  461.55   10.10
   1  -2  -3  483.45   10.80
   1  -2  -3  476.25   11.20
  -1   2   3  458.95   10.10
  -1   2   3  472.35    9.90
  -1   2   3  469.55   10.40
  -1   2   3  486.15    9.80
   0  -2  -3 2377.96   44.90
   0  -2  -3 2415.66   45.40
   0  -2  -3 2383.36   45.50
   0  -2  -3 2372.86   48.50
   0  -2  -3 2381.76   44.90
   0   2   3 2371.86   44.90
   0   2   3 2399.56   44.90
   0   2   3 2422.36   45.00
   0   2   3 2387.26   47.20
   0   2   3 2330.97   44.60
  -1  -2  -3  544.85   11.90
  -1  -2  -3  546.35   12.50
  -1  -2  -3  544.15   11.00
  -1  -2  -3  547.65   12.40
  -1  -2  -3  557.64   11.50
   1   2   3  560.74   12.60
   1   2   3  549.54   11.60
   1   2   3  546.95   11.10
   1   2   3  556.14   11.70
  -2  -2  -3 1116.79   21.50
  -2  -2  -3 1130.09   22.50
  -2  -2  -3 1127.59   24.40
   2   2   3 1120.39   21.50
   2   2   3 1152.38   21.20
   2   2   3 1099.29   24.10
   2   2   3 1123.29   22.50
   2   2   3 1114.99   22.00
   2   2   3 1067.09   21.00
  -3  -2  -3 1013.90   23.60
  -3  -2  -3 1003.80   21.30
  -3  -2  -3  955.00   18.60
  -3  -2  -3  996.60   18.60
   3   2   3  995.80   19.90
   3   2   3 1031.80   21.20
   3   2   3  984.80   23.00
  -4  -2  -3  142.79    5.80
  -4  -2  -3  162.18    8.60
   4   2   3  144.99    6.30
   4   2   3  139.49    4.40
   4   2   3  151.48    8.40
  -5  -2  -3   55.49    4.40
  -5  -2  -3   57.69    7.00
   5   2   3   61.29    6.00
   5   2   3   64.09    5.20
  -6  -2  -3   11.00    4.50
  -6  -2  -3   13.60    3.60
   6   2   3   13.10    4.10
   6   2   3   17.60    4.10
   6   2   3   18.80    6.40
  -7  -2  -3   82.39    7.20
  -7  -2  -3   81.19    9.20
   7   2   3   97.09   11.30
   7  -3  -3   89.09   10.80
   7  -3  -3   97.89    8.90
  -7   3   3  114.69    6.30
  -7   3   3  112.29    7.80
   6  -3  -3    4.40    4.70
   6  -3  -3   -1.00    4.00
  -6   3   3    2.50    1.90
  -6   3   3    0.90    2.80
   5  -3  -3   34.70    5.50
   5  -3  -3   32.50    4.50
   5  -3  -3   35.50    5.00
  -5   3   3   37.00    3.40
  -5   3   3   36.40    4.30
  -5   3   3   37.40    3.60
   4  -3  -3    2.00    2.20
   4  -3  -3    1.70    3.40
   4  -3  -3    2.50    2.00
   4  -3  -3    2.00    2.30
   4  -3  -3    1.50    2.60
  -4   3   3    3.90    1.60
  -4   3   3    1.20    2.10
  -4   3   3    1.30    1.30
   3  -3  -3 1007.80   21.00
   3  -3  -3 1055.79   21.00
   3  -3  -3 1030.70   23.20
   3  -3  -3  999.40   20.70
   3  -3  -3 1037.30   24.10
   3  -3  -3 1020.80   23.50
  -3   3   3 1015.00   21.80
  -3   3   3 1039.50   21.30
  -3   3   3  994.70   22.10
   2  -3  -3  464.55    9.40
   2  -3  -3  471.25   12.20
   2  -3  -3  481.95   12.30
   2  -3  -3  469.85   11.80
   2  -3  -3  466.85   10.50
   2  -3  -3  462.65    9.30
  -2   3   3  468.75   10.40
  -2   3   3  455.85   10.90
  -2   3   3  470.45    9.90
  -2   3   3  461.35   10.80
   1  -3  -3  154.48    5.50
   1  -3  -3  155.68    3.60
   1  -3  -3  155.38    4.60
   1  -3  -3  163.28    5.70
   1  -3  -3  167.58    5.20
  -1   3   3  157.28    4.70
  -1   3   3  153.18    4.10
  -1   3   3  159.78    4.60
  -1   3   3  156.08    4.10
   0  -3  -3  684.13   14.30
   0  -3  -3  703.13   14.30
   0  -3  -3  691.83   15.40
   0  -3  -3  688.73   14.60
   0  -3  -3  715.03   15.20
   0   3   3  712.33   14.30
   0   3   3  693.43   14.60
   0   3   3  689.33   14.50
  -1  -3  -3    2.80    1.40
  -1  -3  -3    3.30    0.80
  -1  -3  -3    3.10    0.70
  -1  -3  -3    4.40    1.30
  -1  -3  -3    3.10    1.60
   1   3   3    1.80    1.20
   1   3   3    3.10    1.70
   1   3   3    0.50    1.20
   1   3   3    3.30    0.60
  -2  -3  -3  162.88    5.20
  -2  -3  -3  149.59    6.10
  -2  -3  -3  160.78    4.70
  -2  -3  -3  160.88    4.50
   2   3   3  161.08    5.60
   2   3   3  156.58    3.80
   2   3   3  155.38    6.10
   2   3   3  158.68    4.70
  -3  -3  -3    6.80    1.50
  -3  -3  -3    7.90    1.00
  -3  -3  -3    2.50    3.00
   3   3   3    5.70    1.20
   3   3   3    7.10    2.80
   3   3   3    6.70    1.00
   3   3   3    6.30    1.40
   3   3   3    3.80    2.20
  -4  -3  -3  223.38    7.30
  -4  -3  -3  211.08   10.10
   4   3   3  224.98    9.50
   4   3   3  212.98    8.10
   4   3   3  202.88    5.70
   4   3   3  214.58    6.20
   4   3   3  202.78    5.80
  -5  -3  -3   26.40    5.50
  -5  -3  -3   28.20    3.30
   5   3   3   25.40    5.30
   5   3   3   32.00    4.50
  -6  -3  -3   41.60    4.80
  -6  -3  -3   44.70    7.40
   6   3   3   32.40    6.60
   6   3   3   42.20    5.30
  -7  -3  -3   19.30    6.90
  -7  -3  -3   19.20    4.10
   7   3   3   11.90    7.40
   7  -4  -3    6.70    5.70
   7  -4  -3   -2.80    4.30
  -7   4   3    1.00    2.40
  -7   4   3   -0.80    2.80
   6  -4  -3  141.09   11.20
   6  -4  -3  141.89    9.20
  -6   4   3  143.99    7.80
  -6   4   3  128.09    6.90
   5  -4  -3   77.79    6.40
   5  -4  -3   77.49    6.40
   5  -4  -3   72.69    6.90
  -5   4   3   73.89    4.30
  -5   4   3   68.09    5.10
   4  -4  -3  194.48    9.70
   4  -4  -3  195.68    9.20
   4  -4  -3  197.98    8.50
  -4   4   3  184.98    6.90
  -4   4   3  182.28    6.50
  -4   4   3  180.18    7.10
   3  -4  -3  426.06   13.00
   3  -4  -3  416.46   12.80
   3  -4  -3  423.16   12.20
   3  -4  -3  420.66   10.30
   3  -4  -3  419.36    9.20
   3  -4  -3  406.36    8.60
  -3   4   3  415.66   10.30
  -3   4   3  419.36   10.90
  -3   4   3  406.06    8.30
  -3   4   3  419.66   10.80
   2  -4  -3  201.68    6.20
   2  -4  -3  204.18    7.10
   2  -4  -3  212.68    7.80
   2  -4  -3  230.68    8.60
  -2   4   3  221.98    6.00
  -2   4   3  214.48    5.80
  -2   4   3  213.98    6.30
  -2   4   3  213.08    5.70
   1  -4  -3   14.80    2.60
   1  -4  -3   16.30    1.80
   1  -4  -3   17.00    2.50
   1  -4  -3   21.00    2.20
  -1   4   3   15.90    1.20
  -1   4   3   16.20    2.10
  -1   4   3   16.50    1.90
   0  -4  -3  123.69    4.10
   0  -4  -3  134.39    5.80
   0  -4  -3  130.19    5.10
   0  -4  -3  129.59    4.60
   0   4   3  126.99    4.50
   0   4   3  126.89    4.50
   0   4   3  132.59    4.20
  -1  -4  -3 1972.30   39.70
  -1  -4  -3 2061.09   40.90
  -1  -4  -3 2082.19   40.10
  -1  -4  -3 1995.80   39.70
   1   4   3 2060.29   39.90
   1   4   3 2092.99   40.60
   1   4   3 2069.49   39.70
  -2  -4  -3    7.80    1.30
  -2  -4  -3    3.50    1.30
  -2  -4  -3    5.80    1.80
   2   4   3    4.90    1.60
   2   4   3    4.00    0.40
   2   4   3    4.00    2.60
   2   4   3    1.60    2.40
  -3  -4  -3  314.37   11.50
  -3  -4  -3  315.57    7.30
  -3  -4  -3  299.67    8.20
   3   4   3  299.17    6.20
   3   4   3  284.67    6.60
   3   4   3  303.07    9.00
   3   4   3  306.97    8.00
   3   4   3  307.07   10.50
  -4  -4  -3  188.28    6.80
  -4  -4  -3  177.88    9.70
   4   4   3  186.18    8.00
   4   4   3  191.78    9.10
   4   4   3  186.28    5.90
  -5  -4  -3   19.20    4.50
  -5  -4  -3   25.20    3.40
   5   4   3   19.70    5.10
   5   4   3   21.10    4.40
  -6  -4  -3   31.10    6.20
  -6  -4  -3   44.10    4.30
   6   4   3   43.40    7.00
   6   4   3   38.40    4.90
  -7  -4  -3    7.60    2.80
  -7  -4  -3    8.50    6.50
   7   4   3   11.60    5.30
   6  -5  -3  132.49    9.30
   6  -5  -3  133.09   11.30
  -6   5   3  137.59    6.70
  -6   5   3  148.79    7.50
   5  -5  -3    0.60    2.10
   5  -5  -3   -0.70    2.80
   5  -5  -3   -0.40    4.70
  -5   5   3    3.80    1.90
  -5   5   3    0.70    2.10
   4  -5  -3  121.49    7.20
   4  -5  -3  120.99    8.70
   4  -5  -3  131.99    8.30
  -4   5   3  122.89    6.10
  -4   5   3  135.79    5.70
   3  -5  -3    1.40    2.20
   3  -5  -3   -2.90    2.40
   3  -5  -3    2.20    3.70
   3  -5  -3    0.20    1.60
  -3   5   3    0.30    1.10
  -3   5   3    2.20    1.80
  -3   5   3    1.10    1.10
   2  -5  -3  343.97   10.90
   2  -5  -3  344.17   11.80
   2  -5  -3  333.37    9.20
  -2   5   3  334.67    8.50
  -2   5   3  354.46    8.80
   1  -5  -3  633.64   14.50
   1  -5  -3  617.04   14.50
   1  -5  -3  623.14   15.40
   1  -5  -3  614.84   16.20
  -1   5   3  625.84   14.20
  -1   5   3  622.64   14.10
   0  -5  -3  167.68    7.20
   0  -5  -3  154.88    4.90
   0  -5  -3  153.78    6.00
   0  -5  -3  159.78    5.70
   0   5   3  160.08    4.90
   0   5   3  157.48    5.80
   0   5   3  158.98    5.30
  -1  -5  -3  113.19    4.70
  -1  -5  -3  110.79    6.00
  -1  -5  -3  103.79    3.20
  -1  -5  -3  117.19    5.10
   1   5   3  109.19    5.00
   1   5   3  105.69    4.50
   1   5   3  107.69    4.30
  -2  -5  -3   15.60    2.20
  -2  -5  -3   15.00    2.40
  -2  -5  -3   16.10    1.70
  -2  -5  -3   17.80    3.00
   2   5   3   13.10    3.10
   2   5   3   17.20    2.80
   2   5   3    9.50    2.20
  -3  -5  -3   90.79    7.40
  -3  -5  -3   81.79    3.70
  -3  -5  -3   81.89    3.60
   3   5   3   76.09    5.60
   3   5   3   75.99    2.70
   3   5   3   71.99    4.00
   3   5   3   84.89    5.80
  -4  -5  -3   10.10    1.30
  -4  -5  -3   17.70    2.40
  -4  -5  -3   15.00    4.80
   4   5   3   15.20    3.20
   4   5   3   12.70    2.30
   4   5   3   12.20    3.60
  -5  -5  -3  107.79    5.80
  -5  -5  -3  105.19    9.60
   5   5   3   97.69    8.70
   5   5   3   97.69    7.60
  -6  -5  -3   17.20    6.30
  -6  -5  -3    7.60    3.00
   6   5   3   13.00    4.10
  -7  -5  -3   13.80    3.80
  -7  -5  -3    6.50    6.80
   7   5   3   13.30    5.60
   6  -6  -3    2.10    5.90
   6  -6  -3    1.00    3.50
  -6   6   3   -0.10    2.60
  -6   6   3    0.60    2.20
   5  -6  -3  202.68   11.70
   5  -6  -3  196.38   12.90
  -5   6   3  210.48    9.00
  -5   6   3  189.58    7.60
   4  -6  -3  144.79    8.20
   4  -6  -3  139.79    8.10
   4  -6  -3  148.69    9.00
  -4   6   3  142.79    6.40
  -4   6   3  150.28    6.10
   3  -6  -3  115.29    8.70
   3  -6  -3  131.79    5.90
   3  -6  -3  137.19    7.00
   3  -6  -3  122.99    7.60
  -3   6   3  134.29    6.00
  -3   6   3  125.89    5.30
   2  -6  -3  625.74   16.80
   2  -6  -3  598.44   14.90
   2  -6  -3  597.44   17.00
  -2   6   3  602.04   13.80
  -2   6   3  588.14   14.30
  -2   6   3  620.04   14.10
   1  -6  -3   14.30    2.60
   1  -6  -3    9.80    3.90
   1  -6  -3    7.20    1.80
   1  -6  -3   12.10    2.50
  -1   6   3   15.30    2.90
  -1   6   3   14.60    2.60
   0  -6  -3   94.39    4.80
   0  -6  -3   80.19    3.70
   0  -6  -3   95.89    5.30
   0  -6  -3   77.39    6.30
   0   6   3   87.79    3.70
   0   6   3   82.89    4.50
   0   6   3  105.19    5.40
  -1  -6  -3   99.29    3.30
  -1  -6  -3   99.39    5.00
  -1  -6  -3   97.79    5.30
  -1  -6  -3  110.49    6.60
   1   6   3  100.29    5.10
   1   6   3   95.19    5.40
   1   6   3  102.09    4.90
  -2  -6  -3  148.89    5.80
  -2  -6  -3  147.19    5.80
  -2  -6  -3  157.08    7.10
  -2  -6  -3  150.18    4.30
   2   6   3  142.49    6.10
   2   6   3  156.18    6.00
   2   6   3  151.88    7.30
  -3  -6  -3  174.48    9.90
  -3  -6  -3  178.58    5.50
  -3  -6  -3  202.78    6.30
   3   6   3  198.08    9.40
   3   6   3  190.08    6.70
   3   6   3  173.48    7.30
   3   6   3  167.08    5.00
  -4  -6  -3   70.49    7.90
  -4  -6  -3   51.39    3.10
  -4  -6  -3   57.49    3.30
   4   6   3   57.89    6.70
   4   6   3   55.99    4.10
   4   6   3   59.39    5.80
  -5  -6  -3   29.50    3.30
  -5  -6  -3   26.60    6.60
   5   6   3   33.40    6.50
   5   6   3   34.70    4.70
  -6  -6  -3    6.80    2.80
  -6  -6  -3    9.30    6.20
   6   6   3   -2.60    4.80
  -7  -6  -3   15.00    7.20
   7   6   3    9.30    4.40
   6  -7  -3   22.80    7.60
   6  -7  -3    5.40    5.30
  -6   7   3    7.50    3.30
  -6   7   3    5.60    3.50
   5  -7  -3  126.29   11.30
   5  -7  -3   98.99    9.30
  -5   7   3  110.09    6.00
  -5   7   3  105.49    6.40
   4  -7  -3    3.70    4.20
   4  -7  -3    8.30    4.40
   4  -7  -3    9.20    3.40
  -4   7   3    9.80    2.10
  -4   7   3   13.10    2.60
   3  -7  -3  242.68    9.90
   3  -7  -3  254.47   12.00
   3  -7  -3  237.98   10.30
   3  -7  -3  239.88    8.70
  -3   7   3  229.88    8.50
  -3   7   3  238.48    7.10
  -3   7   3  227.58    7.80
   2  -7  -3   23.60    4.20
   2  -7  -3   28.70    3.60
   2  -7  -3   26.40    3.40
   2  -7  -3   18.70    4.00
  -2   7   3   32.70    3.50
  -2   7   3   24.70    3.10
  -2   7   3   29.00    2.80
   1  -7  -3  152.28    8.00
   1  -7  -3  158.98    6.70
   1  -7  -3  156.88    6.10
   1  -7  -3  153.38    7.00
  -1   7   3  153.38    6.40
  -1   7   3  152.08    5.90
   0  -7  -3   69.39    4.70
   0  -7  -3   73.59    5.30
   0  -7  -3   70.39    5.60
   0  -7  -3   74.59    3.80
   0   7   3   69.89    4.50
   0   7   3   63.69    4.00
   0   7   3   71.29    3.50
  -1  -7  -3   34.40    2.10
  -1  -7  -3   36.80    4.20
  -1  -7  -3   38.60    3.80
  -1  -7  -3   39.40    3.80
   1   7   3   35.40    3.40
   1   7   3   40.90    3.70
   1   7   3   37.00    3.70
  -2  -7  -3   84.29    5.00
  -2  -7  -3   86.79    2.90
  -2  -7  -3   93.69    4.70
  -2  -7  -3   89.39    6.20
   2   7   3   93.09    6.30
   2   7   3   86.09    5.10
   2   7   3   96.09    6.30
  -3  -7  -3   23.60    2.70
  -3  -7  -3   23.10    2.90
   3   7   3   24.00    4.30
   3   7   3   31.80    4.80
   3   7   3   27.20    3.50
  -4  -7  -3   42.40    3.30
  -4  -7  -3   48.00    7.80
   4   7   3   40.80    4.00
   4   7   3   41.50    6.20
   4   7   3   43.60    4.90
  -5  -7  -3   -1.50    5.00
   5   7   3   -2.00    4.40
   5   7   3    1.10    3.40
  -6  -7  -3   20.00    7.30
   6   7   3    9.20    5.80
  -7  -7  -3    7.80    6.80
   7   7   3   14.00    4.90
   5  -8  -3   -0.10    5.90
   5  -8  -3   -1.20    4.70
  -5   8   3   -1.70    2.80
  -5   8   3   -0.60    2.70
   4  -8  -3   98.79    8.90
   4  -8  -3  113.59    9.60
  -4   8   3  119.09    7.00
  -4   8   3  124.79    6.50
   3  -8  -3  292.47   11.60
   3  -8  -3  300.97   10.60
   3  -8  -3  315.07   13.20
   3  -8  -3  299.67   14.10
  -3   8   3  316.27    9.30
  -3   8   3  313.37   10.50
  -3   8   3  305.27    9.40
   2  -8  -3  175.18    8.60
   2  -8  -3  187.08   10.70
   2  -8  -3  158.68    7.20
   2  -8  -3  165.78    7.60
  -2   8   3  164.78    6.10
  -2   8   3  162.68    6.80
  -2   8   3  169.88    6.90
   1  -8  -3  100.89    5.50
   1  -8  -3   93.19    6.80
   1  -8  -3  108.69    7.30
   1  -8  -3   94.39    5.30
  -1   8   3   99.49    5.60
  -1   8   3  109.19    5.90
   0  -8  -3   34.00    4.10
   0  -8  -3   39.10    3.20
   0  -8  -3   36.30    5.60
   0  -8  -3   33.60    4.00
   0   8   3   45.40    4.30
   0   8   3   44.00    4.70
   0   8   3   36.50    3.00
  -1  -8  -3   54.99    4.70
  -1  -8  -3   55.39    4.70
  -1  -8  -3   52.19    5.20
  -1  -8  -3   51.19    2.80
   1   8   3   53.09    4.50
   1   8   3   55.69    4.50
   1   8   3   63.29    4.90
  -2  -8  -3    2.20    2.40
  -2  -8  -3    3.80    2.90
  -2  -8  -3    5.60    2.60
   2   8   3    9.50    2.30
   2   8   3   -1.30    2.50
   2   8   3    4.20    2.30
  -3  -8  -3   16.30    4.60
  -3  -8  -3   15.50    3.00
  -3  -8  -3   12.90    2.70
   3   8   3    9.80    3.30
   3   8   3   20.10    3.90
   3   8   3   14.90    3.20
  -4  -8  -3   66.39    8.80
  -4  -8  -3   74.79    4.40
   4   8   3   68.69    5.40
   4   8   3   77.79    7.30
   4   8   3   82.09    7.40
  -5  -8  -3    4.20    6.10
   5   8   3    7.00    5.20
  -6  -8  -3   23.00    8.10
   6   8   3   23.70    6.70
   5  -9  -3   31.00    6.10
   5  -9  -3   19.90    7.70
  -5   9   3   35.00    4.70
  -5   9   3   26.70    3.90
   4  -9  -3  109.59   11.10
   4  -9  -3  125.99   10.30
  -4   9   3  130.09    6.50
  -4   9   3  118.69    7.40
   3  -9  -3    0.60    3.20
   3  -9  -3    0.40    3.00
   3  -9  -3    4.20    4.20
   3  -9  -3    1.10    2.10
  -3   9   3    1.30    2.40
  -3   9   3    3.30    2.00
  -3   9   3    0.60    2.20
   2  -9  -3  150.78    7.70
   2  -9  -3  149.88    7.80
   2  -9  -3  139.09    9.20
   2  -9  -3  141.59   10.70
  -2   9   3  139.59    6.90
  -2   9   3  137.99    6.60
  -2   9   3  133.39    5.80
   1  -9  -3   -0.20    2.70
   1  -9  -3   -2.30    4.40
   1  -9  -3    2.40    2.00
   1  -9  -3    2.60    3.30
  -1   9   3   -3.00    2.50
  -1   9   3   -2.10    2.60
   0  -9  -3   39.60    6.20
   0  -9  -3   45.30    4.80
   0  -9  -3   40.10    4.70
   0  -9  -3   43.20    3.50
   0   9   3   40.20    4.60
   0   9   3   44.00    5.00
  -1  -9  -3  109.79    8.30
  -1  -9  -3  120.29    6.80
  -1  -9  -3  111.79    6.80
   1   9   3  126.09    7.50
   1   9   3  107.89    6.40
   1   9   3  106.59    5.90
  -2  -9  -3   58.09    4.60
  -2  -9  -3   64.69    6.20
  -2  -9  -3   64.29    5.10
   2   9   3   59.79    5.30
   2   9   3   59.99    5.30
   2   9   3   66.69    6.30
  -3  -9  -3   47.60    6.30
  -3  -9  -3   49.60    4.70
   3   9   3   50.99    6.20
   3   9   3   59.29    6.40
   3   9   3   47.40    4.50
  -4  -9  -3   54.99    8.60
   4   9   3   61.09    7.40
   4   9   3   46.60    5.60
   4   9   3   45.80    4.60
  -5  -9  -3   41.70    8.90
   5   9   3   41.30    6.00
  -6  -9  -3    1.30    7.00
   6   9   3    2.00    4.10
   4 -10  -3   -0.50    6.40
   4 -10  -3   13.40    6.00
  -4  10   3    1.30    2.90
  -4  10   3   -2.20    2.70
   3 -10  -3   76.49    8.60
   3 -10  -3   75.29    6.90
   3 -10  -3   84.49    8.70
  -3  10   3   74.19    6.10
  -3  10   3   72.09    5.60
   2 -10  -3  190.88   11.50
   2 -10  -3  211.18   11.50
   2 -10  -3  201.88    9.90
   2 -10  -3  205.38    9.00
  -2  10   3  211.88    9.00
  -2  10   3  212.08    8.20
   1 -10  -3   20.70    4.30
   1 -10  -3   22.50    3.30
   1 -10  -3   17.00    6.10
   1 -10  -3   24.50    4.00
  -1  10   3   24.80    3.40
  -1  10   3   19.40    4.20
   0 -10  -3  111.29    7.60
   0 -10  -3  107.89    9.30
   0 -10  -3  112.99    6.80
   0  10   3  109.59    7.30
   0  10   3  122.79    7.40
  -1 -10  -3   39.50    4.50
  -1 -10  -3   46.00    5.00
  -1 -10  -3   37.70    5.50
   1  10   3   40.20    4.50
   1  10   3   36.40    5.40
  -2 -10  -3   37.70    4.90
  -2 -10  -3   47.50    5.80
   2  10   3   40.60    4.90
   2  10   3   48.00    5.30
   2  10   3   49.20    5.20
  -3 -10  -3   56.09    7.40
  -3 -10  -3   61.59    5.50
   3  10   3   65.09    6.90
   3  10   3   66.39    7.10
   3  10   3   58.19    6.00
  -4 -10  -3    1.70    2.70
  -4 -10  -3   -1.70    6.60
   4  10   3    4.30    5.40
   4  10   3    4.90    3.40
   4  10   3    1.20    3.50
  -5 -10  -3   61.49   10.50
   5  10   3   56.99    8.00
   3 -11  -3   22.90    5.10
   3 -11  -3   34.40    5.70
   3 -11  -3   14.30    7.20
  -3  11   3   25.10    4.50
  -3  11   3   27.30    4.20
   2 -11  -3    6.90    4.20
   2 -11  -3    2.00    4.80
   2 -11  -3   10.50    6.70
  -2  11   3   10.00    3.10
  -2  11   3    8.00    3.70
   1 -11  -3   38.70    6.60
   1 -11  -3   41.10    6.00
   1 -11  -3   46.50    6.00
  -1  11   3   44.70    4.50
  -1  11   3   44.60    5.50
   0 -11  -3    2.60    3.80
   0 -11  -3   -1.10    5.50
   0 -11  -3    0.30    3.70
   0  11   3    0.80    2.90
   0  11   3    2.60    3.70
  -1 -11  -3    9.60    5.60
  -1 -11  -3   10.30    4.00
   1  11   3    6.00    3.90
   1  11   3   24.30    5.40
  -2 -11  -3   45.50    6.30
  -2 -11  -3   54.99    6.00
   2  11   3   52.59    6.70
   2  11   3   47.40    5.90
  -3 -11  -3    7.30    4.10
  -3 -11  -3    7.20    3.60
   3  11   3    0.20    3.60
   3  11   3    3.40    3.90
   3  11   3    8.00    7.00
  -4 -11  -3   27.00    4.10
  -4 -11  -3   28.90    9.30
   4  11   3   36.00    5.80
   4  11   3   35.00    5.50
  -5 -11  -3    4.40    7.80
   5  11   3    7.40    4.70
   2 -12  -3   26.00    6.00
   2 -12  -3   21.00    6.20
   2 -12  -3   25.70    5.60
  -2  12   3   15.70    4.10
  -2  12   3   21.80    3.40
   1 -12  -3   76.79    9.80
   1 -12  -3   67.99    7.10
   1 -12  -3   50.19    6.60
  -1  12   3   72.49    6.80
   0 -12  -3   28.30    7.00
   0 -12  -3   19.90    5.20
   0  12   3   24.30    5.10
   0  12   3   23.80    5.30
  -1 -12  -3   38.40    7.50
  -1 -12  -3   45.80    6.40
   1  12   3   36.20    6.30
   1  12   3   40.90    5.90
  -2 -12  -3   19.90    4.00
  -2 -12  -3   27.50    7.00
   2  12   3   17.10    5.00
   2  12   3   18.60    5.90
  -3 -12  -3   60.69    8.20
  -3 -12  -3   50.59    5.90
   3  12   3   51.49    7.60
   3  12   3   48.40    6.50
  -4 -12  -3   14.40    8.50
  -4 -12  -3   20.30    4.10
   4  12   3    4.10    6.20
   4  12   3   11.10    3.80
   1 -13  -3    2.10    4.70
   1 -13  -3    3.40    3.30
  -1  13   3    1.40    4.10
   0 -13  -3   15.80    5.30
   0 -13  -3    5.00    6.20
   0  13   3    8.20    4.80
  -1 -13  -3    9.90    4.80
  -1 -13  -3    5.50    4.90
   1  13   3    8.00    4.70
   1  13   3   19.60    5.70
  -2 -13  -3   16.70    5.40
  -2 -13  -3   14.10    5.10
   2  13   3   19.20    5.80
   2  13   3   13.90    4.60
  -3 -13  -3   35.00    7.60
  -3 -13  -3   22.90    5.10
   3  13   3   14.60    5.50
   3  13   3   25.90    6.90
   3  12  -4    8.70    5.90
   3  12  -4   10.80    4.60
   3  12  -4    8.30    4.60
  -3 -12   4   15.30    4.60
   2  12  -4   -1.80    4.10
   2  12  -4    8.90    4.50
  -2 -12   4   -6.40    3.80
   1  12  -4   15.70    4.00
  -1 -12   4   10.30    5.20
  -1 -12   4   12.50    4.90
   0  12  -4    0.60    4.00
   0 -12   4   -3.70    3.70
   0 -12   4   -2.90    3.00
  -1  12  -4   40.00    6.00
   1 -12   4   32.00    7.70
   1 -12   4   39.50    5.90
  -2  12  -4   21.00    4.70
   4  11  -4   19.40    6.60
   4  11  -4   28.30    5.20
  -4 -11   4   14.00    7.40
   3  11  -4    1.10    4.10
   3  11  -4    1.50    5.40
   3  11  -4    3.20    4.20
  -3 -11   4    6.60    3.90
   2  11  -4   27.70    5.20
   2  11  -4   21.30    5.50
   2  11  -4   26.20    4.80
  -2 -11   4   25.50    5.00
   1  11  -4   35.20    6.00
   1  11  -4   38.10    5.00
  -1 -11   4   38.30    6.20
  -1 -11   4   34.60    5.00
   0  11  -4   61.89    6.80
   0 -11   4   59.49    7.80
   0 -11   4   62.29    6.40
  -1  11  -4   80.49    7.00
   1 -11   4   74.99    9.20
   1 -11   4   73.69    6.90
  -2  11  -4    0.30    3.40
   2 -11   4   -1.40    4.10
   2 -11   4   -4.70    6.30
  -3  11  -4   70.99    6.40
  -3  11  -4   66.69    5.80
   3 -11   4   68.99   10.20
   3 -11   4   84.69    8.30
   5  10  -4   21.80    7.10
  -5 -10   4   23.20    8.00
   4  10  -4   21.80    4.50
   4  10  -4    7.00    4.40
   4  10  -4   18.70    5.60
  -4 -10   4   15.30    3.40
  -4 -10   4   18.40    7.20
   3  10  -4   17.10    4.10
   3  10  -4   25.50    4.60
   3  10  -4   19.50    6.00
  -3 -10   4   32.50    4.70
   2  10  -4   62.29    6.10
   2  10  -4   40.00    6.00
   2  10  -4   45.70    5.90
  -2 -10   4   54.09    6.00
  -2 -10   4   45.30    5.90
   1  10  -4   13.50    4.70
   1  10  -4   15.40    4.00
   1  10  -4   12.30    3.20
  -1 -10   4   24.50    4.80
  -1 -10   4   17.30    4.20
   0  10  -4   36.30    5.80
   0  10  -4   22.40    4.40
   0 -10   4   31.60    4.50
   0 -10   4   30.00    6.20
  -1  10  -4    5.60    3.70
   1 -10   4   -1.70    3.50
   1 -10   4   -6.20    5.10
  -2  10  -4   48.30    5.30
   2 -10   4   46.40    5.80
   2 -10   4   57.29    8.50
   2 -10   4   52.39    6.50
  -3  10  -4   18.90    4.30
  -3  10  -4   21.50    3.60
   3 -10   4   16.60    5.00
   3 -10   4   23.90    5.30
   3 -10   4   11.10    6.90
  -4  10  -4   23.10    4.40
   4 -10   4   28.10    8.40
   4 -10   4   25.70    6.20
   6   9  -4    1.60    6.20
  -6  -9   4    1.90    4.30
  -6  -9   4   -0.70    2.70
   5   9  -4   51.19    7.90
  -5  -9   4   59.29    9.70
  -5  -9   4   53.29    5.60
   4   9  -4    8.20    5.40
   4   9  -4    4.90    3.20
   4   9  -4   -0.20    5.00
  -4  -9   4    2.60    3.10
  -4  -9   4    5.10    3.20
  -4  -9   4   11.90    6.20
   3   9  -4   38.30    6.20
   3   9  -4   48.70    6.40
   3   9  -4   46.10    5.00
  -3  -9   4   44.00    4.90
   2   9  -4   15.10    4.60
   2   9  -4   16.00    3.80
   2   9  -4   10.50    4.50
  -2  -9   4   12.90    3.70
  -2  -9   4   12.10    3.00
   1   9  -4   83.89    6.10
   1   9  -4   93.79    6.50
   1   9  -4   88.79    6.60
  -1  -9   4   95.39    6.60
  -1  -9   4   94.39    7.70
   0   9  -4   11.00    2.70
   0   9  -4   10.10    4.00
   0   9  -4    5.60    3.00
   0  -9   4    8.40    2.80
   0  -9   4   16.50    4.80
  -1   9  -4   86.09    6.50
   1  -9   4  112.99    9.10
   1  -9   4  102.19    6.50
   1  -9   4  106.89    7.40
   1  -9   4  104.79    6.40
  -2   9  -4  116.29    6.80
   2  -9   4  118.59    9.10
   2  -9   4  124.29    7.30
   2  -9   4  119.39    7.00
   2  -9   4  117.49    6.90
  -3   9  -4   -0.40    2.70
  -3   9  -4   -1.50    2.30
   3  -9   4   -0.70    3.70
   3  -9   4   -2.60    3.40
   3  -9   4    0.20    4.40
  -4   9  -4   68.89    6.10
   4  -9   4   67.29    8.50
   4  -9   4   62.49    7.70
   6   8  -4   12.30    6.30
  -6  -8   4    9.20    3.60
  -6  -8   4   12.20    5.20
   5   8  -4   -4.50    8.10
   5   8  -4    2.20    3.90
  -5  -8   4    3.80    3.50
  -5  -8   4   12.10    6.50
   4   8  -4   28.50    4.00
   4   8  -4   32.70    5.20
   4   8  -4   24.20    5.90
  -4  -8   4   36.60    4.80
  -4  -8   4   31.80    7.10
  -4  -8   4   33.70    3.80
   3   8  -4   75.49    6.20
   3   8  -4   76.39    5.60
   3   8  -4   79.29    7.60
  -3  -8   4   68.59    5.30
  -3  -8   4   76.19    5.50
  -3  -8   4   89.09    5.80
   2   8  -4   26.40    4.40
   2   8  -4   19.70    3.00
   2   8  -4   16.00    4.30
  -2  -8   4   20.60    3.70
  -2  -8   4   22.00    3.80
  -2  -8   4   21.30    3.10
   1   8  -4   57.39    5.90
   1   8  -4   59.79    5.20
   1   8  -4   69.99    5.40
  -1  -8   4   61.59    4.10
  -1  -8   4   66.09    6.10
  -1  -8   4   62.39    5.30
   0   8  -4    3.30    2.00
   0   8  -4   -0.70    3.30
   0   8  -4    1.00    2.80
   0  -8   4    2.40    2.10
   0  -8   4   -3.70    3.70
   0  -8   4    3.10    1.80
  -1   8  -4    7.50    2.90
  -1   8  -4    4.80    2.90
   1  -8   4   11.10    2.90
   1  -8   4    3.40    3.00
   1  -8   4    8.70    3.40
   1  -8   4    6.70    2.90
  -2   8  -4   10.50    3.10
  -2   8  -4    4.80    1.70
   2  -8   4    7.00    2.90
   2  -8   4    8.40    5.00
   2  -8   4   10.30    3.40
  -3   8  -4   58.19    4.80
  -3   8  -4   58.69    4.70
   3  -8   4   69.59    6.10
   3  -8   4   70.19    8.70
  -4   8  -4    8.00    3.00
   4  -8   4    4.00    6.00
  -5   8  -4    2.00    3.00
   5  -8   4    3.70    6.90
   6   7  -4   30.50    5.50
  -6  -7   4   38.20    7.90
  -6  -7   4   34.70    5.80
   5   7  -4   11.40    4.30
   5   7  -4   12.90    5.20
  -5  -7   4   13.70    6.20
  -5  -7   4   13.20    3.50
   4   7  -4  252.47   11.00
   4   7  -4  262.17    8.90
   4   7  -4  253.07   11.40
  -4  -7   4  260.47   10.70
  -4  -7   4  254.27   13.20
   3   7  -4   10.30    3.30
   3   7  -4    8.20    2.20
   3   7  -4    1.60    4.50
  -3  -7   4   12.80    2.70
  -3  -7   4    5.50    2.60
   2   7  -4  125.19    7.00
   2   7  -4  117.79    8.60
   2   7  -4  121.29    6.10
  -2  -7   4  129.69    5.90
  -2  -7   4  123.09    6.10
  -2  -7   4  109.19    6.20
   1   7  -4   23.80    3.50
   1   7  -4   17.10    3.50
   1   7  -4   19.30    2.70
  -1  -7   4   17.40    1.80
  -1  -7   4   17.40    3.30
  -1  -7   4   18.10    2.40
  -1  -7   4   10.10    3.40
   0   7  -4  120.49    7.10
   0   7  -4  120.29    5.10
   0   7  -4  121.79    5.90
   0  -7   4  120.09    5.80
   0  -7   4  115.39    7.40
   0  -7   4  125.79    6.30
   0  -7   4  113.29    4.90
  -1   7  -4   27.20    3.10
  -1   7  -4   25.80    2.40
  -1   7  -4   21.20    1.80
  -1   7  -4   24.30    4.20
   1  -7   4   23.20    3.60
   1  -7   4   27.10    3.80
   1  -7   4   21.10    4.90
  -2   7  -4   57.89    4.40
  -2   7  -4   62.09    3.30
  -2   7  -4   61.39    3.50
   2  -7   4   59.59    4.40
   2  -7   4   68.89    6.50
   2  -7   4   66.39    5.40
  -3   7  -4  188.58    6.90
  -3   7  -4  197.48    7.30
  -3   7  -4  197.88    7.20
   3  -7   4  190.48   10.50
   3  -7   4  186.18    8.30
   3  -7   4  204.78    8.70
  -4   7  -4    4.60    2.00
  -4   7  -4    2.50    2.40
   4  -7   4    6.90    4.50
  -5   7  -4   36.90    4.80
  -5   7  -4   38.70    4.40
   5  -7   4   43.70    7.40
   7   6  -4   48.00    7.60
  -7  -6   4   41.00    7.20
  -7  -6   4   39.30    5.90
   6   6  -4   39.50    5.90
  -6  -6   4   42.80    6.80
  -6  -6   4   39.70    6.00
   5   6  -4   60.69    6.90
   5   6  -4   52.29    6.20
  -5  -6   4   62.29    6.40
  -5  -6   4   84.19    9.20
   4   6  -4  115.39    7.00
   4   6  -4  134.29    8.50
   4   6  -4  117.89    5.60
  -4  -6   4  127.39    7.50
  -4  -6   4  136.39    9.70
   3   6  -4  153.08    8.80
   3   6  -4  154.58    6.20
   3   6  -4  162.08    7.90
  -3  -6   4  155.18    5.90
  -3  -6   4  159.48    6.90
  -3  -6   4  151.68    9.10
   2   6  -4  124.49    5.50
   2   6  -4  125.49    8.40
   2   6  -4  117.79    6.40
  -2  -6   4  116.49    5.40
  -2  -6   4  109.99    5.40
  -2  -6   4  105.99    4.20
  -2  -6   4  129.69    5.80
   1   6  -4   12.90    3.00
   1   6  -4   17.90    3.60
   1   6  -4   12.60    2.20
  -1  -6   4   12.50    1.40
  -1  -6   4   20.30    3.30
  -1  -6   4   16.50    2.90
   0   6  -4   90.79    2.80
   0   6  -4   91.69    4.30
   0   6  -4   97.89    5.10
   0   6  -4   92.79    6.30
   0  -6   4   88.79    5.50
   0  -6   4   99.19    6.40
   0  -6   4   85.09    4.60
  -1   6  -4   49.60    2.50
  -1   6  -4   47.40    2.50
  -1   6  -4   47.30    4.30
  -1   6  -4   54.89    4.10
   1  -6   4   47.60    3.70
   1  -6   4   51.69    5.50
   1  -6   4   45.90    4.40
  -2   6  -4    4.90    2.20
  -2   6  -4    4.30    1.50
  -2   6  -4    6.20    1.50
   2  -6   4    2.90    2.90
   2  -6   4    4.20    3.00
   2  -6   4    7.00    2.00
  -3   6  -4   96.59    5.10
  -3   6  -4  106.99    4.30
  -3   6  -4  117.09    5.40
  -3   6  -4   99.59    4.70
   3  -6   4  102.99    6.10
   3  -6   4  117.79    8.10
   3  -6   4  105.59    6.00
  -4   6  -4   16.30    3.10
  -4   6  -4   14.50    2.80
  -4   6  -4   16.10    2.30
   4  -6   4   13.50    4.20
   4  -6   4   11.60    5.50
  -5   6  -4   10.20    3.30
  -5   6  -4   17.10    3.30
   5  -6   4   16.70    6.40
  -6   6  -4   -0.10    1.80
  -6   6  -4   -1.10    2.00
   6  -6   4   11.80    5.40
   7   5  -4   13.90    4.70
  -7  -5   4   15.20    4.40
  -7  -5   4   23.50    7.30
   6   5  -4   13.60    4.50
   6   5  -4   17.30    4.30
  -6  -5   4   17.90    6.00
  -6  -5   4   17.70    5.00
   5   5  -4  135.59    8.70
   5   5  -4  129.19    8.30
  -5  -5   4  140.99   10.20
  -5  -5   4  127.19    7.70
   4   5  -4   93.29    6.90
   4   5  -4   94.19    6.90
   4   5  -4  103.09    4.80
  -4  -5   4  100.09    6.10
  -4  -5   4  105.49    8.60
   3   5  -4  410.86    9.90
   3   5  -4  434.56   13.40
   3   5  -4  418.46   10.90
  -3  -5   4  429.96   10.50
  -3  -5   4  434.86   12.60
  -3  -5   4  418.66   14.10
   2   5  -4   98.69    6.90
   2   5  -4   85.69    4.40
   2   5  -4   92.39    5.40
   2   5  -4   93.39    3.90
  -2  -5   4   81.99    4.70
  -2  -5   4   95.59    4.50
  -2  -5   4   85.89    3.60
  -2  -5   4   90.49    4.30
   1   5  -4   13.40    2.40
   1   5  -4    8.00    2.50
   1   5  -4   10.30    4.10
  -1  -5   4    8.30    1.60
  -1  -5   4    9.10    1.10
  -1  -5   4    7.90    1.90
  -1  -5   4    9.00    1.90
   0   5  -4   89.29    3.00
   0   5  -4   95.19    5.40
   0   5  -4  102.59    4.70
   0   5  -4   97.69    4.00
   0  -5   4   96.59    5.00
   0  -5   4   92.99    4.40
   0  -5   4   96.29    5.30
  -1   5  -4   53.49    4.20
  -1   5  -4   56.09    2.70
  -1   5  -4   50.39    3.70
  -1   5  -4   53.19    2.40
  -1   5  -4   51.09    4.80
   1  -5   4   58.79    4.90
   1  -5   4   58.39    4.10
   1  -5   4   47.00    3.90
  -2   5  -4   57.79    3.30
  -2   5  -4   50.39    4.10
  -2   5  -4   55.59    3.40
  -2   5  -4   54.89    2.70
   2  -5   4   56.49    4.20
   2  -5   4   62.19    5.20
   2  -5   4   65.49    6.10
   2  -5   4   52.89    3.40
  -3   5  -4   41.60    3.10
  -3   5  -4   39.00    3.40
  -3   5  -4   43.60    2.70
  -3   5  -4   38.70    3.00
   3  -5   4   41.10    3.80
   3  -5   4   50.59    5.40
   3  -5   4   45.40    5.20
   3  -5   4   36.50    3.20
  -4   5  -4  173.68    7.20
  -4   5  -4  169.98    6.00
  -4   5  -4  173.48    6.50
   4  -5   4  170.58   10.70
   4  -5   4  180.48    9.40
  -5   5  -4    1.80    2.80
  -5   5  -4    6.30    2.50
  -5   5  -4   -0.40    1.70
   5  -5   4    0.80    4.50
   5  -5   4    5.50    5.60
  -6   5  -4   21.90    3.20
  -6   5  -4   28.30    4.90
   6  -5   4   34.30    8.00
   7   4  -4    2.80    5.00
  -7  -4   4    2.00    5.30
  -7  -4   4    2.50    3.40
   6   4  -4  149.29    9.80
   6   4  -4  147.49    9.20
  -6  -4   4  163.38   10.10
  -6  -4   4  129.39    9.90
   5   4  -4   11.10    3.80
  -5  -4   4   15.10    4.20
  -5  -4   4   14.00    3.30
   4   4  -4  264.97   10.00
   4   4  -4  251.67    7.30
   4   4  -4  240.98    7.10
  -4  -4   4  256.57   10.00
  -4  -4   4  275.77   11.60
   3   4  -4  153.78    5.10
   3   4  -4  149.69    4.90
   3   4  -4  146.69    7.20
  -3  -4   4  150.88    8.00
  -3  -4   4  137.19    4.80
  -3  -4   4  141.79    6.60
  -3  -4   4  150.38    4.50
   2   4  -4  229.48    8.00
   2   4  -4  220.48    6.40
   2   4  -4  228.58    6.30
  -2  -4   4  230.88    6.60
  -2  -4   4  232.28    7.50
  -2  -4   4  225.38    6.20
  -2  -4   4  219.28    6.20
   1   4  -4  235.58    8.60
   1   4  -4  234.78    6.50
   1   4  -4  238.78    6.70
  -1  -4   4  227.88    6.60
  -1  -4   4  238.88    6.80
  -1  -4   4  231.68    7.60
  -1  -4   4  220.98    6.20
  -1  -4   4  205.38    4.90
   0   4  -4    4.20    1.40
   0   4  -4    2.00    1.60
   0   4  -4    3.40    2.20
   0   4  -4    1.90    1.30
   0  -4   4    2.50    1.70
   0  -4   4    2.40    2.20
   0  -4   4    4.30    2.00
   0  -4   4    4.60    1.60
  -1   4  -4  218.88    5.90
  -1   4  -4  213.68    7.50
  -1   4  -4  218.58    6.40
  -1   4  -4  208.68    4.70
  -1   4  -4  200.78    7.10
   1  -4   4  209.68    7.60
   1  -4   4  205.78    6.70
   1  -4   4  212.28    6.40
   1  -4   4  210.88    7.80
  -2   4  -4  223.78    6.80
  -2   4  -4  223.98    6.50
  -2   4  -4  212.38    5.50
  -2   4  -4  207.98    7.40
   2  -4   4  229.38    7.20
   2  -4   4  215.68    9.10
   2  -4   4  219.58    7.00
   2  -4   4  225.18    8.70
  -3   4  -4  164.98    6.40
  -3   4  -4  171.08    5.10
  -3   4  -4  169.88    5.10
  -3   4  -4  151.38    5.60
   3  -4   4  166.18    8.90
   3  -4   4  163.98    6.10
   3  -4   4  158.18    8.40
   3  -4   4  160.38    6.10
  -4   4  -4  225.38    8.20
  -4   4  -4  227.08    6.90
  -4   4  -4  237.68    7.60
   4  -4   4  222.78    8.30
   4  -4   4  227.08   11.40
   4  -4   4  234.28   10.70
  -5   4  -4   32.60    4.00
  -5   4  -4   31.10    3.10
  -5   4  -4   35.10    3.60
   5  -4   4   29.70    5.40
   5  -4   4   38.80    6.40
  -6   4  -4   15.00    2.80
  -6   4  -4   24.60    3.60
  -6   4  -4   18.10    3.70
   6  -4   4   14.40    5.40
   7   3  -4   28.50    4.80
  -7  -3   4   25.40    6.70
  -7  -3   4   17.10    5.50
   6   3  -4   29.10    5.10
  -6  -3   4   28.20    5.30
  -6  -3   4   33.30    6.50
   5   3  -4   65.29    4.10
   5   3  -4   65.39    6.30
  -5  -3   4   67.89    6.00
  -5  -3   4   64.69    7.30
   4   3  -4  238.78    7.30
   4   3  -4  228.88    8.90
  -4  -3   4  250.77    9.30
  -4  -3   4  252.27   10.80
   3   3  -4   24.10    1.50
   3   3  -4   26.80    2.10
   3   3  -4   25.20    3.50
   3   3  -4   26.00    2.40
  -3  -3   4   23.50    1.90
  -3  -3   4   27.90    1.70
  -3  -3   4   30.00    4.30
  -3  -3   4   24.50    3.30
   2   3  -4 1052.19   23.10
   2   3  -4 1051.29   21.20
   2   3  -4 1072.99   21.20
  -2  -3   4 1049.40   23.30
  -2  -3   4 1037.00   21.10
  -2  -3   4 1043.50   22.60
  -2  -3   4 1034.50   21.40
   1   3  -4  561.54   12.30
   1   3  -4  582.84   12.30
   1   3  -4  565.34   13.70
  -1  -3   4  537.55   11.00
  -1  -3   4  569.64   12.60
  -1  -3   4  551.14   12.30
  -1  -3   4  561.14   11.90
  -1  -3   4  564.24   13.30
   0   3  -4   -0.80    2.50
   0   3  -4    2.20    1.00
   0   3  -4    1.10    1.20
   0  -3   4    1.80    1.10
   0  -3   4    2.50    1.40
   0  -3   4    0.90    2.00
   0  -3   4    3.60    1.40
  -1   3  -4 1230.68   25.50
  -1   3  -4 1193.28   25.50
  -1   3  -4 1228.28   24.40
  -1   3  -4 1228.38   22.70
   1  -3   4 1228.38   25.00
   1  -3   4 1215.88   24.80
   1  -3   4 1230.28   25.70
   1  -3   4 1211.58   25.80
  -2   3  -4    1.30    0.80
  -2   3  -4    0.90    1.30
  -2   3  -4    3.40    1.40
  -2   3  -4    1.10    1.90
   2  -3   4    3.60    3.50
   2  -3   4   -0.10    2.00
  -3   3  -4  658.33   14.80
  -3   3  -4  676.83   14.40
  -3   3  -4  684.83   16.20
  -3   3  -4  656.23   13.90
   3  -3   4  698.03   17.60
   3  -3   4  675.53   16.30
  -4   3  -4  135.89    6.50
  -4   3  -4  153.68    5.60
  -4   3  -4  138.39    5.00
   4  -3   4  142.29    7.90
   4  -3   4  145.39    5.50
   4  -3   4  132.69    7.00
  -5   3  -4   79.19    6.20
  -5   3  -4   67.49    4.20
  -5   3  -4   73.89    4.50
   5  -3   4   81.89    8.00
   5  -3   4   66.39    5.90
  -6   3  -4   10.00    3.70
  -6   3  -4    6.90    2.40
  -6   3  -4    5.70    2.50
   6  -3   4    4.00    5.40
   6  -3   4    2.20    4.20
  -7   3  -4   20.60    3.00
  -7   3  -4   13.70    4.60
   7  -3   4   15.40    7.20
   7   2  -4   43.70    6.30
   7   2  -4   40.50    5.90
  -7  -2   4   42.00    6.90
  -7  -2   4   37.30    6.40
   6   2  -4   10.90    4.20
  -6  -2   4   21.00    4.90
  -6  -2   4   13.80    4.40
   5   2  -4   88.39    5.00
   5   2  -4   93.49    6.90
  -5  -2   4   91.49    5.10
  -5  -2   4   80.19    6.60
  -5  -2   4  105.99    8.60
   4   2  -4   42.50    4.50
   4   2  -4   40.90    3.30
   4   2  -4   44.80    3.40
  -4  -2   4   41.00    3.20
  -4  -2   4   45.70    5.40
  -4  -2   4   35.80    4.20
   3   2  -4  549.85   12.10
   3   2  -4  544.45   14.60
   3   2  -4  546.25   11.70
   3   2  -4  573.24   13.00
  -3  -2   4  559.94   12.70
  -3  -2   4  562.64   14.60
  -3  -2   4  555.84   15.00
   2   2  -4  215.68    7.20
   2   2  -4  207.38    4.80
   2   2  -4  210.38    5.10
   2   2  -4  230.18    6.20
   2   2  -4  225.68    5.60
  -2  -2   4  219.48    5.40
  -2  -2   4  219.28    6.10
  -2  -2   4  220.08    5.70
  -2  -2   4  219.48    6.80
  -2  -2   4  223.18    7.30
   1   2  -4   88.49    4.30
   1   2  -4   93.89    2.60
   1   2  -4   95.59    3.50
   1   2  -4   97.99    3.30
  -1  -2   4   97.39    3.30
  -1  -2   4   99.49    3.90
  -1  -2   4   93.29    2.40
  -1  -2   4   91.49    3.30
   0   2  -4   67.89    1.70
   0   2  -4   72.69    3.80
   0   2  -4   78.49    3.50
   0   2  -4   70.89    3.70
   0   2  -4   74.49    3.00
   0  -2   4   70.79    3.10
   0  -2   4   74.99    3.30
   0  -2   4   73.89    4.00
   0  -2   4   72.19    2.80
   0  -2   4   71.29    3.00
  -1   2  -4   51.79    3.50
  -1   2  -4   59.19    3.90
  -1   2  -4   58.79    2.70
  -1   2  -4   56.99    1.50
   1  -2   4   57.09    3.50
   1  -2   4   60.29    4.50
   1  -2   4   57.09    3.00
   1  -2   4   58.69    2.90
  -2   2  -4  769.22   18.00
  -2   2  -4  805.62   16.20
  -2   2  -4  818.42   17.40
  -2   2  -4  789.72   15.80
  -2   2  -4  795.62   16.20
   2  -2   4  823.12   18.00
   2  -2   4  791.62   16.90
   2  -2   4  810.72   18.70
  -3   2  -4   79.09    4.40
  -3   2  -4   78.39    3.00
  -3   2  -4   70.19    2.40
  -3   2  -4   74.49    3.20
   3  -2   4   65.39    1.90
   3  -2   4   65.69    5.50
   3  -2   4   84.19    6.60
   3  -2   4   66.29    3.40
  -4   2  -4  168.78    5.80
  -4   2  -4  174.38    5.70
  -4   2  -4  171.58    6.80
   4  -2   4  160.28    8.40
   4  -2   4  168.88    5.70
   4  -2   4  182.38    8.50
  -5   2  -4  150.48    5.70
  -5   2  -4  162.98    6.20
  -5   2  -4  164.78    7.90
   5  -2   4  162.48    8.10
   5  -2   4  155.98    9.20
  -6   2  -4   18.00    4.00
  -6   2  -4   15.10    2.90
   6  -2   4   15.30    6.40
  -7   2  -4   24.10    5.10
  -7   2  -4   26.50    3.70
   7  -2   4   32.70    6.40
   7  -2   4   28.80   11.00
  -7  -1   4   32.20    6.30
  -7  -1   4   18.40    6.30
   6   1  -4    5.20    2.80
   6   1  -4   -0.20    2.30
  -6  -1   4   -0.90    2.30
  -6  -1   4    0.20    2.60
  -6  -1   4    2.00    4.40
   5   1  -4  100.19    7.20
   5   1  -4   88.19    5.40
   5   1  -4   93.19    5.10
  -5  -1   4  106.29    7.20
  -5  -1   4  105.99    7.30
  -5  -1   4  100.79    5.30
   4   1  -4   53.79    3.50
   4   1  -4   51.89    4.50
   4   1  -4   52.09    3.80
  -4  -1   4   53.49    3.60
  -4  -1   4   63.59    5.90
  -4  -1   4   48.90    4.80
   3   1  -4  414.36   10.50
   3   1  -4  418.86    8.90
   3   1  -4  409.36   10.10
   3   1  -4  414.46   12.00
  -3  -1   4  436.06   12.40
  -3  -1   4  420.06   11.60
  -3  -1   4  421.16   10.20
   2   1  -4   63.59    2.30
   2   1  -4   62.89    2.80
   2   1  -4   70.29    3.20
   2   1  -4   65.99    4.00
  -2  -1   4   58.29    3.50
  -2  -1   4   68.19    2.30
  -2  -1   4   67.89    2.80
  -2  -1   4   67.39    3.80
  -2  -1   4   71.59    3.20
   1   1  -4  203.38    6.30
   1   1  -4  191.88    5.70
   1   1  -4  204.78    5.40
   1   1  -4  204.48    5.00
   1   1  -4  198.18    5.00
  -1  -1   4  201.28    5.30
  -1  -1   4  202.88    5.40
  -1  -1   4  204.48    5.70
  -1  -1   4  205.18    5.50
  -1  -1   4  198.18    4.70
   0   1  -4 1052.09   21.60
   0   1  -4 1094.09   20.90
   0   1  -4 1087.09   21.80
   0   1  -4 1064.09   20.90
   0   1  -4 1063.19   21.20
   0  -1   4 1081.59   21.70
   0  -1   4 1057.99   21.10
   0  -1   4 1053.89   21.20
   0  -1   4 1049.20   21.90
  -1   1  -4 1386.76   26.80
  -1   1  -4 1323.67   25.30
  -1   1  -4 1355.36   26.20
  -1   1  -4 1356.66   27.60
   1  -1   4 1371.66   26.70
   1  -1   4 1359.66   27.20
   1  -1   4 1337.67   25.60
   1  -1   4 1355.36   27.70
   1  -1   4 1343.27   26.60
  -2   1  -4 1164.78   25.10
  -2   1  -4 1202.28   22.70
  -2   1  -4 1174.38   22.90
  -2   1  -4 1197.28   24.30
  -2   1  -4 1194.58   22.90
   2  -1   4 1153.08   22.20
   2  -1   4 1192.48   25.70
   2  -1   4 1229.08   25.30
   2  -1   4 1156.98   23.60
  -3   1  -4    6.70    0.90
  -3   1  -4    5.70    2.10
  -3   1  -4    2.50    1.30
  -3   1  -4    6.20    1.20
  -3   1  -4    8.60    1.30
   3  -1   4    7.40    3.00
   3  -1   4    6.60    1.50
   3  -1   4    7.20    1.30
   3  -1   4    4.70    2.40
  -4   1  -4  526.15   12.30
  -4   1  -4  535.55   15.60
  -4   1  -4  517.65   14.00
  -4   1  -4  547.65   12.30
   4  -1   4  531.95   11.70
   4  -1   4  531.95   15.30
   4  -1   4  513.05   12.10
   4  -1   4  515.75   15.80
  -5   1  -4  117.39    5.10
  -5   1  -4  123.19    5.30
  -5   1  -4  107.69    6.50
   5  -1   4  126.59    8.10
   5  -1   4  128.19    9.60
  -6   1  -4   58.49    4.30
  -6   1  -4   51.09    5.60
   6  -1   4   51.39    8.50
   6  -1   4   52.89    6.80
  -7   1  -4    1.90    1.80
  -7   1  -4    0.80    2.60
   7  -1   4    8.80    7.00
  -7   0   4    0.50    4.00
  -7   0   4    6.30    3.40
   6   0  -4   20.60    3.70
   6   0  -4   14.00    3.50
   6   0  -4   19.90    3.60
   6   0  -4   27.30    4.40
  -6   0   4   12.10    3.20
  -6   0   4   22.00    4.10
  -6   0   4   16.80    3.00
  -6   0   4   18.70    5.50
   5   0  -4   -0.40    1.70
   5   0  -4   -1.60    2.30
   5   0  -4   -0.50    2.10
  -5   0   4    1.40    3.60
  -5   0   4    0.70    1.70
  -5   0   4   -1.10    2.90
  -5   0   4    1.80    2.20
   4   0  -4  149.99    6.40
   4   0  -4  162.58    6.30
   4   0  -4  153.18    6.40
  -4   0   4  161.78    7.50
  -4   0   4  152.78    5.40
  -4   0   4  151.98    5.60
  -4   0   4  144.69    7.70
   3   0  -4   10.20    1.80
   3   0  -4   12.10    1.10
   3   0  -4   12.60    2.10
   3   0  -4   13.70    2.20
  -3   0   4   12.10    1.80
  -3   0   4   15.70    2.70
  -3   0   4   10.20    2.40
  -3   0   4   11.40    1.50
   2   0  -4  302.77    7.10
   2   0  -4  299.97    7.80
   2   0  -4  298.97    7.90
   2   0  -4  295.47    6.70
  -2   0   4  298.97    7.30
  -2   0   4  292.17    8.20
  -2   0   4  302.97    6.20
  -2   0   4  316.47    8.40
  -2   0   4  301.97    7.90
  -2   0   4  305.97    7.00
   1   0  -4 1117.99   22.20
   1   0  -4 1105.89   21.60
   1   0  -4 1123.99   22.40
   1   0  -4 1134.19   23.10
   1   0  -4 1122.49   22.30
   1   0  -4 1108.19   21.00
  -1   0   4 1121.59   21.80
  -1   0   4 1104.79   21.50
  -1   0   4 1119.49   22.10
  -1   0   4 1143.59   22.50
  -1   0   4 1100.59   21.70
   0   0  -4 1016.70   20.80
   0   0  -4 1069.99   21.30
   0   0  -4 1053.19   20.70
   0   0  -4 1036.80   20.40
   0   0  -4 1032.70   20.70
   0   0   4 1041.70   21.20
   0   0   4 1033.30   21.10
   0   0   4 1067.99   20.70
   0   0   4 1064.59   20.80
  -1   0  -4  580.64   12.10
  -1   0  -4  554.94   11.70
  -1   0  -4  560.94   11.40
  -1   0  -4  540.65   10.60
  -1   0  -4  554.34   12.80
  -1   0  -4  545.85   11.80
   1   0   4  552.54   10.60
   1   0   4  557.74   13.20
   1   0   4  561.84   11.80
   1   0   4  558.24   12.90
   1   0   4  549.54   11.70
   1   0   4  536.05   11.00
  -2   0  -4    3.80    1.60
  -2   0  -4    5.50    1.50
  -2   0  -4    4.50    0.70
  -2   0  -4    1.70    1.70
  -2   0  -4    5.40    1.00
   2   0   4    6.10    1.30
   2   0   4    6.20    1.60
   2   0   4    5.20    1.90
   2   0   4    4.90    1.20
   2   0   4    5.80    2.20
  -3   0  -4  348.77    8.20
  -3   0  -4  364.56   11.20
  -3   0  -4  356.66    9.80
   3   0   4  359.16   11.40
   3   0   4  347.37    8.20
   3   0   4  344.27    8.40
   3   0   4  368.86   10.80
  -4   0  -4   92.39    5.20
  -4   0  -4   90.39    3.80
  -4   0  -4   89.19    5.90
   4   0   4   85.49    6.80
   4   0   4   91.99    3.60
   4   0   4   85.49    4.10
   4   0   4   86.29    7.50
  -5   0  -4  172.88    7.80
  -5   0  -4  168.48    9.00
  -5   0  -4  177.38    6.10
   5   0   4  168.08    9.40
   5   0   4  155.58    6.10
   5   0   4  169.98   10.70
  -6   0  -4   96.09    6.30
  -6   0  -4   90.39    8.40
  -6   0  -4   90.09    5.00
   6   0   4   85.29    7.60
   6   0   4   95.69    9.90
  -7   0  -4    2.20    3.70
  -7   0  -4    1.10    2.20
   7   0   4    2.80    7.00
  -7   1   4   17.80    5.30
  -7   1   4   15.70    3.30
  -7   1   4    9.90    3.30
   6  -1  -4   88.69    6.70
   6  -1  -4  101.79    6.90
   6  -1  -4  113.19    7.70
  -6   1   4   88.49    4.90
  -6   1   4   96.59    7.80
  -6   1   4  106.79    5.90
   5  -1  -4   15.00    3.50
   5  -1  -4   12.10    3.00
   5  -1  -4   13.20    3.60
  -5   1   4   11.50    2.00
  -5   1   4   14.10    2.30
  -5   1   4   11.00    3.50
   4  -1  -4  404.36   12.10
   4  -1  -4  417.26   12.20
   4  -1  -4  416.46   12.10
  -4   1   4  420.36   12.40
  -4   1   4  417.86   10.50
  -4   1   4  417.66   11.00
   3  -1  -4   12.30    2.00
   3  -1  -4   12.80    2.50
   3  -1  -4   14.50    2.50
   3  -1  -4   14.30    1.30
  -3   1   4   13.90    1.80
  -3   1   4   12.90    1.70
  -3   1   4   17.90    3.20
  -3   1   4   14.60    2.20
   2  -1  -4 1280.57   25.90
   2  -1  -4 1254.77   24.40
   2  -1  -4 1300.77   25.50
   2  -1  -4 1257.67   25.90
  -2   1   4 1249.38   25.10
  -2   1   4 1264.27   24.60
  -2   1   4 1247.48   26.00
  -2   1   4 1248.78   23.80
   1  -1  -4 1206.88   24.40
   1  -1  -4 1215.18   23.60
   1  -1  -4 1228.28   24.40
   1  -1  -4 1217.28   23.90
   1  -1  -4 1222.68   23.70
  -1   1   4 1221.48   24.40
  -1   1   4 1209.08   23.50
  -1   1   4 1210.38   23.60
  -1   1   4 1220.98   23.40
  -1   1   4 1231.88   23.20
   0  -1  -4  328.17    6.30
   0  -1  -4  329.27    7.70
   0  -1  -4  334.57    7.60
   0  -1  -4  331.37    7.50
   0  -1  -4  340.47    8.00
   0  -1  -4  334.37    7.70
   0  -1  -4  325.67    8.30
   0   1   4  328.67    7.80
   0   1   4  329.57    6.30
   0   1   4  323.97    7.50
   0   1   4  333.47    7.90
   0   1   4  331.57    7.70
   0   1   4  320.97    7.50
  -1  -1  -4    2.80    1.20
  -1  -1  -4    0.30    1.20
  -1  -1  -4    2.50    1.00
  -1  -1  -4    2.00    1.00
  -1  -1  -4    1.50    0.70
  -1  -1  -4    1.40    1.20
   1   1   4    2.20    1.10
   1   1   4    0.40    2.10
   1   1   4    2.30    1.10
   1   1   4    1.40    1.30
   1   1   4    1.40    0.60
   1   1   4    0.80    1.50
  -2  -1  -4  588.54   14.10
  -2  -1  -4  573.24   11.80
  -2  -1  -4  581.24   11.50
  -2  -1  -4  553.94   14.10
   2   1   4  580.54   14.60
   2   1   4  590.64   12.30
   2   1   4  580.14   12.40
   2   1   4  601.94   12.00
   2   1   4  586.94   12.50
   2   1   4  584.44   14.20
  -3  -1  -4 1143.89   22.40
  -3  -1  -4 1148.89   24.30
  -3  -1  -4 1133.79   26.00
  -3  -1  -4 1134.19   21.50
   3   1   4 1130.99   23.30
   3   1   4 1150.78   23.10
   3   1   4 1132.29   22.80
   3   1   4 1155.38   25.80
   3   1   4 1154.08   26.40
  -4  -1  -4    1.00    1.20
  -4  -1  -4   -1.40    1.30
  -4  -1  -4    0.90    2.20
   4   1   4    1.40    3.50
   4   1   4    4.60    4.10
   4   1   4   -1.40    2.20
   4   1   4   -0.10    1.30
  -5  -1  -4  240.18    7.20
  -5  -1  -4  227.18    8.70
  -5  -1  -4  250.67   11.90
   5   1   4  253.97   12.70
   5   1   4  234.78    8.00
   5   1   4  249.18   11.40
  -6  -1  -4   47.50    3.80
  -6  -1  -4   43.60    6.40
  -6  -1  -4   48.70    5.40
   6   1   4   40.50    6.40
   6   1   4   48.40    7.10
  -7  -1  -4   26.20    7.10
  -7  -1  -4   15.90    3.80
   7   1   4   25.90    6.70
   7  -2  -4   53.89    7.10
  -7   2   4   71.19    5.70
  -7   2   4   73.69    6.40
   6  -2  -4   10.80    3.60
   6  -2  -4    6.40    4.40
   6  -2  -4    9.60    4.20
  -6   2   4   11.30    2.40
  -6   2   4   19.00    3.60
  -6   2   4   13.30    4.10
   5  -2  -4   13.20    3.80
   5  -2  -4    6.10    2.30
   5  -2  -4    6.90    2.60
  -5   2   4    5.40    2.10
  -5   2   4    9.00    2.70
  -5   2   4    3.80    3.00
   4  -2  -4  187.28    7.50
   4  -2  -4  163.78    7.80
   4  -2  -4  194.58    8.10
  -4   2   4  163.78    6.20
  -4   2   4  175.28    6.00
  -4   2   4  186.68    7.80
   3  -2  -4  180.98    7.10
   3  -2  -4  174.58    7.20
   3  -2  -4  173.48    4.90
   3  -2  -4  189.48    6.80
  -3   2   4  184.28    6.00
  -3   2   4  176.18    5.40
  -3   2   4  196.88    7.10
   2  -2  -4  258.67    6.30
   2  -2  -4  249.68    7.40
   2  -2  -4  255.67    6.30
   2  -2  -4  259.27    7.70
   2  -2  -4  261.47    7.50
  -2   2   4  257.57    6.30
  -2   2   4  252.67    5.80
  -2   2   4  257.07    6.80
  -2   2   4  256.77    7.30
   1  -2  -4  609.04   12.80
   1  -2  -4  593.14   11.90
   1  -2  -4  608.54   13.80
   1  -2  -4  610.24   12.60
   1  -2  -4  620.24   13.50
   1  -2  -4  607.34   13.40
  -1   2   4  600.44   13.40
  -1   2   4  604.34   12.60
  -1   2   4  618.94   12.20
   0  -2  -4  132.89    4.00
   0  -2  -4  129.79    4.30
   0  -2  -4  125.59    4.40
   0  -2  -4  124.29    4.40
   0  -2  -4  126.89    3.80
   0   2   4  126.39    3.80
   0   2   4  123.99    4.10
   0   2   4  122.29    4.10
   0   2   4  124.59    3.90
   0   2   4  125.89    2.80
   0   2   4  123.99    3.90
  -1  -2  -4   98.79    3.20
  -1  -2  -4  100.59    4.20
  -1  -2  -4  104.19    3.20
  -1  -2  -4   95.69    4.30
  -1  -2  -4   93.39    2.40
   1   2   4   99.69    2.20
   1   2   4  105.49    4.60
   1   2   4  101.49    3.20
   1   2   4  102.99    4.60
   1   2   4  106.49    3.90
   1   2   4  103.39    3.40
  -2  -2  -4  285.37    6.70
  -2  -2  -4  266.57    8.40
  -2  -2  -4  293.77    8.90
   2   2   4  288.87    6.70
   2   2   4  285.67    7.40
   2   2   4  279.57    7.10
   2   2   4  305.07    9.10
  -3  -2  -4  117.39    3.20
  -3  -2  -4  118.19    6.70
  -3  -2  -4  116.29    4.70
   3   2   4  121.19    4.20
   3   2   4  120.99    3.30
   3   2   4  125.49    6.90
   3   2   4  123.49    4.20
   3   2   4  126.59    5.20
  -4  -2  -4   87.59    7.10
  -4  -2  -4   98.69    5.20
   4   2   4   83.69    5.20
   4   2   4   91.89    7.30
   4   2   4   78.59    3.60
  -5  -2  -4   34.20    6.00
  -5  -2  -4   25.70    3.20
   5   2   4   14.90    4.30
   5   2   4   18.20    5.30
   5   2   4   26.40    3.80
  -6  -2  -4   57.89    8.20
  -6  -2  -4   54.59    5.70
   6   2   4   49.30    7.20
   6   2   4   51.69    6.30
   6   2   4   47.00    5.20
  -7  -2  -4   74.09    9.60
  -7  -2  -4   58.99    5.90
   7   2   4   60.39    8.30
  -7   3   4   50.49    4.90
  -7   3   4   44.70    5.00
   6  -3  -4    9.80    5.10
   6  -3  -4    8.90    4.40
  -6   3   4    7.00    3.20
  -6   3   4   11.70    2.50
  -6   3   4    8.20    3.80
   5  -3  -4   73.59    7.00
   5  -3  -4   67.39    6.40
   5  -3  -4   65.29    5.30
  -5   3   4   65.49    5.60
  -5   3   4   64.29    5.00
  -5   3   4   70.29    4.10
   4  -3  -4    8.60    2.70
   4  -3  -4   14.20    2.40
   4  -3  -4   11.40    2.40
   4  -3  -4   14.70    3.40
  -4   3   4   11.00    1.80
  -4   3   4    9.40    2.30
  -4   3   4   12.30    2.80
   3  -3  -4 1553.84   32.70
   3  -3  -4 1515.65   30.20
   3  -3  -4 1522.75   33.00
   3  -3  -4 1545.05   33.00
   3  -3  -4 1505.45   29.90
  -3   3   4 1554.34   32.00
  -3   3   4 1541.55   31.40
  -3   3   4 1533.25   30.60
   2  -3  -4   48.50    3.50
   2  -3  -4   47.50    3.80
   2  -3  -4   43.60    2.10
   2  -3  -4   47.10    2.60
   2  -3  -4   48.90    3.50
  -2   3   4   45.50    2.80
  -2   3   4   47.40    2.50
  -2   3   4   45.40    2.40
  -2   3   4   44.90    2.80
   1  -3  -4  218.28    5.40
   1  -3  -4  212.78    5.90
   1  -3  -4  210.88    6.30
   1  -3  -4  224.18    6.80
   1  -3  -4  219.58    7.10
  -1   3   4  220.78    5.20
  -1   3   4  219.38    5.80
  -1   3   4  222.58    5.10
  -1   3   4  208.38    6.10
  -1   3   4  217.18    5.50
   0  -3  -4  535.75   12.00
   0  -3  -4  577.74   12.30
   0  -3  -4  544.25   12.70
   0  -3  -4  560.44   12.80
   0  -3  -4  552.64   11.90
   0   3   4  552.04   12.00
   0   3   4  547.15   12.10
   0   3   4  542.65   11.70
   0   3   4  553.54   12.30
   0   3   4  552.34   12.20
  -1  -3  -4   75.09    2.40
  -1  -3  -4   73.09    3.70
  -1  -3  -4   73.19    3.20
  -1  -3  -4   75.09    3.60
  -1  -3  -4   72.59    2.70
  -1  -3  -4   70.39    3.50
   1   3   4   77.79    3.80
   1   3   4   67.69    3.20
   1   3   4   75.99    3.10
   1   3   4   72.29    2.60
  -2  -3  -4   20.20    2.70
  -2  -3  -4   19.00    1.60
  -2  -3  -4   20.70    2.50
   2   3   4   17.00    1.40
   2   3   4   16.40    1.90
   2   3   4   20.20    2.70
   2   3   4   16.80    3.00
  -3  -3  -4  328.77   10.90
  -3  -3  -4  316.97    8.80
  -3  -3  -4  305.07    7.20
   3   3   4  298.17   10.70
   3   3   4  319.17    8.10
   3   3   4  323.97    9.20
  -4  -3  -4  341.87   12.70
  -4  -3  -4  365.36   10.60
   4   3   4  359.56   13.00
   4   3   4  336.67    9.30
   4   3   4  383.76   10.80
   4   3   4  351.06    9.10
  -5  -3  -4    5.80    2.00
  -5  -3  -4    7.20    4.40
   5   3   4    1.50    3.20
   5   3   4    2.20    3.30
  -6  -3  -4  117.79   10.80
  -6  -3  -4  122.69    7.60
   6   3   4  133.49   11.00
   6   3   4  138.39   10.40
  -7  -3  -4    5.70    2.90
  -7  -3  -4    7.10    5.00
   7   3   4    6.50    7.10
   7  -4  -4    3.10    4.90
  -7   4   4    2.50    2.90
  -7   4   4   -0.40    3.40
   6  -4  -4  162.98    9.60
   6  -4  -4  150.38   11.10
  -6   4   4  152.18    7.50
  -6   4   4  142.29    6.70
   5  -4  -4   30.20    4.50
   5  -4  -4   25.40    4.80
   5  -4  -4   30.70    4.90
  -5   4   4   20.80    3.10
  -5   4   4   28.40    3.30
  -5   4   4   33.00    3.30
   4  -4  -4  258.77   10.00
   4  -4  -4  241.78    9.30
   4  -4  -4  239.08   10.70
  -4   4   4  238.68    8.40
  -4   4   4  247.98    8.70
  -4   4   4  256.87    7.90
   3  -4  -4  423.86   12.60
   3  -4  -4  416.26   10.50
   3  -4  -4  417.86   13.30
   3  -4  -4  418.96    8.90
   3  -4  -4  429.56   12.40
  -3   4   4  408.96   10.20
  -3   4   4  409.46    8.50
  -3   4   4  397.46   10.90
  -3   4   4  419.26   11.00
   2  -4  -4  392.16   11.30
   2  -4  -4  370.66   11.00
   2  -4  -4  373.06   10.40
   2  -4  -4  364.36    9.40
  -2   4   4  371.46    9.40
  -2   4   4  374.56    8.90
  -2   4   4  374.06    9.00
  -2   4   4  369.36    9.10
   1  -4  -4  194.28    6.00
   1  -4  -4  191.68    7.00
   1  -4  -4  208.08    7.20
   1  -4  -4  198.98    6.20
   1  -4  -4  193.48    4.50
  -1   4   4  193.38    5.80
  -1   4   4  191.38    4.90
  -1   4   4  198.58    4.40
  -1   4   4  193.88    5.00
  -1   4   4  194.18    6.10
   0  -4  -4  182.48    6.40
   0  -4  -4  183.78    5.60
   0  -4  -4  179.48    5.30
   0  -4  -4  182.18    6.50
   0   4   4  188.28    6.00
   0   4   4  181.28    5.50
   0   4   4  181.88    5.40
  -1  -4  -4 1144.49   24.00
  -1  -4  -4 1133.09   22.30
  -1  -4  -4 1156.58   24.60
  -1  -4  -4 1158.58   23.40
   1   4   4 1169.58   23.60
   1   4   4 1091.69   22.20
   1   4   4 1148.79   24.30
   1   4   4 1135.19   23.40
  -2  -4  -4   21.30    2.10
  -2  -4  -4   20.60    2.70
   2   4   4   20.10    1.30
   2   4   4   22.30    3.10
   2   4   4   20.60    2.10
   2   4   4   27.10    3.60
  -3  -4  -4  223.28    6.70
  -3  -4  -4  214.68    5.90
  -3  -4  -4  222.98    9.60
   3   4   4  215.18    7.80
   3   4   4  213.98    6.40
   3   4   4  209.68    5.10
   3   4   4  208.68    8.60
  -4  -4  -4  386.06   14.10
  -4  -4  -4  370.36   10.60
  -4  -4  -4  363.06    7.60
   4   4   4  380.46   13.70
   4   4   4  368.76   11.30
   4   4   4  380.16    9.80
  -5  -4  -4   35.50    3.90
  -5  -4  -4   39.60    6.80
   5   4   4   35.00    4.90
   5   4   4   40.10    6.20
  -6  -4  -4   18.50    6.30
  -6  -4  -4   18.80    3.30
   6   4   4   20.20    4.90
   6   4   4   18.70    6.10
  -7  -4  -4   18.90    7.10
  -7  -4  -4   29.10    4.80
   7   4   4   25.90    8.50
   7   4   4   27.30    5.70
   6  -5  -4  167.68   11.40
   6  -5  -4  164.68   12.10
  -6   5   4  171.98    8.00
  -6   5   4  163.28    8.70
   5  -5  -4   14.20    4.40
   5  -5  -4   10.70    3.60
   5  -5  -4   11.90    3.00
  -5   5   4   12.00    3.30
  -5   5   4   12.20    2.90
   4  -5  -4   72.29    7.20
   4  -5  -4   67.89    5.70
   4  -5  -4   67.09    6.00
  -4   5   4   74.19    4.70
  -4   5   4   71.79    4.40
  -4   5   4   66.99    4.30
   3  -5  -4   49.70    5.10
   3  -5  -4   44.90    5.60
   3  -5  -4   47.80    4.20
   3  -5  -4   42.60    3.40
  -3   5   4   37.80    3.00
  -3   5   4   38.20    3.50
  -3   5   4   38.30    3.10
  -3   5   4   43.40    2.40
   2  -5  -4  961.00   21.50
   2  -5  -4  952.00   22.80
   2  -5  -4  928.51   22.10
   2  -5  -4  934.71   20.30
  -2   5   4  920.31   19.40
  -2   5   4  884.91   18.90
  -2   5   4  929.51   19.50
   1  -5  -4   83.99    4.30
   1  -5  -4   79.39    6.10
   1  -5  -4   77.89    3.90
   1  -5  -4   82.99    4.70
  -1   5   4   87.19    4.20
  -1   5   4   81.39    4.30
  -1   5   4   79.29    2.40
   0  -5  -4   57.79    3.00
   0  -5  -4   52.29    4.20
   0  -5  -4   59.19    4.90
   0  -5  -4   51.39    3.20
   0   5   4   51.09    3.00
   0   5   4   56.39    3.50
   0   5   4   55.09    4.20
  -1  -5  -4  240.28    6.00
  -1  -5  -4  247.08    7.20
  -1  -5  -4  249.88    8.80
  -1  -5  -4  244.88    7.90
   1   5   4  247.18    7.90
   1   5   4  249.28    7.40
   1   5   4  243.58    7.80
  -2  -5  -4    4.40    2.20
  -2  -5  -4    1.70    1.70
  -2  -5  -4    1.10    2.20
   2   5   4    3.90    3.00
   2   5   4    5.70    2.90
   2   5   4    3.00    2.00
  -3  -5  -4   13.30    2.00
  -3  -5  -4   15.60    2.10
  -3  -5  -4    9.80    4.10
   3   5   4   12.60    3.40
   3   5   4   19.40    3.90
   3   5   4   13.80    2.00
  -4  -5  -4   18.10    4.10
  -4  -5  -4   22.10    2.90
   4   5   4   18.60    2.60
   4   5   4   21.30    4.20
   4   5   4   20.60    4.90
  -5  -5  -4  135.39    9.30
  -5  -5  -4  133.59    6.20
   5   5   4  141.49    8.40
   5   5   4  156.28    9.60
  -6  -5  -4    5.40    4.20
  -6  -5  -4    5.80    2.90
   6   5   4   -2.90    4.40
  -7  -5  -4   26.90    7.60
  -7  -5  -4   26.30    3.90
   7   5   4   19.60    5.70
   6  -6  -4    3.70    5.20
   6  -6  -4    2.30    4.20
  -6   6   4    4.80    3.30
  -6   6   4    4.00    2.90
   5  -6  -4  281.67   13.30
   5  -6  -4  252.77   12.30
  -5   6   4  285.17   10.70
  -5   6   4  269.77    9.30
   4  -6  -4   -2.60    4.30
   4  -6  -4    1.90    2.60
   4  -6  -4   -0.10    2.70
  -4   6   4   -1.10    1.90
  -4   6   4    1.60    2.30
   3  -6  -4  175.58    7.80
   3  -6  -4  190.68    9.10
   3  -6  -4  182.88    6.90
   3  -6  -4  172.78    9.00
  -3   6   4  186.38    6.20
  -3   6   4  173.08    5.60
  -3   6   4  174.58    7.00
   2  -6  -4  620.74   17.60
   2  -6  -4  649.14   17.60
   2  -6  -4  616.84   16.00
   2  -6  -4  630.34   15.50
  -2   6   4  626.84   15.20
  -2   6   4  623.14   14.60
  -2   6   4  642.54   14.40
   1  -6  -4  213.38    8.40
   1  -6  -4  193.08    9.00
   1  -6  -4  193.88    6.90
   1  -6  -4  198.48    7.20
  -1   6   4  208.58    7.20
  -1   6   4  197.18    6.90
   0  -6  -4   49.00    5.20
   0  -6  -4   47.30    3.00
   0  -6  -4   57.39    4.60
   0  -6  -4   48.60    3.40
   0   6   4   46.10    4.30
   0   6   4   48.10    3.80
   0   6   4   41.60    3.20
  -1  -6  -4  157.38    7.20
  -1  -6  -4  162.58    4.70
  -1  -6  -4  169.28    7.10
  -1  -6  -4  164.38    6.20
   1   6   4  162.88    6.50
   1   6   4  166.18    6.30
   1   6   4  162.28    6.80
  -2  -6  -4  527.25   10.10
  -2  -6  -4  517.55   13.30
  -2  -6  -4  534.85   14.90
  -2  -6  -4  536.05   13.00
   2   6   4  529.85   13.30
   2   6   4  510.65   14.50
   2   6   4  526.05   13.80
  -3  -6  -4    4.80    1.90
  -3  -6  -4    6.00    1.60
  -3  -6  -4    5.90    3.30
  -3  -6  -4    5.90    2.40
   3   6   4    7.00    2.40
   3   6   4    1.30    3.40
   3   6   4    7.50    3.70
  -4  -6  -4  225.98   11.90
  -4  -6  -4  212.98    7.30
   4   6   4  215.58    9.40
   4   6   4  200.98    7.50
   4   6   4  228.98   10.70
  -5  -6  -4   68.49    8.80
  -5  -6  -4   76.29    5.00
   5   6   4   78.69    6.20
   5   6   4   80.19    8.40
  -6  -6  -4    7.20    2.90
  -6  -6  -4   10.00    4.90
   6   6   4    6.10    3.90
  -7  -6  -4   13.40    6.10
   7   6   4    4.00    5.50
   6  -7  -4   -8.00    4.80
   6  -7  -4    2.10    4.50
  -6   7   4    4.50    3.00
  -6   7   4    2.00    2.50
   5  -7  -4   97.69    8.60
   5  -7  -4  101.49   10.20
  -5   7   4   97.29    7.10
  -5   7   4   99.09    5.70
   4  -7  -4    1.40    5.00
   4  -7  -4    2.90    3.00
   4  -7  -4    2.60    3.00
  -4   7   4   -1.30    1.70
  -4   7   4    1.40    2.10
   3  -7  -4   78.29    7.00
   3  -7  -4   81.69    5.20
   3  -7  -4   73.29    6.50
   3  -7  -4   74.89    5.40
  -3   7   4   73.69    4.00
  -3   7   4   70.69    5.00
  -3   7   4   74.69    4.10
   2  -7  -4   22.70    5.00
   2  -7  -4   27.60    3.50
   2  -7  -4   28.20    4.60
   2  -7  -4   24.10    3.10
  -2   7   4   18.60    2.20
  -2   7   4   25.90    3.20
  -2   7   4   20.80    3.20
   1  -7  -4  487.15   15.50
   1  -7  -4  495.35   14.10
   1  -7  -4  482.85   12.90
   1  -7  -4  474.95   13.20
  -1   7   4  499.65   12.90
  -1   7   4  468.35   12.40
   0  -7  -4   13.50    2.10
   0  -7  -4   13.70    2.90
   0  -7  -4    9.70    3.10
   0  -7  -4   11.10    4.30
   0   7   4   15.70    3.70
   0   7   4   13.70    2.00
   0   7   4   14.50    2.50
  -1  -7  -4   49.00    4.50
  -1  -7  -4   43.00    3.90
  -1  -7  -4   42.90    2.60
  -1  -7  -4   34.70    5.10
   1   7   4   39.10    3.80
   1   7   4   46.60    4.20
   1   7   4   48.80    4.10
  -2  -7  -4  219.68    8.10
  -2  -7  -4  231.78    8.00
  -2  -7  -4  216.08    9.20
  -2  -7  -4  218.98    6.00
   2   7   4  223.68    8.80
   2   7   4  234.98    8.10
   2   7   4  228.58    8.80
  -3  -7  -4   46.90    3.80
  -3  -7  -4   38.00    3.60
  -3  -7  -4   35.70    2.50
   3   7   4   40.30    3.90
   3   7   4   43.60    5.60
   3   7   4   37.30    5.10
  -4  -7  -4    8.80    2.00
  -4  -7  -4   14.40    2.10
  -4  -7  -4   13.30    4.40
   4   7   4    7.30    3.20
   4   7   4    8.10    2.70
   4   7   4   12.40    3.80
  -5  -7  -4    3.60    2.00
  -5  -7  -4    9.50    4.60
   5   7   4    2.50    3.50
   5   7   4    6.10    3.70
  -6  -7  -4   26.50    7.90
   6   7   4   31.80    5.40
  -7  -7  -4    2.60    6.60
   7   7   4   -1.00    5.60
   5  -8  -4    2.10    5.10
   5  -8  -4   -9.30    5.60
  -5   8   4    3.40    2.40
  -5   8   4    1.30    2.80
   4  -8  -4  247.78   14.20
   4  -8  -4  248.28   13.20
  -4   8   4  243.18   10.10
  -4   8   4  242.78    9.20
   3  -8  -4   41.70    5.10
   3  -8  -4   32.60    4.20
   3  -8  -4   37.30    6.70
   3  -8  -4   31.10    5.00
  -3   8   4   35.10    3.60
  -3   8   4   33.60    4.10
  -3   8   4   27.00    3.30
   2  -8  -4  261.67    9.80
   2  -8  -4  259.87    9.30
   2  -8  -4  275.97   11.90
   2  -8  -4  266.77   10.80
  -2   8   4  256.57    9.00
  -2   8   4  261.97    8.20
   1  -8  -4  375.16   11.60
   1  -8  -4  336.37   11.90
   1  -8  -4  362.56   13.90
   1  -8  -4  353.86   10.90
  -1   8   4  363.16   10.90
  -1   8   4  357.36   10.90
   0  -8  -4   12.10    3.60
   0  -8  -4    7.60    2.80
   0  -8  -4    7.90    1.90
   0  -8  -4    4.30    3.10
   0   8   4   13.70    3.80
   0   8   4   11.20    2.40
   0   8   4    8.40    2.00
  -1  -8  -4   76.09    3.50
  -1  -8  -4   85.09    4.90
  -1  -8  -4   88.09    6.20
  -1  -8  -4   72.49    6.70
   1   8   4   80.59    5.10
   1   8   4   88.39    5.50
   1   8   4   78.19    5.20
  -2  -8  -4   93.39    5.90
  -2  -8  -4   95.99    5.80
  -2  -8  -4  103.79    7.00
   2   8   4  104.09    7.10
   2   8   4  111.99    6.20
   2   8   4   97.99    6.70
  -3  -8  -4  153.88    7.10
  -3  -8  -4  162.78    6.80
   3   8   4  165.68    7.80
   3   8   4  140.99    9.10
   3   8   4  152.98    6.80
  -4  -8  -4    3.00    5.40
  -4  -8  -4    1.40    1.90
   4   8   4    3.60    3.40
   4   8   4    3.90    2.90
   4   8   4    6.00    4.60
  -5  -8  -4   38.80    8.50
   5   8   4   23.80    6.20
  -6  -8  -4   19.50    6.40
   6   8   4   26.90    6.50
   5  -9  -4    1.60    5.80
   5  -9  -4   -8.50    6.10
  -5   9   4    0.60    3.10
  -5   9   4    0.20    2.90
   4  -9  -4  193.98   12.50
   4  -9  -4  164.28   11.40
  -4   9   4  155.68    7.20
  -4   9   4  154.58    7.90
   3  -9  -4    2.90    2.30
   3  -9  -4    2.50    5.80
   3  -9  -4   -1.00    4.50
   3  -9  -4    3.00    3.10
  -3   9   4    1.70    2.80
  -3   9   4   -2.30    2.10
  -3   9   4    4.70    2.30
   2  -9  -4   72.49    8.10
   2  -9  -4   65.69    7.00
   2  -9  -4   76.39    5.80
   2  -9  -4   85.09    6.60
  -2   9   4   74.79    5.50
  -2   9   4   72.59    4.70
  -2   9   4   77.89    5.60
   1  -9  -4   -6.20    4.20
   1  -9  -4    4.30    3.50
   1  -9  -4   -0.90    1.80
   1  -9  -4    1.80    2.10
  -1   9   4    1.60    2.80
  -1   9   4   -1.30    2.80
   0  -9  -4  111.99    9.00
   0  -9  -4  109.09    7.30
   0  -9  -4  107.79    5.10
   0  -9  -4  109.99    6.80
   0   9   4  112.99    6.20
   0   9   4  101.99    5.90
  -1  -9  -4   16.30    3.00
  -1  -9  -4   19.90    3.90
  -1  -9  -4   13.80    5.00
   1   9   4   19.00    3.20
   1   9   4   20.30    3.80
   1   9   4   11.40    3.40
  -2  -9  -4   75.59    5.80
  -2  -9  -4   70.19    7.30
  -2  -9  -4   68.39    5.60
   2   9   4   72.49    5.40
   2   9   4   77.59    5.20
   2   9   4   78.59    5.90
  -3  -9  -4   29.40    3.90
  -3  -9  -4   28.20    4.90
   3   9   4   32.30    4.30
   3   9   4   27.50    5.10
   3   9   4   30.40    5.50
  -4  -9  -4    6.50    6.20
  -4  -9  -4    5.70    2.50
   4   9   4    9.90    3.40
   4   9   4    6.70    5.00
   4   9   4    7.70    5.10
  -5  -9  -4   18.80    7.90
   5   9   4   13.60    5.80
  -6  -9  -4    2.20    5.30
   6   9   4   -9.00    5.30
   4 -10  -4   15.00    7.10
   4 -10  -4    8.20    4.50
  -4  10   4    8.90    3.30
  -4  10   4    8.70    2.90
   3 -10  -4  106.79    7.70
   3 -10  -4  114.49   10.00
   3 -10  -4  113.89   10.00
  -3  10   4  105.79    6.30
  -3  10   4  116.29    6.80
   2 -10  -4   61.19    7.30
   2 -10  -4   69.29    7.90
   2 -10  -4   69.79    5.40
   2 -10  -4   73.39    6.70
  -2  10   4   76.29    6.10
  -2  10   4   77.79    5.80
  -2  10   4   62.79    4.90
   1 -10  -4   91.79    8.30
   1 -10  -4   93.29    6.00
   1 -10  -4  116.29    7.70
   1 -10  -4  103.99    8.10
  -1  10   4  105.89    6.70
  -1  10   4  106.19    7.00
   0 -10  -4  141.39    7.60
   0 -10  -4  132.19    8.50
   0 -10  -4  131.09   10.10
   0  10   4  142.79    7.30
   0  10   4  157.08    8.20
  -1 -10  -4   11.40    3.00
  -1 -10  -4    9.10    5.00
  -1 -10  -4    7.60    3.60
   1  10   4    4.30    2.60
   1  10   4   14.50    4.60
  -2 -10  -4    3.90    2.50
  -2 -10  -4    6.20    4.40
  -2 -10  -4   11.60    5.30
   2  10   4    1.30    4.40
   2  10   4    2.00    3.30
   2  10   4    4.70    2.40
  -3 -10  -4   12.70    2.90
  -3 -10  -4    8.80    5.30
   3  10   4    8.90    3.20
   3  10   4    6.90    3.60
   3  10   4    7.80    5.10
  -4 -10  -4   11.80    3.00
  -4 -10  -4   16.20    5.80
   4  10   4   13.30    4.10
   4  10   4   24.30    5.00
   4  10   4    7.90    4.30
  -5 -10  -4    6.30    7.50
   5  10   4    5.40    4.30
   3 -11  -4  115.69    9.00
   3 -11  -4  103.29   11.20
  -3  11   4  101.29    6.70
  -3  11   4   96.89    7.50
   2 -11  -4    5.80    3.80
   2 -11  -4    7.10    4.20
   2 -11  -4    2.90    6.30
  -2  11   4    2.50    3.50
  -2  11   4    8.30    2.90
   1 -11  -4  125.19    9.80
   1 -11  -4  122.29    9.40
   1 -11  -4  136.49    9.00
  -1  11   4  125.69    7.60
  -1  11   4  132.29    8.40
   0 -11  -4   12.50    4.30
   0 -11  -4   11.70    4.50
   0 -11  -4   10.40    5.80
   0  11   4   25.80    4.80
   0  11   4   10.30    4.30
  -1 -11  -4   18.30    4.50
  -1 -11  -4   27.70    5.00
  -1 -11  -4   25.00    6.60
   1  11   4   24.90    5.80
   1  11   4   25.50    4.90
  -2 -11  -4   12.50    5.90
  -2 -11  -4   17.50    4.50
   2  11   4   16.30    3.70
   2  11   4   17.80    4.30
  -3 -11  -4   31.30    4.70
  -3 -11  -4   27.30    6.70
   3  11   4   30.00    5.50
   3  11   4   34.60    6.60
  -4 -11  -4   13.80    3.40
  -4 -11  -4   15.70    8.60
   4  11   4   35.60    7.00
   4  11   4   25.60    4.20
  -5 -11  -4    4.40    5.30
   5  11   4   -1.70    5.50
   2 -12  -4   60.19    7.80
   2 -12  -4   61.59    8.00
   2 -12  -4   66.69    6.80
  -2  12   4   64.39    5.40
   1 -12  -4   72.19    9.60
   1 -12  -4   66.99    7.60
  -1  12   4   68.89    7.00
   0 -12  -4   35.10    7.30
   0 -12  -4   17.70    5.00
   0 -12  -4   21.10    5.30
   0  12   4   33.90    5.60
   0  12   4   26.90    4.50
  -1 -12  -4   35.50    6.40
  -1 -12  -4   39.50    5.90
   1  12   4   28.60    5.40
   1  12   4   39.80    5.50
  -2 -12  -4    9.30    4.40
  -2 -12  -4    6.60    4.60
   2  12   4    7.90    5.40
   2  12   4   12.80    3.80
  -3 -12  -4   13.10    6.40
  -3 -12  -4   16.10    3.70
   3  12   4   10.90    3.80
   3  12   4   13.30    6.20
  -4 -12  -4    2.00    7.30
  -4 -12  -4    3.30    3.10
   4  12   4    4.30    4.40
   4  12   4    5.20    4.20
   1 -13  -4    2.30    6.30
   1 -13  -4   -5.90    4.30
  -1  13   4    2.40    4.40
   0 -13  -4   13.40    6.90
   0 -13  -4   22.30    5.40
   0  13   4   29.70    5.20
   0  13   4   31.30    5.80
  -1 -13  -4   -0.10    4.40
  -1 -13  -4   -1.60    2.90
   1  13   4    1.80    4.50
   1  13   4   -2.30    4.80
  -2 -13  -4    7.50    6.50
  -2 -13  -4   11.20    5.00
   2  13   4   12.70    4.70
   2  13   4   11.20    5.20
  -3 -13  -4    3.20    4.30
  -3 -13  -4    3.40    4.10
   3  13   4    6.70    6.00
   3  13   4   -2.20    4.50
   3  12  -5    8.00    4.90
   3  12  -5   12.70    5.90
   3  12  -5    5.80    4.70
  -3 -12   5   13.20    4.40
   2  12  -5    0.50    4.40
   2  12  -5    2.00    4.30
  -2 -12   5   -2.10    3.80
   1  12  -5   27.70    6.00
   1  12  -5   23.10    5.60
  -1 -12   5   20.70    5.60
   0  12  -5    5.00    3.50
   0 -12   5    3.20    4.20
   0 -12   5    5.90    3.50
  -1  12  -5   22.60    4.30
   1 -12   5   23.50    6.10
   1 -12   5   13.70    7.10
   4  11  -5    9.60    4.70
   4  11  -5   15.20    6.80
  -4 -11   5    0.10    6.40
   3  11  -5   26.30    5.30
   3  11  -5   27.50    6.00
   3  11  -5   11.90    4.40
  -3 -11   5   20.80    4.70
   2  11  -5   17.00    4.90
   2  11  -5   15.50    4.40
   2  11  -5    9.20    5.00
  -2 -11   5   16.60    4.70
   1  11  -5   19.30    5.40
   1  11  -5   18.40    4.80
  -1 -11   5   14.20    5.00
  -1 -11   5   11.10    4.60
   0  11  -5   34.40    4.70
   0  11  -5   28.40    6.00
   0 -11   5   36.70    5.20
   0 -11   5   27.80    5.40
  -1  11  -5    6.40    3.20
   1 -11   5    8.30    4.50
   1 -11   5    5.20    6.10
  -2  11  -5    0.50    2.60
   2 -11   5    1.40    4.30
   2 -11   5   -0.90    6.20
   5  10  -5   24.10    6.80
  -5 -10   5   24.50    7.60
   4  10  -5    4.10    4.30
   4  10  -5    9.10    4.00
   4  10  -5    4.90    5.30
  -4 -10   5    4.70    5.90
   3  10  -5   48.70    6.80
   3  10  -5   61.59    7.60
   3  10  -5   62.49    6.40
  -3 -10   5   74.89    6.50
   2  10  -5   27.60    5.60
   2  10  -5   42.60    4.90
   2  10  -5   28.30    5.90
  -2 -10   5   38.60    5.40
   1  10  -5   -2.70    3.40
   1  10  -5   -0.10    3.40
   1  10  -5    1.00    4.20
  -1 -10   5    0.60    4.20
  -1 -10   5   -0.90    2.50
   0  10  -5   44.60    6.50
   0  10  -5   41.60    5.40
   0 -10   5   33.40    6.40
   0 -10   5   34.50    4.70
  -1  10  -5   16.80    3.60
   1 -10   5   22.80    5.20
   1 -10   5    8.60    4.20
  -2  10  -5   34.70    4.40
   2 -10   5   38.70    6.50
   2 -10   5   31.20    4.80
   2 -10   5   36.10    5.20
  -3  10  -5   45.50    4.60
   3 -10   5   34.30    6.00
   3 -10   5   37.20    6.80
   3 -10   5   49.90    6.40
   5   9  -5    5.90    6.20
  -5  -9   5   11.80    4.30
  -5  -9   5   15.00    5.40
   4   9  -5    4.90    5.40
   4   9  -5    1.70    3.20
   4   9  -5   -1.90    5.40
  -4  -9   5    0.60    2.50
  -4  -9   5    2.10    3.00
  -4  -9   5    0.10    3.60
   3   9  -5   51.59    5.10
   3   9  -5   50.79    7.10
   3   9  -5   63.99    7.20
  -3  -9   5   51.69    5.00
  -3  -9   5   48.00    4.90
   2   9  -5   20.90    4.20
   2   9  -5   21.90    4.80
   2   9  -5   20.20    5.30
  -2  -9   5   18.20    4.10
  -2  -9   5   13.60    3.60
   1   9  -5   62.79    5.70
   1   9  -5   58.39    5.20
   1   9  -5   52.79    5.80
  -1  -9   5   63.89    5.50
  -1  -9   5   63.49    6.30
   0   9  -5   46.00    4.90
   0   9  -5   39.90    5.80
   0  -9   5   45.00    5.30
   0  -9   5   35.00    5.70
  -1   9  -5   97.69    8.30
  -1   9  -5   87.59    6.70
   1  -9   5  107.09    7.50
   1  -9   5  111.29    7.00
   1  -9   5   97.09    6.20
   1  -9   5   98.29    8.70
  -2   9  -5   92.99    6.60
   2  -9   5   87.99    7.10
   2  -9   5   89.39    6.90
   2  -9   5   88.29    9.20
   2  -9   5  103.79    7.90
  -3   9  -5   -0.20    2.70
  -3   9  -5    2.20    2.90
   3  -9   5    0.60    2.50
   3  -9   5    7.50    6.20
  -4   9  -5   82.39    6.50
   4  -9   5  106.69   11.40
   6   8  -5   17.50    5.30
  -6  -8   5   14.80    4.90
  -6  -8   5    6.70    6.20
   5   8  -5    8.70    5.60
   5   8  -5   -3.90    5.50
  -5  -8   5   11.70    5.00
  -5  -8   5    5.50    3.90
   4   8  -5   49.50    4.70
   4   8  -5   47.80    6.40
   4   8  -5   62.19    6.40
  -4  -8   5   48.10    5.50
  -4  -8   5   54.09    4.50
  -4  -8   5   37.10    6.20
   3   8  -5   61.19    7.60
   3   8  -5   64.69    5.30
   3   8  -5   67.99    6.70
  -3  -8   5   60.49    5.30
  -3  -8   5   54.69    4.80
   2   8  -5  163.08    8.40
   2   8  -5  150.88    8.70
   2   8  -5  179.88    7.90
  -2  -8   5  144.19    7.40
  -2  -8   5  158.38    7.10
  -2  -8   5  184.68    7.90
   1   8  -5  105.79    8.10
   1   8  -5  103.69    6.30
   1   8  -5  124.49    6.70
  -1  -8   5  108.59    6.10
  -1  -8   5  110.39    7.20
  -1  -8   5  110.49    5.30
   0   8  -5    3.20    3.80
   0   8  -5    8.30    2.50
   0   8  -5   10.90    3.40
   0  -8   5    7.30    3.20
   0  -8   5   11.60    4.30
   0  -8   5   12.60    3.40
   0  -8   5    6.90    2.00
  -1   8  -5   70.49    5.60
  -1   8  -5   62.29    5.60
   1  -8   5   75.49    7.20
   1  -8   5   69.79    5.30
   1  -8   5   78.29    6.20
  -2   8  -5    0.70    2.70
   2  -8   5    3.60    2.30
   2  -8   5    1.50    3.30
   2  -8   5   -2.60    3.00
  -3   8  -5   79.69    5.40
  -3   8  -5   88.09    5.40
   3  -8   5   75.49    6.60
   3  -8   5   80.39    6.70
   3  -8   5   99.99    9.00
  -4   8  -5   25.30    4.00
   4  -8   5   21.90    5.90
  -5   8  -5   63.39    5.40
   5  -8   5   63.59    8.70
   6   7  -5   36.00    5.90
  -6  -7   5   26.70    4.80
  -6  -7   5   29.20    6.20
   5   7  -5    0.60    5.20
   5   7  -5    9.40    4.10
  -5  -7   5    4.00    5.30
  -5  -7   5   10.60    4.30
   4   7  -5  111.69    9.70
   4   7  -5  117.79    6.20
   4   7  -5  135.29    8.90
  -4  -7   5  121.59    7.70
  -4  -7   5  132.39    9.90
   3   7  -5    0.70    4.80
   3   7  -5    5.30    3.90
   3   7  -5    1.80    2.40
  -3  -7   5    0.70    2.10
  -3  -7   5   -1.80    2.10
  -3  -7   5   -1.50    4.10
   2   7  -5  135.49    6.50
   2   7  -5  128.39    8.10
   2   7  -5  139.59    7.30
  -2  -7   5  142.29    6.40
  -2  -7   5  136.19    6.60
  -2  -7   5  133.29    6.40
   1   7  -5    0.20    2.80
   1   7  -5    3.10    1.90
   1   7  -5    2.40    2.80
  -1  -7   5    3.30    2.60
  -1  -7   5    0.60    2.10
   0   7  -5   89.49    5.50
   0   7  -5   86.99    4.50
   0   7  -5   92.89    7.00
   0  -7   5   94.99    5.50
   0  -7   5   95.79    5.40
   0  -7   5   95.39    6.00
  -1   7  -5   46.90    4.20
  -1   7  -5   80.59    6.60
  -1   7  -5   76.09    4.60
   1  -7   5   73.49    5.80
   1  -7   5   74.29    6.80
   1  -7   5   70.19    5.40
  -2   7  -5  303.67    8.00
  -2   7  -5  311.67    8.90
  -2   7  -5  314.77    9.90
   2  -7   5  331.27   11.10
   2  -7   5  320.27   11.40
   2  -7   5  330.27   13.40
  -3   7  -5  152.88    6.60
  -3   7  -5  172.98    7.10
   3  -7   5  171.08    8.70
   3  -7   5  163.68    8.00
   3  -7   5  181.18   11.30
  -4   7  -5    3.00    2.60
  -4   7  -5    0.50    1.70
   4  -7   5    3.90    5.90
   4  -7   5    1.80    4.30
  -5   7  -5   64.39    6.00
  -5   7  -5   78.59    5.90
   5  -7   5   76.49   10.30
   6   6  -5   20.90    4.80
  -6  -6   5   21.30    5.30
  -6  -6   5   19.60    6.40
   5   6  -5   22.10    5.50
   5   6  -5   21.30    5.40
  -5  -6   5   21.80    4.80
  -5  -6   5   27.90    6.30
   4   6  -5    2.10    2.20
   4   6  -5   -0.20    4.10
   4   6  -5    3.40    2.80
  -4  -6   5    2.80    2.80
  -4  -6   5   -1.70    3.60
   3   6  -5  104.89    8.20
   3   6  -5  113.99    7.10
   3   6  -5  105.19    5.40
  -3  -6   5  111.59    5.20
  -3  -6   5  102.79    7.80
  -3  -6   5  105.99    5.90
   2   6  -5   60.49    6.60
   2   6  -5   57.99    4.40
   2   6  -5   74.09    5.60
  -2  -6   5   60.29    3.90
  -2  -6   5   58.09    4.40
  -2  -6   5   59.49    3.90
   1   6  -5  126.49    5.90
   1   6  -5  134.99    7.40
   1   6  -5  123.69    5.40
  -1  -6   5  119.79    3.80
  -1  -6   5  123.49    6.00
  -1  -6   5  124.99    5.60
   0   6  -5  237.78    6.10
   0   6  -5  251.07    8.20
   0   6  -5  242.38    9.30
   0   6  -5  248.78    7.30
   0  -6   5  261.97    9.30
   0  -6   5  250.27    8.70
   0  -6   5  268.77    9.50
  -1   6  -5   39.90    4.90
  -1   6  -5   37.60    3.70
  -1   6  -5   35.30    2.40
  -1   6  -5   34.40    2.30
   1  -6   5   38.30    4.10
   1  -6   5   39.80    5.00
   1  -6   5   36.90    4.40
  -2   6  -5   54.09    3.50
  -2   6  -5   50.89    2.60
  -2   6  -5   56.39    4.30
   2  -6   5   51.69    5.60
   2  -6   5   61.29    5.50
   2  -6   5   60.59    4.80
  -3   6  -5   -0.10    1.30
  -3   6  -5    0.80    1.60
  -3   6  -5    3.80    2.00
  -3   6  -5    2.50    2.00
   3  -6   5    0.40    2.50
   3  -6   5   -3.10    4.20
   3  -6   5    0.00    2.40
  -4   6  -5   79.29    5.20
  -4   6  -5   80.29    5.60
   4  -6   5   80.99    7.10
   4  -6   5   84.29    8.90
  -5   6  -5    4.30    2.70
  -5   6  -5    3.10    2.30
   5  -6   5    1.50    4.30
  -6   6  -5   34.00    5.20
  -6   6  -5   38.20    4.10
   6  -6   5   43.30    9.20
   7   5  -5   10.70    4.10
  -7  -5   5   13.30    5.40
  -7  -5   5   13.30    6.40
   6   5  -5   28.00    5.90
   6   5  -5   29.30    5.10
  -6  -5   5   46.30    7.80
  -6  -5   5   28.20    5.70
   5   5  -5  109.49    8.20
   5   5  -5  113.69    8.40
  -5  -5   5   87.59    8.90
  -5  -5   5  104.59    8.10
   4   5  -5   97.79    4.80
   4   5  -5  102.29    7.60
  -4  -5   5  103.19    6.90
  -4  -5   5  103.89    8.20
   3   5  -5  515.55   15.40
   3   5  -5  495.75   11.80
   3   5  -5  496.05   12.50
  -3  -5   5  520.35   12.40
  -3  -5   5  512.65   15.90
  -3  -5   5  504.55   14.60
   2   5  -5    3.00    1.50
   2   5  -5    2.50    1.80
   2   5  -5    3.10    3.70
  -2  -5   5    3.60    1.70
  -2  -5   5    1.10    1.90
  -2  -5   5    3.30    1.50
  -2  -5   5    3.30    1.80
   1   5  -5  567.04   16.10
   1   5  -5  571.54   13.60
   1   5  -5  562.44   13.50
  -1  -5   5  564.24   13.70
  -1  -5   5  555.64   14.70
  -1  -5   5  554.64   13.90
   0   5  -5   13.70    2.10
   0   5  -5   11.60    3.80
   0   5  -5    7.90    2.30
   0  -5   5    8.00    3.00
   0  -5   5    8.60    2.90
   0  -5   5   10.40    2.20
  -1   5  -5  385.56   10.30
  -1   5  -5  395.06   11.90
  -1   5  -5  380.86    8.20
  -1   5  -5  390.96    9.50
   1  -5   5  385.66   10.70
   1  -5   5  368.46   11.60
   1  -5   5  388.56   12.20
  -2   5  -5    8.90    1.70
  -2   5  -5    7.60    2.40
  -2   5  -5    9.80    1.20
  -2   5  -5   10.60    2.30
   2  -5   5    9.90    2.20
   2  -5   5    6.90    2.10
   2  -5   5    9.80    3.70
   2  -5   5   11.50    4.00
  -3   5  -5  331.97    8.80
  -3   5  -5  324.67    9.70
  -3   5  -5  333.17    9.30
   3  -5   5  321.17    9.70
   3  -5   5  303.57    9.60
   3  -5   5  341.27   12.70
   3  -5   5  317.57   11.20
  -4   5  -5  299.97    8.50
  -4   5  -5  326.37    9.80
  -4   5  -5  316.87   10.70
   4  -5   5  338.17   14.50
   4  -5   5  301.47   11.70
  -5   5  -5    3.10    2.10
  -5   5  -5    9.60    2.70
   5  -5   5    4.90    4.40
   5  -5   5    4.20    3.70
  -6   5  -5   38.70    4.90
  -6   5  -5   39.20    3.90
   6  -5   5   48.90    7.80
   7   4  -5   11.70    5.10
  -7  -4   5    1.00    4.60
  -7  -4   5   -0.20    5.50
   6   4  -5  151.18    9.80
  -6  -4   5  140.59   10.10
  -6  -4   5  142.09   11.20
   5   4  -5   51.69    5.80
  -5  -4   5   57.79    6.20
  -5  -4   5   44.50    6.60
   4   4  -5   43.90    4.70
   4   4  -5   40.70    4.90
   4   4  -5   40.40    3.40
  -4  -4   5   54.39    6.20
  -4  -4   5   46.00    4.50
   3   4  -5  159.88    5.60
   3   4  -5  166.78    7.40
   3   4  -5  169.88    5.70
  -3  -4   5  169.48    5.30
  -3  -4   5  165.68    8.30
  -3  -4   5  185.58    7.40
   2   4  -5  144.99    5.20
   2   4  -5  149.29    7.30
   2   4  -5  149.69    5.30
  -2  -4   5  148.59    6.10
  -2  -4   5  134.49    5.00
  -2  -4   5  141.59    5.20
   1   4  -5  230.78    6.80
   1   4  -5  229.08    6.90
   1   4  -5  223.88    8.30
  -1  -4   5  223.08    6.50
  -1  -4   5  210.98    6.40
  -1  -4   5  219.78    7.00
  -1  -4   5  219.68    7.50
   0   4  -5  146.29    5.30
   0   4  -5  146.09    7.40
   0  -4   5  144.29    5.80
   0  -4   5  148.89    6.40
   0  -4   5  153.78    5.60
  -1   4  -5   73.49    3.40
  -1   4  -5   73.49    4.50
  -1   4  -5   75.79    2.40
  -1   4  -5   75.49    4.00
   1  -4   5   77.79    4.20
   1  -4   5   77.09    3.90
   1  -4   5   76.79    4.90
   1  -4   5   76.39    4.60
  -2   4  -5   15.70    2.30
  -2   4  -5   13.50    1.20
  -2   4  -5   11.70    2.90
  -2   4  -5   14.50    2.20
   2  -4   5   14.10    4.10
   2  -4   5   15.30    3.00
   2  -4   5   10.90    2.40
   2  -4   5   10.20    2.50
  -3   4  -5   18.50    1.70
  -3   4  -5   18.80    2.80
  -3   4  -5   23.20    2.50
  -3   4  -5   22.10    2.30
   3  -4   5   19.50    4.40
   3  -4   5   20.60    2.80
   3  -4   5   24.40    4.10
   3  -4   5   25.50    3.00
  -4   4  -5   18.00    2.30
  -4   4  -5   20.00    2.40
  -4   4  -5   24.20    3.50
   4  -4   5   21.50    4.50
   4  -4   5   18.20    5.20
   4  -4   5   22.30    3.10
   4  -4   5   18.70    3.50
  -5   4  -5   20.60    2.60
  -5   4  -5   20.30    2.50
  -5   4  -5   27.10    4.30
   5  -4   5   27.30    6.30
   5  -4   5   19.60    6.10
  -6   4  -5    1.60    2.40
  -6   4  -5    4.80    3.40
   6  -4   5   -4.10    5.50
   6  -4   5   -7.50    5.50
   7   3  -5   52.39    6.30
  -7  -3   5   33.00    5.30
  -7  -3   5   27.70    6.80
   6   3  -5   29.40    5.50
  -6  -3   5   31.40    5.60
  -6  -3   5   26.40    5.40
   5   3  -5   30.00    3.30
   5   3  -5   42.40    5.10
  -5  -3   5   46.60    6.30
  -5  -3   5   34.90    5.00
   4   3  -5  237.08    9.70
   4   3  -5  231.08    7.50
  -4  -3   5  234.08    9.20
  -4  -3   5  228.88   10.40
   3   3  -5  251.17    7.30
   3   3  -5  246.38    6.60
   3   3  -5  231.08    5.50
   3   3  -5  247.98    9.20
  -3  -3   5  252.17    9.40
  -3  -3   5  234.58    5.90
  -3  -3   5  235.38    8.90
   2   3  -5 1972.00   37.80
   2   3  -5 1874.71   36.10
   2   3  -5 1917.71   37.50
   2   3  -5 1917.21   39.70
  -2  -3   5 1951.60   39.30
  -2  -3   5 2005.70   37.70
  -2  -3   5 1888.41   38.00
  -2  -3   5 1957.60   39.50
   1   3  -5   36.30    3.80
   1   3  -5   38.90    2.70
   1   3  -5   41.70    2.70
  -1  -3   5   40.70    2.80
  -1  -3   5   40.60    2.50
  -1  -3   5   47.80    2.20
  -1  -3   5   42.40    3.60
   0   3  -5   57.09    3.20
   0   3  -5   67.99    3.60
   0   3  -5   61.09    4.40
   0  -3   5   64.39    3.20
   0  -3   5   62.19    3.80
   0  -3   5   54.29    3.20
   0  -3   5   63.79    3.30
  -1   3  -5    1.30    2.40
  -1   3  -5    1.80    0.70
  -1   3  -5    2.20    1.50
  -1   3  -5    1.70    1.60
  -1   3  -5    5.60    0.60
   1  -3   5    3.30    2.70
   1  -3   5    1.70    1.50
   1  -3   5    1.60    1.40
  -2   3  -5  192.08    5.90
  -2   3  -5  192.38    4.70
  -2   3  -5  195.68    6.30
  -2   3  -5  203.68    7.30
   2  -3   5  194.58    6.70
   2  -3   5  205.78    7.30
   2  -3   5  203.98    8.70
  -3   3  -5    1.80    0.90
  -3   3  -5    2.70    1.90
  -3   3  -5    0.20    1.20
  -3   3  -5   -0.40    0.80
   3  -3   5   -2.30    2.70
   3  -3   5   -0.90    1.20
   3  -3   5    2.30    3.00
  -4   3  -5   78.79    5.30
  -4   3  -5   83.09    3.70
  -4   3  -5   82.89    3.90
   4  -3   5   83.69    7.50
   4  -3   5   85.09    6.20
  -5   3  -5  144.99    5.60
  -5   3  -5  139.39    7.10
  -5   3  -5  140.19    5.70
   5  -3   5  124.19    8.00
   5  -3   5  158.68   10.70
  -6   3  -5    2.10    3.20
  -6   3  -5    1.90    1.60
   6  -3   5    7.60    4.60
   6  -3   5    0.10    4.00
  -7   3  -5   23.80    5.20
  -7   3  -5   24.30    3.30
   7  -3   5   28.90    6.60
   7   2  -5   70.29    7.80
  -7  -2   5   64.49    8.00
  -7  -2   5   59.29    8.40
   6   2  -5    5.50    3.20
  -6  -2   5    1.90    4.20
  -6  -2   5    6.80    3.20
   5   2  -5  308.67   12.20
   5   2  -5  282.07    9.40
  -5  -2   5  270.67    9.00
  -5  -2   5  274.07   11.10
  -5  -2   5  292.67   12.50
   4   2  -5  124.49    4.80
   4   2  -5  110.99    5.30
   4   2  -5  135.39    7.40
  -4  -2   5  118.39    6.80
  -4  -2   5  114.49    4.80
  -4  -2   5  132.29    7.80
   3   2  -5  717.23   17.90
   3   2  -5  718.93   16.00
   3   2  -5  685.43   14.60
  -3  -2   5  695.63   17.60
  -3  -2   5  705.63   15.40
  -3  -2   5  702.53   17.50
  -3  -2   5  644.24   13.20
  -3  -2   5  709.83   13.30
   2   2  -5  268.57    8.60
   2   2  -5  263.77    7.30
   2   2  -5  265.67    6.60
   2   2  -5  256.57    6.10
  -2  -2   5  254.47    7.90
  -2  -2   5  268.57    6.70
  -2  -2   5  248.68    6.40
  -2  -2   5  259.97    8.00
  -2  -2   5  258.27    7.20
   1   2  -5  242.98    7.60
   1   2  -5  246.18    6.60
   1   2  -5  240.28    6.10
   1   2  -5  228.08    7.00
   1   2  -5  231.48    5.60
  -1  -2   5  242.88    7.30
  -1  -2   5  236.58    6.40
  -1  -2   5  228.48    6.60
  -1  -2   5  234.88    4.90
   0   2  -5   26.30    2.80
   0   2  -5   29.20    2.30
   0   2  -5   24.70    0.90
   0   2  -5   22.40    2.60
   0   2  -5   26.50    2.60
   0  -2   5   23.30    2.50
   0  -2   5   30.40    2.80
   0  -2   5   30.40    2.50
   0  -2   5   23.40    2.00
  -1   2  -5  137.69    3.60
  -1   2  -5  148.19    2.90
  -1   2  -5  134.99    6.00
  -1   2  -5  148.99    4.50
  -1   2  -5  149.09    5.80
   1  -2   5  146.69    5.60
   1  -2   5  148.99    5.10
   1  -2   5  144.09    6.40
  -2   2  -5  262.67    7.60
  -2   2  -5  267.07    7.70
  -2   2  -5  255.47    6.80
  -2   2  -5  266.17    5.90
   2  -2   5  260.57    7.30
   2  -2   5  251.87    9.60
   2  -2   5  280.27    8.60
  -3   2  -5    3.80    2.00
  -3   2  -5    2.30    1.00
  -3   2  -5    1.20    1.00
  -3   2  -5    2.20    1.40
   3  -2   5    5.10    3.10
   3  -2   5    3.30    3.10
   3  -2   5    0.70    1.60
  -4   2  -5   21.00    2.80
  -4   2  -5   17.10    2.00
  -4   2  -5   22.50    2.40
   4  -2   5   18.80    2.50
   4  -2   5   17.40    4.20
   4  -2   5   22.40    5.50
  -5   2  -5  112.49    5.10
  -5   2  -5   97.09    6.50
  -5   2  -5  109.89    4.50
   5  -2   5  113.99    9.60
   5  -2   5  105.39    7.10
  -6   2  -5   23.50    3.20
  -6   2  -5   31.00    4.30
   6  -2   5   33.70    7.70
  -7   2  -5    4.70    4.00
  -7   2  -5    3.10    2.60
   7  -2   5  -10.80    6.30
   7  -2   5    6.90    6.30
   7   1  -5   35.70    5.60
  -7  -1   5   15.70    4.40
   6   1  -5   52.79    4.60
   6   1  -5   53.99    6.30
  -6  -1   5   45.60    6.00
  -6  -1   5   53.09    4.80
  -6  -1   5   39.80    6.60
   5   1  -5  104.99    5.70
   5   1  -5  131.89    8.40
   5   1  -5  118.49    6.10
  -5  -1   5  111.89    5.70
  -5  -1   5  108.79    7.50
  -5  -1   5  103.39    8.10
   4   1  -5  248.68    8.20
   4   1  -5  236.28    7.80
   4   1  -5  244.98    7.50
   4   1  -5  244.08    9.90
  -4  -1   5  265.37   10.30
  -4  -1   5  246.68    9.70
  -4  -1   5  257.47    8.00
   3   1  -5  522.05   14.40
   3   1  -5  530.75   12.40
   3   1  -5  528.05   11.80
   3   1  -5  553.24   13.10
   3   1  -5  529.15   11.30
  -3  -1   5  549.25   12.50
  -3  -1   5  535.95   14.40
  -3  -1   5  535.45   14.30
   2   1  -5  761.02   15.70
   2   1  -5  785.92   14.50
   2   1  -5  816.02   17.00
   2   1  -5  770.92   16.10
   2   1  -5  742.73   14.50
   2   1  -5  782.02   18.10
  -2  -1   5  771.62   16.00
  -2  -1   5  769.92   17.50
  -2  -1   5  766.82   15.50
  -2  -1   5  767.72   16.90
  -2  -1   5  759.52   17.10
   1   1  -5 2596.84   48.90
   1   1  -5 2553.64   48.90
   1   1  -5 2561.94   49.90
   1   1  -5 2625.94   50.59
   1   1  -5 2646.44   49.70
  -1  -1   5 2575.04   48.90
  -1  -1   5 2608.04   49.90
  -1  -1   5 2563.54   49.70
  -1  -1   5 2571.34   48.40
  -1  -1   5 2640.44   49.30
   0   1  -5  429.66   10.60
   0   1  -5  440.06    9.70
   0   1  -5  439.06    9.80
   0   1  -5  446.56   10.70
   0   1  -5  445.26   10.00
   0  -1   5  423.06    8.30
   0  -1   5  438.36   10.70
   0  -1   5  441.26   10.90
   0  -1   5  431.56   10.00
   0  -1   5  428.26   10.00
  -1   1  -5   11.10    2.20
  -1   1  -5   11.50    2.10
  -1   1  -5    9.90    1.50
   1  -1   5   12.70    2.50
   1  -1   5    8.70    1.70
   1  -1   5   10.70    1.50
   1  -1   5   10.60    2.00
  -2   1  -5  174.88    4.90
  -2   1  -5  180.08    4.50
  -2   1  -5  180.28    5.60
   2  -1   5  186.88    7.30
   2  -1   5  179.68    5.50
   2  -1   5  176.98    4.00
   2  -1   5  176.58    7.10
  -3   1  -5    2.60    1.10
  -3   1  -5    3.60    2.00
  -3   1  -5    3.20    1.00
   3  -1   5    3.90    2.90
   3  -1   5    3.50    1.10
   3  -1   5    3.60    3.40
   3  -1   5    1.00    1.50
  -4   1  -5  108.79    5.70
  -4   1  -5  100.39    4.10
   4  -1   5   76.69    3.80
   4  -1   5   96.49    6.30
   4  -1   5  110.79    7.50
   4  -1   5   97.89    4.20
  -5   1  -5    3.60    1.80
  -5   1  -5    5.70    2.90
   5  -1   5    6.90    4.20
   5  -1   5    2.20    4.10
  -6   1  -5   74.59    4.80
  -6   1  -5   63.29    6.30
   6  -1   5   76.19    8.10
   6  -1   5   75.59    9.50
  -7   1  -5    2.30    1.70
  -7   1  -5    1.20    3.70
   7  -1   5  -10.40    6.30
   7   0  -5   22.90    4.10
  -7   0   5    7.40    3.70
  -7   0   5    7.90    3.50
   6   0  -5  132.79    7.80
   6   0  -5  151.88    9.30
  -6   0   5  156.08    9.50
  -6   0   5  131.89    6.50
   5   0  -5   56.09    4.90
   5   0  -5   61.79    6.60
   5   0  -5   57.69    4.90
   5   0  -5   57.89    4.90
  -5   0   5   55.49    3.50
  -5   0   5   52.59    5.60
  -5   0   5   64.19    6.40
  -5   0   5   67.59    4.70
   4   0  -5  617.74   15.20
   4   0  -5  638.14   15.90
   4   0  -5  624.44   15.50
  -4   0   5  616.54   14.30
  -4   0   5  621.14   17.10
  -4   0   5  617.44   14.90
  -4   0   5  616.74   16.90
   3   0  -5   12.10    1.30
   3   0  -5   10.70    1.90
   3   0  -5   12.60    2.40
   3   0  -5    8.90    1.80
  -3   0   5    9.40    2.20
  -3   0   5    9.30    1.60
  -3   0   5   12.90    2.40
  -3   0   5    9.50    1.50
   2   0  -5  752.22   15.30
   2   0  -5  760.32   16.30
   2   0  -5  758.82   15.10
   2   0  -5  745.73   16.60
   2   0  -5  764.02   17.90
  -2   0   5  738.43   17.00
  -2   0   5  766.42   15.80
  -2   0   5  754.92   16.60
  -2   0   5  728.63   14.90
  -2   0   5  771.82   15.40
   1   0  -5  861.11   18.00
   1   0  -5  881.51   18.20
   1   0  -5  880.31   19.00
   1   0  -5  855.01   16.50
   1   0  -5  862.81   17.50
   1   0  -5  885.61   18.40
  -1   0   5  862.41   16.70
  -1   0   5  878.01   18.00
  -1   0   5  869.01   17.60
  -1   0   5  867.51   17.10
  -1   0   5  864.11   17.00
  -1   0   5  866.51   18.30
   0   0  -5   99.99    3.30
   0   0  -5  101.09    3.90
   0   0  -5  104.59    4.70
   0   0  -5   99.99    3.80
   0   0  -5  102.59    3.90
   0   0   5  102.69    4.00
   0   0   5   99.89    2.50
   0   0   5   97.19    3.50
   0   0   5  104.89    4.60
   0   0   5  100.09    3.60
  -1   0  -5    7.50    2.20
   1   0   5   11.70    1.20
   1   0   5    9.60    1.60
   1   0   5   11.40    2.20
   1   0   5   10.60    2.50
  -2   0  -5   32.00    1.50
  -2   0  -5   35.90    2.00
  -2   0  -5   39.60    3.30
  -2   0  -5   36.10    2.30
   2   0   5   30.90    3.30
   2   0   5   34.30    2.90
   2   0   5   34.10    2.00
   2   0   5   34.60    2.50
   2   0   5   37.00    4.20
  -3   0  -5  366.76    8.40
  -3   0  -5  350.46    8.10
  -3   0  -5  370.26    8.00
  -3   0  -5  380.06   10.40
  -3   0  -5  366.76   11.40
   3   0   5  392.16   12.90
   3   0   5  378.06    9.20
   3   0   5  359.66    8.50
   3   0   5  387.86   11.50
  -4   0  -5   86.09    3.70
  -4   0  -5   86.49    5.30
  -4   0  -5   90.99    6.60
   4   0   5   83.59    6.00
   4   0   5   85.89    3.80
   4   0   5   89.29    3.90
   4   0   5   92.69    7.80
  -5   0  -5   69.89    7.10
  -5   0  -5   55.19    4.70
  -5   0  -5   63.49    3.70
   5   0   5   57.99    5.90
   5   0   5   60.49    6.90
  -6   0  -5   53.59    5.70
  -6   0  -5   49.99    7.60
  -6   0  -5   56.49    4.10
   6   0   5   48.30    7.00
   6   0   5   40.70    6.80
  -7   0  -5   10.50    2.70
  -7   0  -5   16.80    3.80
   7   0   5    3.40    7.50
  -7   1   5   60.29    7.20
  -7   1   5   64.69    6.00
   6  -1  -5   48.40    5.70
   6  -1  -5   57.19    5.70
  -6   1   5   60.69    4.20
  -6   1   5   57.59    6.30
  -6   1   5   48.40    5.00
   5  -1  -5   87.79    6.30
   5  -1  -5   86.59    6.10
   5  -1  -5   95.09    6.10
  -5   1   5   86.79    5.30
  -5   1   5   86.29    6.00
  -5   1   5   79.09    4.20
   4  -1  -5   30.10    3.70
   4  -1  -5   27.70    3.20
   4  -1  -5   30.50    3.60
  -4   1   5   26.50    3.00
  -4   1   5   34.30    2.90
  -4   1   5   24.40    3.70
   3  -1  -5  117.19    5.10
   3  -1  -5  123.89    5.70
   3  -1  -5  125.09    5.30
   3  -1  -5  119.39    3.80
  -3   1   5  124.09    4.20
  -3   1   5  121.89    4.60
  -3   1   5  130.99    5.90
   2  -1  -5  818.32   17.10
   2  -1  -5  809.02   16.60
   2  -1  -5  801.92   17.90
   2  -1  -5  825.52   17.30
   2  -1  -5  850.41   18.20
  -2   1   5  819.62   16.20
  -2   1   5  782.02   16.10
  -2   1   5  830.72   17.20
  -2   1   5  829.52   18.10
  -2   1   5  826.82   16.70
   1  -1  -5  410.66    9.60
   1  -1  -5  406.86    9.80
   1  -1  -5  421.96    9.20
   1  -1  -5  393.66    8.90
   1  -1  -5  397.66    9.90
  -1   1   5  401.76    9.80
  -1   1   5  401.36    9.10
  -1   1   5  406.16    8.90
  -1   1   5  408.86    8.40
  -1   1   5  405.66    9.00
   0  -1  -5 1177.88   23.20
   0  -1  -5 1156.28   23.40
   0  -1  -5 1147.79   21.40
   0  -1  -5 1111.29   23.10
   0  -1  -5 1159.68   22.80
   0  -1  -5 1190.18   23.90
   0   1   5 1173.08   23.00
   0   1   5 1156.28   23.20
   0   1   5 1139.39   23.30
   0   1   5 1136.39   22.80
   0   1   5 1162.98   23.40
  -1  -1  -5  402.46    8.90
  -1  -1  -5  392.96    8.60
  -1  -1  -5  384.56   10.10
  -1  -1  -5  393.86    9.70
  -1  -1  -5  398.16    9.10
  -1  -1  -5  388.36    9.10
   1   1   5  381.36    8.70
   1   1   5  394.86    9.10
   1   1   5  393.66    9.10
   1   1   5  393.86   10.30
   1   1   5  400.96   10.50
  -2  -1  -5   39.50    1.50
  -2  -1  -5   48.40    3.70
  -2  -1  -5   39.00    2.10
   2   1   5   45.20    4.20
   2   1   5   46.10    4.40
   2   1   5   43.50    2.70
   2   1   5   36.20    2.60
   2   1   5   37.00    2.20
  -3  -1  -5  641.74   13.40
  -3  -1  -5  664.83   17.10
  -3  -1  -5  639.94   15.40
  -3  -1  -5  654.93   13.20
   3   1   5  649.04   17.90
   3   1   5  653.33   14.30
   3   1   5  663.43   14.20
   3   1   5  651.33   16.90
  -4  -1  -5   18.20    2.70
  -4  -1  -5   20.60    4.20
  -4  -1  -5   18.50    1.90
   4   1   5   16.50    2.60
   4   1   5   16.50    2.10
   4   1   5   17.90    5.20
   4   1   5   23.60    3.80
  -5  -1  -5  108.39    4.50
  -5  -1  -5  120.99    8.00
  -5  -1  -5  106.19    6.50
   5   1   5  101.89    5.70
   5   1   5  114.49    8.60
   5   1   5  111.39    9.70
  -6  -1  -5   11.20    2.30
  -6  -1  -5   10.70    3.10
  -6  -1  -5    9.60    5.40
   6   1   5   11.00    5.30
   6   1   5   21.70    7.10
  -7  -1  -5   16.60    4.50
  -7  -1  -5   30.10    6.30
   7   1   5   34.30    9.00
   7  -2  -5   18.20    5.20
  -7   2   5    9.20    4.60
  -7   2   5   10.50    3.00
  -7   2   5   11.60    2.70
   6  -2  -5   28.20    5.10
   6  -2  -5   14.70    4.50
  -6   2   5   22.00    3.40
  -6   2   5   19.40    3.20
  -6   2   5   15.30    4.40
   5  -2  -5   32.90    4.20
   5  -2  -5   32.10    4.60
   5  -2  -5   44.80    5.10
  -5   2   5   31.90    3.40
  -5   2   5   33.10    4.00
  -5   2   5   37.10    4.80
   4  -2  -5  169.28    7.40
   4  -2  -5  166.58    7.60
   4  -2  -5  176.08    7.90
  -4   2   5  161.08    5.80
  -4   2   5  160.98    7.50
  -4   2   5  155.68    6.30
   3  -2  -5  707.23   15.70
   3  -2  -5  729.43   17.70
   3  -2  -5  689.83   15.10
   3  -2  -5  733.03   17.40
   3  -2  -5  734.13   17.10
  -3   2   5  741.03   16.50
  -3   2   5  739.23   15.70
  -3   2   5  715.63   17.40
   2  -2  -5    1.30    1.20
   2  -2  -5    0.50    1.10
   2  -2  -5    1.80    2.00
   2  -2  -5   -0.40    1.80
   2  -2  -5    1.30    1.00
  -2   2   5    0.50    1.30
  -2   2   5    2.30    1.00
  -2   2   5    1.20    0.90
  -2   2   5    1.90    1.10
   1  -2  -5  932.91   19.40
   1  -2  -5  917.51   19.70
   1  -2  -5  910.31   19.10
   1  -2  -5  915.61   18.90
   1  -2  -5  924.71   18.80
  -1   2   5  922.61   17.90
  -1   2   5  936.71   18.70
  -1   2   5  910.31   19.40
  -1   2   5  909.01   17.80
  -1   2   5  913.51   18.60
   0  -2  -5  372.76    8.70
   0  -2  -5  380.26    9.10
   0  -2  -5  370.86    9.70
   0  -2  -5  374.16    9.40
   0  -2  -5  369.76    8.90
   0   2   5  370.36    8.70
   0   2   5  376.06    7.40
   0   2   5  380.16    8.90
   0   2   5  382.56    8.90
   0   2   5  386.16    9.10
   0   2   5  371.66    9.00
  -1  -2  -5  154.38    6.00
  -1  -2  -5  178.08    5.00
  -1  -2  -5  176.98    5.40
  -1  -2  -5  171.38    4.90
  -1  -2  -5  177.78    6.00
  -1  -2  -5  166.08    4.20
   1   2   5  169.28    5.20
   1   2   5  175.98    4.90
   1   2   5  174.18    3.30
   1   2   5  163.08    5.80
   1   2   5  174.08    5.30
   1   2   5  179.68    6.50
  -2  -2  -5  523.65   11.50
  -2  -2  -5  522.65   13.50
   2   2   5  521.45   11.50
   2   2   5  557.24   12.10
   2   2   5  529.45   14.30
   2   2   5  522.05   13.90
   2   2   5  538.65   12.00
  -3  -2  -5   96.99    3.20
  -3  -2  -5  105.49    4.90
  -3  -2  -5   95.19    6.20
   3   2   5  102.69    4.10
   3   2   5  104.99    6.80
   3   2   5   94.29    2.40
   3   2   5   97.59    3.90
   3   2   5   92.49    4.10
   3   2   5   99.49    7.10
  -4  -2  -5  341.97   10.40
  -4  -2  -5  336.27   12.50
   4   2   5  337.07   12.60
   4   2   5  328.37    8.80
   4   2   5  316.87    9.40
   4   2   5  322.07   11.80
  -5  -2  -5   51.09    6.60
  -5  -2  -5   52.39    4.60
   5   2   5   45.30    4.30
   5   2   5   46.20    6.30
   5   2   5   50.79    6.40
  -6  -2  -5   44.60    7.60
  -6  -2  -5   38.20    4.50
   6   2   5   32.50    6.50
   6   2   5   53.09    8.90
  -7  -2  -5   32.40    7.60
  -7  -2  -5   54.29    6.50
   7   2   5   45.50    9.30
   7  -3  -5    0.70    4.40
  -7   3   5   -3.20    3.20
  -7   3   5    4.90    3.00
   6  -3  -5   74.69    7.50
   6  -3  -5   46.40    7.50
  -6   3   5   55.39    5.30
  -6   3   5   70.09    6.50
  -6   3   5   68.59    4.60
   5  -3  -5   95.79    7.50
   5  -3  -5   84.99    6.40
   5  -3  -5   82.89    5.80
  -5   3   5   92.09    5.80
  -5   3   5   80.29    4.50
  -5   3   5   92.29    6.40
   4  -3  -5   15.50    3.70
   4  -3  -5   10.90    2.80
   4  -3  -5   16.80    3.30
  -4   3   5   16.70    2.40
  -4   3   5   14.60    2.60
  -4   3   5   11.80    2.50
   3  -3  -5  345.77    8.40
   3  -3  -5  342.47   11.10
   3  -3  -5  374.26   11.00
   3  -3  -5  347.47    8.80
   3  -3  -5  348.87   10.70
   3  -3  -5  343.77    8.20
  -3   3   5  339.47    8.90
  -3   3   5  362.56    9.70
  -3   3   5  347.67   10.30
   2  -3  -5   44.20    3.70
   2  -3  -5   50.49    4.10
   2  -3  -5   53.69    3.80
   2  -3  -5   50.59    2.60
   2  -3  -5   52.69    2.90
  -2   3   5   51.39    3.10
  -2   3   5   52.09    2.60
  -2   3   5   54.89    3.10
  -2   3   5   49.30    2.70
   1  -3  -5  779.12   17.50
   1  -3  -5  781.22   16.30
   1  -3  -5  784.12   17.80
   1  -3  -5  802.42   17.30
   1  -3  -5  765.02   16.60
  -1   3   5  765.42   14.70
  -1   3   5  781.02   15.60
  -1   3   5  803.52   17.00
  -1   3   5  785.42   16.00
  -1   3   5  777.32   16.40
   0  -3  -5  176.38    6.20
   0  -3  -5  171.08    5.20
   0  -3  -5  171.48    5.70
   0  -3  -5  167.68    5.20
   0  -3  -5  178.98    5.60
   0   3   5  168.08    5.00
   0   3   5  175.78    5.50
   0   3   5  162.18    5.20
   0   3   5  165.68    5.10
   0   3   5  177.48    5.40
   0   3   5  162.88    3.80
  -1  -3  -5  847.72   19.20
  -1  -3  -5  886.11   18.20
  -1  -3  -5  894.51   19.40
  -1  -3  -5  872.01   17.70
  -1  -3  -5  872.81   18.90
   1   3   5  856.81   19.20
   1   3   5  873.51   18.50
   1   3   5  862.11   18.30
   1   3   5  887.81   19.40
   1   3   5  872.21   17.80
  -2  -3  -5  215.78    7.90
  -2  -3  -5  211.58    6.00
  -2  -3  -5  219.88    6.90
   2   3   5  222.78    6.50
   2   3   5  211.88    7.70
   2   3   5  206.68    6.30
   2   3   5  215.48    5.60
  -3  -3  -5  264.17    9.60
  -3  -3  -5  245.78    6.30
  -3  -3  -5  260.67    7.80
   3   3   5  271.47   10.50
   3   3   5  249.18    7.60
   3   3   5  249.58    6.50
   3   3   5  252.47    7.30
  -4  -3  -5  308.67    6.50
  -4  -3  -5  329.27   12.70
  -4  -3  -5  328.77   10.10
   4   3   5  321.27    8.70
   4   3   5  329.87   12.90
   4   3   5  325.97    9.90
  -5  -3  -5    2.70    4.20
  -5  -3  -5    1.90    1.80
   5   3   5   -4.30    4.60
   5   3   5    3.00    2.30
   5   3   5    1.20    3.30
  -6  -3  -5  109.49    9.70
  -6  -3  -5   93.99    6.20
   6   3   5   89.79    9.20
   6   3   5  123.69   11.90
   6   3   5   90.79    6.90
  -7  -3  -5    5.10    3.60
  -7  -3  -5    8.60    6.50
   7   3   5   17.70    8.40
   6  -4  -5   11.00    5.00
   6  -4  -5   18.50    5.60
  -6   4   5    3.70    3.40
  -6   4   5   15.10    2.80
  -6   4   5   16.40    3.70
   5  -4  -5    5.40    3.20
   5  -4  -5    2.90    3.90
   5  -4  -5    4.00    3.20
  -5   4   5    9.80    3.10
  -5   4   5    7.30    2.80
  -5   4   5    4.60    2.20
   4  -4  -5   24.90    4.00
   4  -4  -5   32.40    4.60
   4  -4  -5   17.50    4.20
  -4   4   5   19.90    3.00
  -4   4   5   24.90    2.50
  -4   4   5   19.90    3.10
   3  -4  -5   60.59    4.90
   3  -4  -5   61.29    5.60
   3  -4  -5   67.29    5.50
   3  -4  -5   55.49    3.40
  -3   4   5   63.49    2.50
  -3   4   5   56.69    3.90
  -3   4   5   61.69    4.00
  -3   4   5   60.39    3.40
   2  -4  -5  312.87    9.90
   2  -4  -5  310.17   10.30
   2  -4  -5  299.87    6.80
   2  -4  -5  313.87    9.50
   2  -4  -5  284.07    8.10
  -2   4   5  295.67    7.60
  -2   4   5  307.67    8.40
  -2   4   5  304.67    7.70
  -2   4   5  304.17    8.10
   1  -4  -5   71.69    4.80
   1  -4  -5   70.39    2.80
   1  -4  -5   72.69    4.40
   1  -4  -5   73.59    3.50
   1  -4  -5   70.49    3.60
  -1   4   5   72.39    2.70
  -1   4   5   70.29    2.70
  -1   4   5   75.59    3.40
  -1   4   5   69.09    2.80
  -1   4   5   76.39    4.00
   0  -4  -5  176.48    6.70
   0  -4  -5  175.38    6.60
   0  -4  -5  183.18    5.40
   0  -4  -5  170.58    5.40
   0  -4  -5  174.18    5.50
   0   4   5  176.38    5.60
   0   4   5  178.28    5.60
   0   4   5  168.78    5.60
   0   4   5  170.98    5.10
   0   4   5  172.48    5.40
  -1  -4  -5  245.28    7.70
  -1  -4  -5  264.17    8.30
  -1  -4  -5  244.98    7.10
  -1  -4  -5  253.17    7.80
  -1  -4  -5  258.47    6.50
   1   4   5  260.07    8.10
   1   4   5  248.48    6.40
   1   4   5  257.67    7.30
   1   4   5  261.57    7.70
  -2  -4  -5  446.06    9.50
  -2  -4  -5  430.66   11.20
  -2  -4  -5  425.26   10.30
   2   4   5  410.16    9.30
   2   4   5  454.15   12.90
   2   4   5  417.86   10.60
   2   4   5  422.76   10.90
  -3  -4  -5  101.79    3.90
  -3  -4  -5  105.29    4.80
  -3  -4  -5  107.09    6.40
   3   4   5   93.39    3.20
   3   4   5   95.79    6.20
   3   4   5   94.09    4.50
   3   4   5   93.99    5.70
  -4  -4  -5   -0.80    1.90
  -4  -4  -5    0.10    1.10
  -4  -4  -5    6.70    4.10
   4   4   5   -3.00    2.90
   4   4   5   -0.30    1.70
   4   4   5    0.30    2.70
  -5  -4  -5  105.39    6.10
  -5  -4  -5   84.39    8.00
   5   4   5   91.49    6.70
   5   4   5   95.09    7.90
  -6  -4  -5   15.60    6.10
  -6  -4  -5   16.70    3.70
   6   4   5   12.70    4.50
   6   4   5   10.00    5.20
  -7  -4  -5   24.00    6.50
  -7  -4  -5   19.30    3.70
   7   4   5   22.50    6.70
   6  -5  -5   33.80    5.80
   6  -5  -5   31.40    6.60
  -6   5   5   27.10    4.70
  -6   5   5   31.50    4.20
   5  -5  -5   65.89    6.60
   5  -5  -5   83.29    8.30
  -5   5   5   55.79    4.60
  -5   5   5   67.19    5.60
  -5   5   5   77.19    5.30
   4  -5  -5   53.99    5.10
   4  -5  -5   54.09    6.50
   4  -5  -5   57.49    5.60
  -4   5   5   47.60    4.20
  -4   5   5   55.19    4.30
  -4   5   5   51.19    3.40
   3  -5  -5    2.30    1.80
   3  -5  -5   -0.10    2.30
   3  -5  -5    4.10    2.40
   3  -5  -5    3.80    3.50
  -3   5   5    1.70    1.80
  -3   5   5    0.90    1.20
  -3   5   5    0.70    1.50
  -3   5   5    0.50    1.40
   2  -5  -5  705.93   18.40
   2  -5  -5  717.63   18.30
   2  -5  -5  706.83   16.40
   2  -5  -5  701.63   17.50
  -2   5   5  715.13   15.70
  -2   5   5  695.43   15.30
   1  -5  -5    2.90    1.70
   1  -5  -5    3.60    2.80
   1  -5  -5    2.70    1.50
   1  -5  -5    4.00    2.50
  -1   5   5    5.30    1.20
  -1   5   5    1.60    2.20
  -1   5   5    4.00    1.50
  -1   5   5    4.70    0.90
  -1   5   5    4.20    0.90
   0  -5  -5  723.93   16.10
   0  -5  -5  732.33   18.00
   0  -5  -5  723.03   16.70
   0  -5  -5  711.13   17.50
   0   5   5  731.13   16.00
   0   5   5  759.52   16.70
   0   5   5  742.23   16.70
  -1  -5  -5    1.50    1.10
  -1  -5  -5    1.60    1.80
  -1  -5  -5    2.80    1.80
  -1  -5  -5    7.30    2.40
   1   5   5   -1.90    1.80
   1   5   5    5.50    3.00
   1   5   5    0.80    2.30
  -2  -5  -5  208.08    7.60
  -2  -5  -5  201.58    7.90
  -2  -5  -5  196.78    6.40
   2   5   5  192.38    4.90
   2   5   5  208.68    8.60
   2   5   5  202.78    6.80
   2   5   5  209.38    7.60
  -3  -5  -5   24.70    4.10
  -3  -5  -5   26.10    2.50
  -3  -5  -5   20.70    2.60
   3   5   5   27.00    3.40
   3   5   5   28.70    3.10
   3   5   5   20.90    1.20
   3   5   5   17.90    3.40
  -4  -5  -5  135.69    9.30
  -4  -5  -5  127.99    5.60
   4   5   5  129.69    6.40
   4   5   5  137.29    5.80
   4   5   5  149.29    8.50
  -5  -5  -5  188.58   11.50
  -5  -5  -5  174.48    7.60
   5   5   5  154.48    9.90
   5   5   5  169.68    8.70
  -6  -5  -5    1.50    2.80
  -6  -5  -5    0.90    5.10
   6   5   5   -0.70    4.40
  -7  -5  -5   32.80    5.10
  -7  -5  -5   42.80    8.90
   7   5   5   39.30    6.30
   7   5   5   33.10    9.60
   6  -6  -5   -0.60    5.40
   6  -6  -5    4.30    5.30
  -6   6   5    0.80    2.80
  -6   6   5    5.70    3.50
   5  -6  -5   82.29    8.70
   5  -6  -5   78.59    8.20
  -5   6   5   75.39    4.80
  -5   6   5   73.89    6.20
   4  -6  -5   -1.50    4.30
   4  -6  -5   -0.70    2.60
   4  -6  -5    1.10    2.80
  -4   6   5    1.00    2.00
  -4   6   5   -4.20    2.10
   3  -6  -5   68.69    4.20
   3  -6  -5   72.49    5.70
   3  -6  -5   74.59    6.10
   3  -6  -5   82.59    6.50
  -3   6   5   70.09    3.80
  -3   6   5   74.19    4.10
  -3   6   5   74.49    3.70
  -3   6   5   82.69    5.00
   2  -6  -5  136.49    7.40
   2  -6  -5  137.89    6.10
   2  -6  -5  135.69    7.10
   2  -6  -5  134.19    6.20
  -2   6   5  151.18    5.60
  -2   6   5  133.49    4.80
   1  -6  -5  532.95   15.50
   1  -6  -5  519.25   13.30
   1  -6  -5  529.65   13.50
   1  -6  -5  485.45   14.50
  -1   6   5  488.85   10.10
  -1   6   5  548.05   13.10
  -1   6   5  549.25   13.50
  -1   6   5  527.15   11.70
   0  -6  -5   58.79    4.90
   0  -6  -5   60.39    3.50
   0  -6  -5   47.40    3.40
   0  -6  -5   58.09    4.90
   0   6   5   55.19    3.60
   0   6   5   57.99    4.20
   0   6   5   62.69    4.90
  -1  -6  -5   59.59    5.30
  -1  -6  -5   61.39    2.90
  -1  -6  -5   63.29    4.20
  -1  -6  -5   65.59    5.00
   1   6   5   65.39    5.00
   1   6   5   61.89    3.70
   1   6   5   61.59    4.10
  -2  -6  -5  172.68    7.80
  -2  -6  -5  182.38    6.60
  -2  -6  -5  190.68    7.50
  -2  -6  -5  181.68    4.50
   2   6   5  178.78    8.20
   2   6   5  183.78    7.00
   2   6   5  178.98    7.00
  -3  -6  -5   40.60    3.90
  -3  -6  -5   46.30    3.50
  -3  -6  -5   43.70    6.00
  -3  -6  -5   42.90    3.20
   3   6   5   39.90    4.80
   3   6   5   42.30    3.60
   3   6   5   47.70    5.70
  -4  -6  -5  102.29    4.30
  -4  -6  -5  106.09    5.00
  -4  -6  -5  116.69    9.80
   4   6   5  119.59    6.60
   4   6   5  108.09    5.60
   4   6   5  105.29    8.90
  -5  -6  -5   15.70    2.90
  -5  -6  -5   16.40    6.10
   5   6   5   20.30    4.00
   5   6   5    9.50    5.40
  -6  -6  -5    7.30    6.30
  -6  -6  -5    6.20    3.00
   6   6   5   14.80    4.20
  -7  -6  -5   -2.80    6.50
  -7  -6  -5    5.60    3.40
   7   6   5    1.40    5.40
   7   6   5   37.20    9.10
   5  -7  -5   45.60    7.90
   5  -7  -5   66.29    8.10
  -5   7   5   58.19    5.90
  -5   7   5   55.69    4.70
   4  -7  -5   24.00    5.40
   4  -7  -5   24.40    4.50
   4  -7  -5   20.40    4.90
  -4   7   5   20.20    3.20
  -4   7   5   19.20    3.70
   3  -7  -5  133.89    9.50
   3  -7  -5  117.99    7.20
   3  -7  -5  124.69    6.30
   3  -7  -5  118.29    8.70
  -3   7   5  124.69    5.00
  -3   7   5  123.69    6.50
  -3   7   5  124.09    5.50
   2  -7  -5    5.60    2.60
   2  -7  -5   10.10    2.80
   2  -7  -5    2.30    3.50
   2  -7  -5    8.30    4.50
  -2   7   5    4.40    1.40
  -2   7   5    6.60    2.70
  -2   7   5    6.50    2.40
   1  -7  -5  644.14   16.20
   1  -7  -5  617.04   18.00
   1  -7  -5  660.23   16.60
   1  -7  -5  655.63   17.80
  -1   7   5  649.43   15.90
  -1   7   5  672.13   16.00
   0  -7  -5    5.60    2.40
   0  -7  -5    6.80    1.90
   0  -7  -5    5.70    3.20
   0  -7  -5    6.50    2.90
   0   7   5    5.30    2.00
   0   7   5    6.70    1.90
   0   7   5    9.80    3.50
  -1  -7  -5   57.59    3.00
  -1  -7  -5   59.29    5.30
  -1  -7  -5   65.89    5.20
  -1  -7  -5   51.19    3.80
   1   7   5   56.39    4.50
   1   7   5   59.99    4.70
   1   7   5   69.09    5.00
  -2  -7  -5   40.10    4.80
  -2  -7  -5   35.60    1.80
  -2  -7  -5   41.50    3.60
  -2  -7  -5   45.60    4.50
   2   7   5   31.80    4.60
   2   7   5   34.40    3.80
   2   7   5   42.80    4.90
  -3  -7  -5   92.89    5.80
  -3  -7  -5   96.59    5.00
  -3  -7  -5   87.99    4.00
   3   7   5   85.19    6.80
   3   7   5   87.89    7.30
   3   7   5   86.89    5.00
  -4  -7  -5    3.50    1.70
  -4  -7  -5    4.40    1.90
  -4  -7  -5    4.30    5.20
   4   7   5    4.00    3.10
   4   7   5    6.50    4.40
   4   7   5    0.00    2.40
  -5  -7  -5   10.20    6.40
  -5  -7  -5   15.00    2.80
   5   7   5   14.80    4.20
   5   7   5   16.90    4.70
  -6  -7  -5   48.40    9.00
   6   7   5   56.79    6.20
  -7  -7  -5    3.20    6.80
   7   7   5   -2.00    5.50
   5  -8  -5   33.30    7.00
   5  -8  -5   16.40    5.50
  -5   8   5   20.20    3.70
  -5   8   5   19.40    3.60
   4  -8  -5  163.68   12.40
   4  -8  -5  166.98   10.30
  -4   8   5  177.28    8.80
  -4   8   5  189.68    7.90
   3  -8  -5    1.20    2.80
   3  -8  -5   -0.80    2.40
   3  -8  -5   -0.10    4.90
   3  -8  -5   -0.80    2.90
  -3   8   5    1.60    2.50
  -3   8   5   -0.20    1.90
  -3   8   5    0.10    1.90
   2  -8  -5  184.78    8.00
   2  -8  -5  187.18   10.10
   2  -8  -5  201.08   11.20
   2  -8  -5  177.88    8.10
  -2   8   5  193.38    6.60
  -2   8   5  199.78    7.60
  -2   8   5  199.18    8.10
   1  -8  -5  115.29    6.50
   1  -8  -5  110.79    7.60
   1  -8  -5  118.89    6.00
   1  -8  -5  118.99    6.90
  -1   8   5  125.29    5.90
  -1   8   5  119.29    6.30
   0  -8  -5   76.49    4.30
   0  -8  -5   70.79    6.80
   0  -8  -5   70.29    5.30
   0  -8  -5   80.99    6.50
   0   8   5   76.69    5.40
   0   8   5   61.89    4.90
   0   8   5   68.99    4.10
  -1  -8  -5   58.19    4.90
  -1  -8  -5   60.29    3.30
  -1  -8  -5   68.09    6.80
  -1  -8  -5   57.29    5.40
   1   8   5   59.69    5.50
   1   8   5   58.79    4.90
   1   8   5   58.79    4.40
  -2  -8  -5   48.80    4.80
  -2  -8  -5   49.00    5.30
  -2  -8  -5   43.60    4.40
   2   8   5   57.89    5.00
   2   8   5   49.00    5.30
   2   8   5   62.29    5.70
  -3  -8  -5  116.69    6.40
  -3  -8  -5  124.29    6.10
   3   8   5  112.29    6.70
   3   8   5  124.79    8.60
   3   8   5  114.89    6.60
  -4  -8  -5    3.60    2.50
  -4  -8  -5   -3.30    3.80
   4   8   5    7.90    4.90
   4   8   5    3.10    2.80
   4   8   5    7.30    3.60
  -5  -8  -5   38.00    7.30
   5   8   5   28.20    5.10
  -6  -8  -5   25.90    8.50
   6   8   5   28.80    5.40
   4  -9  -5   64.89    9.40
   4  -9  -5   70.09    7.70
  -4   9   5   59.69    4.90
  -4   9   5   67.39    5.80
   3  -9  -5   41.30    5.20
   3  -9  -5   53.09    6.50
   3  -9  -5   28.00    7.20
   3  -9  -5   31.70    5.40
  -3   9   5   42.60    3.90
  -3   9   5   39.50    4.30
   2  -9  -5   18.00    3.90
   2  -9  -5   25.30    5.30
   2  -9  -5   29.30    4.20
   2  -9  -5   23.70    5.40
  -2   9   5   23.20    3.80
  -2   9   5   18.00    2.90
  -2   9   5   27.20    4.10
   1  -9  -5   -1.00    3.10
   1  -9  -5    1.90    2.90
   1  -9  -5    3.30    3.60
   1  -9  -5    1.70    1.50
  -1   9   5    3.60    3.10
  -1   9   5   -2.40    1.90
   0  -9  -5  306.57   12.00
   0  -9  -5  320.77   11.30
   0  -9  -5  317.27   12.50
   0   9   5  336.57   11.20
   0   9   5  324.47   11.30
  -1  -9  -5    3.50    2.20
  -1  -9  -5    2.70    4.30
  -1  -9  -5    3.90    2.50
   1   9   5    9.70    4.20
   1   9   5    5.60    2.50
   1   9   5    6.70    2.70
  -2  -9  -5   50.09    6.70
  -2  -9  -5   52.29    5.00
  -2  -9  -5   55.69    5.10
   2   9   5   45.50    4.70
   2   9   5   47.10    5.10
   2   9   5   46.20    5.70
  -3  -9  -5   14.70    3.30
  -3  -9  -5   16.40    3.40
   3   9   5   14.70    4.00
   3   9   5   16.90    4.60
   3   9   5   12.40    3.70
  -4  -9  -5   14.40    3.10
  -4  -9  -5   15.60    5.60
   4   9   5   22.90    5.70
   4   9   5   15.70    5.40
   4   9   5   20.50    4.10
  -5  -9  -5   12.90    7.60
   5   9   5   11.10    5.70
  -6  -9  -5   13.60    8.00
   6   9   5   -1.30    4.10
   4 -10  -5    1.50    5.80
   4 -10  -5   -4.80    4.30
  -4  10   5    1.00    2.40
  -4  10   5   -3.50    2.50
   3 -10  -5  168.08   13.10
   3 -10  -5  171.58    9.40
   3 -10  -5  171.78   11.90
  -3  10   5  175.08    8.90
  -3  10   5  160.48    7.10
   2 -10  -5    5.50    3.10
   2 -10  -5    4.30    3.50
   2 -10  -5    0.20    5.40
   2 -10  -5    2.00    3.50
  -2  10   5    5.60    3.40
  -2  10   5    7.10    2.60
  -2  10   5    2.70    2.30
   1 -10  -5  168.78   10.20
   1 -10  -5  164.28    7.60
   1 -10  -5  166.68   10.00
   1 -10  -5  171.88    9.10
  -1  10   5  162.08    8.20
  -1  10   5  175.98    8.50
   0 -10  -5  161.58    8.40
   0 -10  -5  165.28    8.10
   0 -10  -5  172.88   10.80
   0  10   5  167.88    8.60
   0  10   5  186.28    8.90
  -1 -10  -5   50.09    7.30
  -1 -10  -5   59.49    6.10
  -1 -10  -5   48.20    5.00
   1  10   5   46.70    5.50
   1  10   5   52.79    6.30
  -2 -10  -5   22.10    4.20
  -2 -10  -5   18.80    3.40
  -2 -10  -5   19.30    5.90
   2  10   5   19.20    4.10
   2  10   5   11.40    4.60
   2  10   5   26.30    4.50
  -3 -10  -5   12.30    5.50
  -3 -10  -5   15.30    3.70
   3  10   5   16.70    4.80
   3  10   5   15.30    5.50
   3  10   5   12.30    4.10
  -4 -10  -5   77.89    5.60
  -4 -10  -5   69.39   10.50
   4  10   5   80.59    8.30
   4  10   5   72.89    6.70
  -5 -10  -5    5.40    5.60
   5  10   5   -3.50    5.40
   3 -11  -5   32.40    7.00
   3 -11  -5   37.30    8.60
   3 -11  -5   32.70    7.40
  -3  11   5   47.70    4.40
  -3  11   5   47.50    5.70
   2 -11  -5    2.90    2.90
   2 -11  -5   -2.20    5.90
   2 -11  -5   -4.50    4.70
  -2  11   5    0.80    3.40
  -2  11   5    1.20    1.80
   1 -11  -5   53.89    6.70
   1 -11  -5   53.99    6.30
   1 -11  -5   52.09    7.10
  -1  11   5   56.19    6.00
  -1  11   5   60.89    6.00
   0 -11  -5    4.40    5.20
   0 -11  -5    4.00    3.80
   0 -11  -5   -0.40    2.90
   0  11   5   -0.40    3.90
   0  11   5    1.10    3.70
  -1 -11  -5   35.10    5.30
  -1 -11  -5   58.89    6.20
  -1 -11  -5   53.69    7.00
   1  11   5   46.90    6.60
   1  11   5   59.99    6.30
  -2 -11  -5    1.50    2.70
  -2 -11  -5  -10.20    5.10
   2  11   5    3.10    5.00
   2  11   5   -2.40    2.50
  -3 -11  -5   34.80    4.90
  -3 -11  -5   31.60    5.90
   3  11   5   40.70    6.80
   3  11   5   29.40    4.80
  -4 -11  -5    9.10    3.30
  -4 -11  -5    4.20    5.50
   4  11   5    6.30    4.30
   4  11   5    2.60    4.20
  -5 -11  -5   -2.60    7.60
   5  11   5    0.60    5.70
   2 -12  -5  109.09   10.40
   2 -12  -5  110.59    9.80
   2 -12  -5  132.59    9.60
  -2  12   5  126.59    7.10
   1 -12  -5    2.80    4.10
   1 -12  -5   -1.60    5.80
   1 -12  -5    0.10    4.70
  -1  12   5   -1.90    2.40
  -1  12   5    0.80    4.00
  -1  12   5    9.80    3.70
   0 -12  -5   64.19    8.70
   0 -12  -5   46.90    6.60
   0 -12  -5   71.19    6.80
   0  12   5   61.69    6.90
   0  12   5   45.20    6.30
  -1 -12  -5   48.20    7.10
  -1 -12  -5   53.29    6.60
   1  12   5   44.10    5.80
   1  12   5   62.19    6.80
  -2 -12  -5    9.90    6.40
  -2 -12  -5    8.90    4.50
   2  12   5   13.40    5.90
   2  12   5   10.80    4.80
  -3 -12  -5   14.80    4.20
  -3 -12  -5   10.50    4.80
   3  12   5    8.00    4.40
   3  12   5   12.30    4.90
  -4 -12  -5   15.60    3.90
  -4 -12  -5   28.90    9.20
   4  12   5   16.00    6.50
   4  12   5   21.80    5.20
  -1  13   5    6.60    4.40
   0 -13  -5   42.50    8.50
   0 -13  -5   41.90    5.80
   0  13   5   38.20    6.20
   0  13   5   47.40    6.00
  -1 -13  -5   -1.70    4.30
  -1 -13  -5   -1.20    6.10
   1  13   5   -2.30    5.00
   1  13   5   -1.30    4.20
  -2 -13  -5   34.30    7.80
  -2 -13  -5   22.70    5.50
   2  13   5   40.20    7.10
   2  13   5   34.70    6.20
   2  12  -6   27.40    5.70
   2  12  -6   30.20    6.40
  -2 -12   6   13.30    5.30
   1  12  -6   10.30    4.90
   1  12  -6    3.70    3.50
  -1 -12   6    6.30    5.10
   0  12  -6    7.10    3.70
   0 -12   6    1.40    3.40
  -1  12  -6   17.90    4.10
   1 -12   6   19.30    7.20
   1 -12   6   20.20    4.80
   4  11  -6   11.80    4.60
   4  11  -6    3.50    5.30
   4  11  -6   -3.30    5.80
  -4 -11   6   -0.70    6.10
   3  11  -6   40.70    6.60
   3  11  -6   35.00    6.60
   3  11  -6   48.40    6.40
  -3 -11   6   40.80    5.60
   2  11  -6   44.60    5.40
   2  11  -6   27.50    6.20
  -2 -11   6   34.90    5.80
   1  11  -6   10.80    5.20
   1  11  -6    7.70    4.60
  -1 -11   6   11.50    4.80
   0  11  -6   53.89    6.60
   0  11  -6   53.39    7.50
   0 -11   6   51.19    6.10
   0 -11   6   46.30    6.20
  -1  11  -6    0.10    3.80
   1 -11   6    6.20    4.50
   1 -11   6    1.10    4.00
  -2  11  -6   12.60    4.20
   2 -11   6    8.80    4.90
   2 -11   6   13.70    5.50
   5  10  -6    8.60    4.80
  -5 -10   6   15.40    5.60
   4  10  -6    3.00    5.40
   4  10  -6   -5.90    5.40
   4  10  -6   -1.10    2.50
  -4 -10   6   -0.40    5.50
   3  10  -6   50.19    7.00
   3  10  -6   31.20    4.60
   3  10  -6   35.30    6.90
  -3 -10   6   44.80    5.40
   2  10  -6    8.90    4.10
   2  10  -6   15.70    5.40
   2  10  -6   10.20    4.90
  -2 -10   6   12.90    4.40
   1  10  -6   18.00    5.50
   1  10  -6   21.50    4.70
  -1 -10   6   18.60    5.00
  -1 -10   6   16.40    4.60
   0  10  -6   42.40    5.40
   0  10  -6   55.69    7.10
   0 -10   6   50.09    6.10
   0 -10   6   48.00    6.10
  -1  10  -6   23.20    4.80
   1 -10   6   15.50    4.70
   1 -10   6   12.30    6.10
  -2  10  -6   29.90    4.70
   2 -10   6   28.30    4.70
   2 -10   6   32.70    7.50
   2 -10   6   31.90    5.00
  -3  10  -6   15.90    3.80
  -3  10  -6    8.70    3.40
   3 -10   6   10.90    4.50
   3 -10   6   12.70    5.00
   3 -10   6   14.90    5.40
   5   9  -6   -1.00    6.10
   5   9  -6   -3.90    5.50
  -5  -9   6    2.00    3.90
  -5  -9   6    6.30    5.90
   4   9  -6    2.00    5.40
   4   9  -6    3.90    3.50
   4   9  -6   -5.90    5.80
  -4  -9   6    4.00    3.50
  -4  -9   6   -9.10    4.70
   3   9  -6   31.90    4.90
   3   9  -6   29.60    5.90
   3   9  -6   31.20    7.20
  -3  -9   6   24.30    4.00
  -3  -9   6   31.80    4.60
   2   9  -6   83.99    6.90
   2   9  -6   78.99    6.90
   2   9  -6   78.29    7.50
  -2  -9   6   70.39    5.80
   1   9  -6   60.89    7.00
   1   9  -6   57.39    5.30
   1   9  -6   72.59    5.60
  -1  -9   6   72.09    6.30
  -1  -9   6   60.89    6.10
   0   9  -6    7.40    3.40
   0   9  -6   -4.40    3.70
   0  -9   6    4.40    3.10
   0  -9   6    6.20    3.70
  -1   9  -6   55.29    7.00
  -1   9  -6   48.00    5.20
   1  -9   6   47.00    5.50
   1  -9   6   49.20    6.00
   1  -9   6   43.10    4.50
   1  -9   6   53.99    7.20
  -2   9  -6    1.50    3.10
   2  -9   6    5.30    5.40
   2  -9   6    2.70    3.50
   2  -9   6    0.60    3.70
  -3   9  -6   14.50    3.50
  -3   9  -6   14.50    3.40
   3  -9   6   16.80    4.70
   3  -9   6   29.80    7.40
  -4   9  -6   21.10    4.10
   4  -9   6   32.20    8.30
   6   8  -6   28.70    6.90
  -6  -8   6    7.60    6.10
  -6  -8   6   13.20    5.20
   5   8  -6    0.70    5.10
   5   8  -6   -4.10    5.90
  -5  -8   6   -1.90    2.50
  -5  -8   6    5.30    5.50
   4   8  -6   35.50    7.40
   4   8  -6   31.80    4.40
   4   8  -6   38.10    5.50
  -4  -8   6   16.50    3.60
  -4  -8   6   26.80    4.70
  -4  -8   6   29.70    6.50
   3   8  -6   20.40    5.00
   3   8  -6   15.20    6.30
   3   8  -6   10.90    3.50
  -3  -8   6   13.50    2.90
  -3  -8   6   10.30    3.30
   2   8  -6  179.68   11.50
   2   8  -6  181.18    7.90
   2   8  -6  185.78    9.10
  -2  -8   6  194.78    8.60
  -2  -8   6  190.38    8.10
   1   8  -6   21.60    3.80
   1   8  -6   20.50    4.00
   1   8  -6   20.20    5.10
  -1  -8   6   20.80    4.00
  -1  -8   6   21.10    4.00
   0   8  -6    3.90    3.00
   0   8  -6    6.20    3.90
   0  -8   6   -1.20    2.80
   0  -8   6   -1.50    2.90
   0  -8   6    0.40    2.50
  -1   8  -6   66.79    5.90
  -1   8  -6   67.49    5.00
   1  -8   6   71.59    6.30
   1  -8   6   62.89    6.20
   1  -8   6   73.39    6.30
  -2   8  -6   53.49    4.90
   2  -8   6   54.09    7.30
   2  -8   6   45.30    4.80
   2  -8   6   52.69    5.70
  -3   8  -6   31.30    3.90
   3  -8   6   54.69    6.00
   3  -8   6   50.79    7.90
   3  -8   6   32.70    5.00
  -4   8  -6   31.60    4.20
   4  -8   6   38.80    8.10
  -5   8  -6   44.50    4.60
   5  -8   6   70.39   10.70
   6   7  -6    4.90    4.10
  -6  -7   6    3.00    4.30
  -6  -7   6    7.40    5.70
   5   7  -6   18.70    6.30
   5   7  -6   16.30    4.50
  -5  -7   6   20.80    6.10
  -5  -7   6   19.70    4.80
   4   7  -6   16.20    3.30
   4   7  -6   14.30    4.90
   4   7  -6   11.90    5.90
  -4  -7   6   23.20    4.30
  -4  -7   6   21.80    5.60
   3   7  -6   27.40    3.80
   3   7  -6   25.80    4.80
   3   7  -6   26.00    6.30
  -3  -7   6   27.60    3.50
  -3  -7   6   31.70    5.60
  -3  -7   6   21.20    3.80
   2   7  -6  133.79    9.90
   2   7  -6  127.39    6.50
   2   7  -6  127.69    5.90
  -2  -7   6  129.59    6.60
  -2  -7   6  128.29    5.80
  -2  -7   6  138.29    6.70
   1   7  -6  134.19    6.60
   1   7  -6  145.59    6.80
   1   7  -6  135.29    7.90
  -1  -7   6  148.39    7.10
  -1  -7   6  138.49    7.00
   0   7  -6   96.69    5.20
   0   7  -6   88.39    7.30
   0   7  -6   95.89    4.70
   0  -7   6   94.39    6.80
   0  -7   6   97.19    6.00
   0  -7   6   91.89    6.40
  -1   7  -6    9.60    3.10
  -1   7  -6    5.00    3.80
   1  -7   6    9.70    2.60
   1  -7   6    7.40    3.00
   1  -7   6    4.50    2.50
  -2   7  -6  104.19    5.90
  -2   7  -6  111.39    5.00
   2  -7   6  108.49    6.80
   2  -7   6  113.69    9.10
   2  -7   6  103.39    7.40
  -3   7  -6   10.20    2.50
  -3   7  -6    6.70    2.50
   3  -7   6    5.30    3.90
   3  -7   6    3.80    3.10
   3  -7   6    9.60    4.20
  -4   7  -6   14.50    3.30
  -4   7  -6    7.00    2.70
   4  -7   6    9.90    4.50
   4  -7   6   10.60    4.70
  -5   7  -6   85.09    6.10
  -5   7  -6   86.89    6.40
   5  -7   6   86.09    9.70
   6   6  -6   -5.40    3.30
   6   6  -6    5.10    3.80
  -6  -6   6    0.20    4.30
  -6  -6   6    4.30    5.20
   5   6  -6  102.49    9.70
   5   6  -6  124.69    9.40
  -5  -6   6   89.69    8.60
  -5  -6   6  111.59    8.70
   4   6  -6    8.40    2.60
   4   6  -6   13.80    3.60
   4   6  -6   13.90    5.10
  -4  -6   6    6.80    3.40
  -4  -6   6   11.20    3.60
   3   6  -6  173.08    8.50
   3   6  -6  172.58    6.90
   3   6  -6  166.28   10.00
   3   6  -6  164.48    6.00
  -3  -6   6  173.08    9.40
  -3  -6   6  181.58    8.40
  -3  -6   6  175.38    6.60
   2   6  -6   59.19    3.90
   2   6  -6   58.79    5.20
   2   6  -6   58.99    6.00
  -2  -6   6   52.09    4.40
  -2  -6   6   60.59    4.70
   1   6  -6  267.07   11.40
   1   6  -6  262.57    8.70
   1   6  -6  260.97    8.50
  -1  -6   6  248.48    8.60
  -1  -6   6  256.37    9.40
  -1  -6   6  262.17    9.00
   0   6  -6  136.19    7.30
   0   6  -6  144.39    5.60
   0   6  -6  127.89    5.70
   0  -6   6  143.09    6.40
   0  -6   6  143.49    6.70
   0  -6   6  138.59    6.70
  -1   6  -6    0.80    1.20
  -1   6  -6   -1.20    2.30
  -1   6  -6    0.20    3.00
   1  -6   6   -0.50    2.10
   1  -6   6    3.10    2.40
   1  -6   6    2.40    1.90
  -2   6  -6  109.89    5.00
  -2   6  -6  122.99    6.90
  -2   6  -6  118.09    5.70
   2  -6   6  113.39    6.50
   2  -6   6  119.39    8.50
   2  -6   6  114.09    5.80
  -3   6  -6   14.10    2.70
  -3   6  -6   12.60    2.60
  -3   6  -6   15.80    2.80
   3  -6   6   15.70    4.50
   3  -6   6   15.70    4.20
   3  -6   6   14.10    3.30
  -4   6  -6   74.09    5.20
  -4   6  -6   80.89    5.90
   4  -6   6   81.89    7.60
   4  -6   6   93.39    9.20
  -5   6  -6   40.20    4.40
  -5   6  -6   46.80    5.30
   5  -6   6   49.80    8.60
  -6   6  -6   54.69    5.10
  -6   6  -6   63.29    6.60
   6  -6   6   53.79    8.30
   7   5  -6    1.80    4.90
  -7  -5   6   -0.70    4.70
  -7  -5   6    2.00    4.00
   6   5  -6   30.80    5.20
   6   5  -6   18.50    5.60
  -6  -5   6   20.00    6.20
  -6  -5   6   23.30    4.70
   5   5  -6   47.00    6.40
  -5  -5   6   48.60    5.70
  -5  -5   6   49.90    6.90
   4   5  -6   63.49    4.20
   4   5  -6   61.39    6.00
  -4  -5   6   64.79    6.80
  -4  -5   6   59.39    5.90
   3   5  -6   44.60    3.20
   3   5  -6   45.90    5.00
   3   5  -6   42.70    3.60
  -3  -5   6   46.50    4.80
  -3  -5   6   48.60    5.60
  -3  -5   6   43.50    3.40
   2   5  -6    9.60    4.40
   2   5  -6   13.30    2.60
   2   5  -6    4.80    2.30
  -2  -5   6    9.60    2.60
  -2  -5   6    7.90    1.50
  -2  -5   6   11.90    2.10
   1   5  -6  474.05   11.90
   1   5  -6  484.45   14.40
  -1  -5   6  452.95   11.70
  -1  -5   6  446.96   12.10
  -1  -5   6  478.05   13.40
   0   5  -6   63.89    4.30
   0   5  -6   61.39    3.40
   0   5  -6   65.99    6.20
   0  -5   6   58.89    4.70
   0  -5   6   65.29    5.30
   0  -5   6   68.39    4.60
  -1   5  -6   75.89    3.70
  -1   5  -6   83.49    2.90
  -1   5  -6   88.39    4.90
  -1   5  -6   78.99    6.10
   1  -5   6   91.19    6.50
   1  -5   6   90.79    5.10
   1  -5   6   75.29    5.20
  -2   5  -6   60.49    4.20
  -2   5  -6   53.59    5.30
  -2   5  -6   48.30    3.60
   2  -5   6   49.90    4.10
   2  -5   6   57.69    5.70
   2  -5   6   60.59    5.60
   2  -5   6   58.99    4.60
  -3   5  -6  150.28    6.20
  -3   5  -6  147.09    5.00
  -3   5  -6  144.99    5.60
  -3   5  -6  141.09    5.80
   3  -5   6  160.18    6.80
   3  -5   6  153.98    6.80
   3  -5   6  155.28    9.00
   3  -5   6  157.28    9.60
  -4   5  -6   69.69    5.50
  -4   5  -6   82.39    4.90
   4  -5   6   65.69    5.00
   4  -5   6   71.79    8.20
   4  -5   6   75.79    7.50
  -5   5  -6   10.40    2.70
  -5   5  -6   11.10    3.70
   5  -5   6   15.10    6.60
   5  -5   6   24.70    6.20
  -6   5  -6   59.09    4.80
  -6   5  -6   60.49    6.50
   6  -5   6   62.09    9.70
   7   4  -6   30.50    6.30
  -7  -4   6    9.10    4.70
  -7  -4   6    8.50    5.30
   6   4  -6   45.60    6.80
  -6  -4   6   45.20    5.90
  -6  -4   6   59.59    8.10
   5   4  -6    4.30    4.00
  -5  -4   6   -1.80    3.60
  -5  -4   6    0.00    2.40
   4   4  -6   62.29    4.10
   4   4  -6   54.59    5.30
  -4  -4   6   64.69    6.60
  -4  -4   6   60.69    5.80
   3   4  -6   25.40    2.70
   3   4  -6   26.90    3.80
   3   4  -6   23.80    2.70
  -3  -4   6   24.80    2.60
  -3  -4   6   28.30    3.80
  -3  -4   6   30.70    4.40
   2   4  -6  365.96    9.70
   2   4  -6  353.56   11.90
   2   4  -6  365.26    9.70
  -2  -4   6  364.16   11.10
  -2  -4   6  383.56   11.10
  -2  -4   6  375.66    9.80
   1   4  -6   71.09    4.50
   1   4  -6   82.19    6.50
   1   4  -6   67.89    3.90
  -1  -4   6   67.09    4.50
  -1  -4   6   64.89    3.30
  -1  -4   6   73.59    4.20
   0   4  -6  322.37    8.70
   0   4  -6  305.87   11.00
   0  -4   6  295.97    8.60
   0  -4   6  309.37    9.80
   0  -4   6  310.77    8.80
  -1   4  -6  112.99    4.90
  -1   4  -6  111.89    2.80
  -1   4  -6  108.89    6.40
  -1   4  -6  113.69    3.20
   1  -4   6  117.79    6.10
   1  -4   6  113.89    6.00
   1  -4   6  110.39    5.20
   1  -4   6  113.99    5.40
  -2   4  -6   44.20    4.40
  -2   4  -6   36.60    3.00
  -2   4  -6   39.80    3.40
   2  -4   6   40.90    4.90
   2  -4   6   43.10    5.40
   2  -4   6   40.60    3.60
   2  -4   6   44.50    3.90
  -3   4  -6  249.38    6.40
  -3   4  -6  248.88    7.40
  -3   4  -6  244.78    7.20
  -3   4  -6  259.57    8.70
   3  -4   6  247.28    8.50
   3  -4   6  261.77   10.20
   3  -4   6  250.47    8.40
   3  -4   6  247.38   10.30
  -4   4  -6   24.60    2.50
  -4   4  -6   24.30    2.80
  -4   4  -6   22.80    3.60
   4  -4   6   27.40    4.90
   4  -4   6   30.30    4.20
   4  -4   6   22.70    4.80
   4  -4   6   26.20    3.40
  -5   4  -6   75.99    4.60
  -5   4  -6   92.39    6.10
   5  -4   6   86.59    8.40
   5  -4   6  103.79    9.40
  -6   4  -6   15.80    3.10
  -6   4  -6   17.30    4.40
   6  -4   6   17.00    5.50
   6  -4   6   10.60    6.50
   7   3  -6   52.59    6.60
  -7  -3   6   49.30    6.60
  -7  -3   6   36.00    6.20
   6   3  -6    5.70    3.30
  -6  -3   6   -3.60    4.40
  -6  -3   6   -1.20    3.80
   5   3  -6   49.40    4.20
   5   3  -6   56.79    6.30
  -5  -3   6   43.90    5.20
  -5  -3   6   57.79    6.80
   4   3  -6   93.89    6.90
   4   3  -6   92.99    4.90
  -4  -3   6   95.09    6.50
  -4  -3   6   88.59    7.00
   3   3  -6  166.98    4.50
   3   3  -6  172.88    5.60
   3   3  -6  187.88    7.80
   3   3  -6  187.78    6.50
  -3  -3   6  182.88    7.40
  -3  -3   6  170.08    5.10
  -3  -3   6  178.38    7.80
   2   3  -6  564.84   13.30
   2   3  -6  566.44   13.20
   2   3  -6  578.04   15.40
  -2  -3   6  604.84   13.30
  -2  -3   6  596.74   14.80
  -2  -3   6  547.35   14.30
   1   3  -6   90.09    5.90
   1   3  -6   96.39    4.60
   1   3  -6   92.09    4.10
  -1  -3   6   93.29    3.10
  -1  -3   6   84.09    5.20
  -1  -3   6   86.19    3.80
   0   3  -6 1331.67   29.00
   0   3  -6 1372.96   27.40
   0   3  -6 1328.77   26.90
   0  -3   6 1359.16   28.60
   0  -3   6 1271.47   26.90
   0  -3   6 1327.37   27.40
  -1   3  -6   24.50    0.70
  -1   3  -6   26.00    2.60
  -1   3  -6   28.40    3.80
   1  -3   6   27.40    2.80
   1  -3   6   27.30    4.10
   1  -3   6   27.90    3.30
  -2   3  -6  555.24   11.40
  -2   3  -6  577.94   14.00
  -2   3  -6  592.34   14.80
  -2   3  -6  576.74   13.20
   2  -3   6  581.64   16.10
   2  -3   6  578.74   14.20
   2  -3   6  567.84   14.60
  -3   3  -6   49.90    3.00
  -3   3  -6   44.40    3.90
  -3   3  -6   48.10    3.40
   3  -3   6   48.20    6.20
   3  -3   6   56.49    3.70
   3  -3   6   47.30    4.60
  -4   3  -6  220.98    8.80
  -4   3  -6  231.38    7.10
  -4   3  -6  226.58    6.50
   4  -3   6  235.68    9.60
   4  -3   6  240.48   11.70
   4  -3   6  236.38    8.20
  -5   3  -6  142.19    7.90
  -5   3  -6  145.09    6.10
   5  -3   6  135.49   10.50
   5  -3   6  141.09    8.50
  -6   3  -6   12.60    3.40
  -6   3  -6   12.90    2.70
   6  -3   6   11.60    5.40
   6  -3   6   22.60    6.60
   7   2  -6   23.00    5.60
  -7  -2   6   11.20    5.70
  -7  -2   6   15.30    5.50
   6   2  -6    5.60    4.50
  -6  -2   6    1.50    4.00
  -6  -2   6    4.80    4.60
   5   2  -6   81.79    7.40
   5   2  -6   92.79    5.50
  -5  -2   6   97.09    7.80
  -5  -2   6   80.09    4.60
  -5  -2   6  105.69    8.60
   4   2  -6   36.80    3.00
   4   2  -6   43.30    5.10
   4   2  -6   42.90    3.30
  -4  -2   6   43.70    5.20
  -4  -2   6   41.00    3.40
  -4  -2   6   46.30    4.60
   3   2  -6  175.78    5.30
   3   2  -6  196.08    6.70
   3   2  -6  174.58    5.30
   3   2  -6  195.68    8.30
   3   2  -6  166.88    3.90
  -3  -2   6  170.98    7.40
  -3  -2   6  178.98    4.60
  -3  -2   6  182.58    5.70
  -3  -2   6  181.38    7.60
   2   2  -6    2.10    2.40
   2   2  -6    1.00    1.30
   2   2  -6    2.70    1.00
   2   2  -6    1.50    1.90
  -2  -2   6    1.60    1.40
  -2  -2   6    3.30    1.90
  -2  -2   6    1.20    1.10
   1   2  -6  160.18    5.50
   1   2  -6  155.28    4.40
   1   2  -6  160.68    4.90
   1   2  -6  165.28    6.50
  -1  -2   6  149.49    5.70
  -1  -2   6  151.18    4.80
  -1  -2   6  162.48    5.20
  -1  -2   6  156.78    3.30
  -1  -2   6  146.69    5.90
   0   2  -6  275.87    7.20
   0   2  -6  275.97    7.80
   0   2  -6  270.87    8.70
   0  -2   6  265.37    8.30
   0  -2   6  263.67    7.70
   0  -2   6  276.67    8.00
  -1   2  -6  118.99    5.90
  -1   2  -6  114.09    4.30
   1  -2   6  120.69    5.60
   1  -2   6  119.99    5.70
   1  -2   6  109.09    4.70
  -2   2  -6   83.19    4.60
  -2   2  -6   91.39    3.80
   2  -2   6   89.69    6.90
   2  -2   6   82.39    5.70
   2  -2   6   85.09    4.30
  -3   2  -6  227.88    6.30
  -3   2  -6  238.88    6.50
  -3   2  -6  220.38    5.60
  -3   2  -6  225.68    7.90
   3  -2   6  224.58    9.00
   3  -2   6  218.58   10.30
   3  -2   6  223.98    7.30
  -4   2  -6   90.39    4.10
  -4   2  -6   79.89    5.50
   4  -2   6   87.79    4.70
   4  -2   6   88.19    7.50
   4  -2   6   90.79    7.20
  -5   2  -6    0.70    2.80
  -5   2  -6   -1.80    1.50
   5  -2   6    1.30    5.70
   5  -2   6   -4.30    3.90
  -6   2  -6   38.70    4.80
  -6   2  -6   45.00    3.90
   6  -2   6   45.80    7.20
  -7   2  -6    1.00    3.80
  -7   2  -6   -1.10    1.60
   7  -2   6   -1.30    7.00
   7   1  -6   11.10    4.40
  -7  -1   6   -0.80    3.00
   6   1  -6   74.79    5.40
   6   1  -6   89.59    8.70
  -6  -1   6   76.49    7.60
  -6  -1   6   67.79    4.90
  -6  -1   6   74.09    7.90
   5   1  -6   61.69    4.70
   5   1  -6   60.69    6.10
   5   1  -6   68.19    5.10
  -5  -1   6   66.59    6.40
  -5  -1   6   79.69    7.10
  -5  -1   6   53.79    3.90
   4   1  -6  131.39    7.60
   4   1  -6  124.69    5.80
   4   1  -6  126.29    6.00
  -4  -1   6  129.29    7.40
  -4  -1   6  130.09    7.20
  -4  -1   6  126.59    5.20
   3   1  -6  139.59    4.00
   3   1  -6  150.68    4.50
   3   1  -6  156.58    7.30
   3   1  -6  147.09    5.60
   3   1  -6  150.08    6.00
  -3  -1   6  144.99    5.20
  -3  -1   6  159.48    6.70
  -3  -1   6  148.19    6.50
  -3  -1   6  136.59    3.10
  -3  -1   6  145.99    3.20
   2   1  -6  182.98    7.20
   2   1  -6  187.78    5.40
   2   1  -6  186.38    5.70
   2   1  -6  197.08    6.50
  -2  -1   6  208.18    5.50
  -2  -1   6  199.48    6.30
  -2  -1   6  196.08    5.40
  -2  -1   6  195.98    7.00
   1   1  -6 1738.23   37.70
   1   1  -6 1874.61   36.30
   1   1  -6 1860.01   35.60
   1   1  -6 1847.22   37.30
   1   1  -6 1887.01   35.60
  -1  -1   6 1870.21   36.70
  -1  -1   6 1800.12   36.40
  -1  -1   6 1846.52   36.00
  -1  -1   6 1856.81   34.80
  -1  -1   6 1831.52   35.00
   0   1  -6  120.59    5.50
   0   1  -6  134.89    4.60
   0   1  -6  124.19    5.20
   0   1  -6  123.69    4.20
   0   1  -6  122.09    4.00
   0  -1   6  130.19    5.00
   0  -1   6  123.39    2.70
   0  -1   6  124.59    4.70
   0  -1   6  123.39    4.60
   0  -1   6  123.09    5.10
  -1   1  -6 1441.36   28.90
  -1   1  -6 1450.15   29.20
  -1   1  -6 1403.66   28.10
   1  -1   6 1431.26   30.20
   1  -1   6 1401.86   29.50
   1  -1   6 1416.66   28.80
  -2   1  -6   64.39    2.30
  -2   1  -6   66.79    3.10
  -2   1  -6   67.69    3.60
   2  -1   6   62.49    3.60
   2  -1   6   65.89    5.50
   2  -1   6   60.09    2.00
   2  -1   6   62.69    5.10
  -3   1  -6  363.86    8.60
  -3   1  -6  353.86   10.50
  -3   1  -6  376.36    8.60
   3  -1   6  373.46    9.80
   3  -1   6  370.86   12.30
   3  -1   6  369.86   11.70
  -4   1  -6    4.30    1.40
  -4   1  -6    2.40    1.70
   4  -1   6    4.70    3.10
   4  -1   6    7.60    2.00
   4  -1   6    6.80    5.10
  -5   1  -6  111.29    6.40
  -5   1  -6  117.79    5.10
   5  -1   6  101.59    8.30
   5  -1   6  130.59   10.40
  -6   1  -6   75.99    4.80
  -6   1  -6   67.49    6.00
   6  -1   6   69.99    8.20
   6  -1   6   95.49   10.30
  -7   1  -6    5.80    2.50
  -7   1  -6    7.90    4.40
   7  -1   6   12.00    7.80
   7   0  -6   45.20    5.90
  -7   0   6   21.60    4.30
  -7   0   6   25.30    4.90
   6   0  -6  105.39    9.60
  -6   0   6   96.29    8.10
  -6   0   6   86.29    6.00
   5   0  -6    0.40    2.50
   5   0  -6    0.70    1.70
   5   0  -6    5.30    3.60
  -5   0   6   -1.70    3.00
  -5   0   6    1.70    3.30
  -5   0   6    0.60    2.30
   4   0  -6  167.68    7.00
   4   0  -6  155.68    6.00
   4   0  -6  155.38    6.90
   4   0  -6  172.88    8.10
  -4   0   6  170.18    6.40
  -4   0   6  164.88    8.00
  -4   0   6  170.18    5.60
  -4   0   6  164.98    7.80
   3   0  -6   77.49    4.50
   3   0  -6   70.69    3.00
   3   0  -6   78.79    4.20
   3   0  -6   74.69    5.50
   3   0  -6   68.59    3.30
  -3   0   6   81.89    3.90
  -3   0   6   82.89    4.80
  -3   0   6   76.49    4.80
  -3   0   6   77.09    3.20
   2   0  -6  676.43   15.30
   2   0  -6  651.13   13.90
   2   0  -6  644.04   16.30
   2   0  -6  668.13   14.80
   2   0  -6  614.24   13.00
  -2   0   6  666.23   15.70
  -2   0   6  658.83   13.80
  -2   0   6  657.03   14.50
  -2   0   6  662.83   14.10
   1   0  -6  458.95   10.70
   1   0  -6  449.56   11.10
   1   0  -6  437.26   11.50
   1   0  -6  465.55   11.00
   1   0  -6  446.36   10.10
  -1   0   6  454.25   11.00
  -1   0   6  453.05   10.80
  -1   0   6  427.36    9.20
  -1   0   6  446.56    9.60
  -1   0   6  468.75   10.40
   0   0  -6  735.93   15.60
   0   0  -6  754.52   15.80
   0   0  -6  720.43   16.50
   0   0  -6  734.83   15.20
   0   0  -6  708.33   15.80
   0   0   6  722.93   16.30
   0   0   6  717.53   15.50
   0   0   6  709.73   15.70
   0   0   6  699.23   13.90
   0   0   6  734.53   16.30
  -1   0  -6   11.40    2.20
  -1   0  -6   10.50    1.20
  -1   0  -6    8.00    1.90
  -1   0  -6    6.90    1.40
  -1   0  -6    6.80    2.50
  -1   0  -6    8.50    2.00
   1   0   6    7.90    1.20
   1   0   6    7.50    1.60
   1   0   6    5.30    1.30
   1   0   6   11.80    2.80
   1   0   6    7.40    3.00
  -2   0  -6  136.89    5.30
  -2   0  -6  138.09    3.50
  -2   0  -6  140.69    4.40
  -2   0  -6  141.29    4.50
   2   0   6  140.89    6.60
   2   0   6  135.09    4.00
   2   0   6  137.79    6.30
   2   0   6  137.79    4.80
  -3   0  -6   69.19    5.10
  -3   0  -6   65.19    2.90
  -3   0  -6   69.19    4.40
  -3   0  -6   64.09    2.60
   3   0   6   71.89    6.90
   3   0   6   68.79    3.70
   3   0   6   60.69    5.80
  -4   0  -6   98.69    5.30
  -4   0  -6  103.79    3.90
  -4   0  -6  102.99    7.00
   4   0   6  108.29    7.90
   4   0   6  109.79    8.70
   4   0   6   99.19    4.50
   4   0   6   98.29    3.90
  -5   0  -6   46.60    6.30
  -5   0  -6   41.50    4.80
  -5   0  -6   50.19    3.40
   5   0   6   39.10    5.30
   5   0   6   56.69    7.90
  -6   0  -6    7.20    3.70
  -6   0  -6    5.60    2.00
   6   0   6    8.30    7.10
   6   0   6   10.30    5.70
  -7   0  -6   16.60    2.80
  -7   0  -6   26.80    4.70
   7   0   6   26.70    6.80
  -7   1   6   89.49    7.00
  -7   1   6   81.29    7.50
   6  -1  -6    7.00    3.70
   6  -1  -6   10.00    4.40
   6  -1  -6    5.30    3.20
  -6   1   6   -1.10    3.60
  -6   1   6    1.20    1.80
  -6   1   6    2.80    2.80
   5  -1  -6  242.58    9.90
   5  -1  -6  232.18    9.30
  -5   1   6  247.08    8.90
  -5   1   6  254.97   10.80
  -5   1   6  255.17    8.10
   4  -1  -6   97.69    5.30
   4  -1  -6   99.09    5.40
   4  -1  -6  100.39    6.10
  -4   1   6   95.49    4.10
  -4   1   6   98.79    5.80
  -4   1   6   94.89    5.00
   3  -1  -6  206.28    7.50
   3  -1  -6  210.98    6.60
   3  -1  -6  197.18    7.10
   3  -1  -6  192.68    5.50
  -3   1   6  199.28    6.30
  -3   1   6  198.48    5.80
  -3   1   6  200.38    7.70
   2  -1  -6 1223.78   25.10
   2  -1  -6 1176.18   24.20
   2  -1  -6 1220.88   25.70
   2  -1  -6 1213.08   24.30
   2  -1  -6 1233.88   25.70
  -2   1   6 1230.18   24.00
  -2   1   6 1215.78   25.90
  -2   1   6 1240.28   24.60
  -2   1   6 1228.78   24.00
   1  -1  -6  776.42   17.20
   1  -1  -6  771.02   17.90
   1  -1  -6  800.42   17.40
   1  -1  -6  791.72   17.20
   1  -1  -6  812.12   16.60
   1  -1  -6  771.42   16.10
  -1   1   6  805.92   17.20
  -1   1   6  788.62   16.10
  -1   1   6  756.02   18.00
  -1   1   6  823.82   16.70
  -1   1   6  814.52   16.70
  -1   1   6  806.72   15.50
   0  -1  -6 2662.43   49.70
   0  -1  -6 2541.45   49.10
   0  -1  -6 2616.64   49.70
   0  -1  -6 2544.35   50.39
   0  -1  -6 2611.94   49.20
   0  -1  -6 2565.54   49.80
   0   1   6 2540.45   49.70
   0   1   6 2523.15   49.60
   0   1   6 2571.04   49.20
   0   1   6 2636.84   50.09
   0   1   6 2612.94   49.40
  -1  -1  -6   86.89    3.50
  -1  -1  -6   90.09    3.50
  -1  -1  -6   92.99    3.40
  -1  -1  -6   93.49    4.50
  -1  -1  -6   98.49    4.10
  -1  -1  -6   89.29    5.00
   1   1   6   91.59    3.80
   1   1   6   85.09    3.80
   1   1   6   91.69    4.60
   1   1   6   88.59    3.40
   1   1   6   87.29    4.60
  -2  -1  -6  213.98    5.30
  -2  -1  -6  212.38    7.00
  -2  -1  -6  204.68    5.70
   2   1   6  216.68    6.00
   2   1   6  222.08    8.60
   2   1   6  210.28    6.20
   2   1   6  216.18    8.80
   2   1   6  221.28    6.40
  -3  -1  -6    5.80    1.60
  -3  -1  -6    3.40    2.00
  -3  -1  -6    1.80    1.50
  -3  -1  -6    5.70    1.00
   3   1   6    7.20    3.20
   3   1   6    6.70    1.80
   3   1   6    6.70    2.00
   3   1   6    4.70    2.80
  -4  -1  -6  125.09    5.80
  -4  -1  -6  121.09    7.60
  -4  -1  -6  110.99    2.70
  -4  -1  -6  121.19    4.10
   4   1   6  111.39    4.90
   4   1   6  117.39    4.80
   4   1   6  124.29    8.90
   4   1   6  130.29    8.40
  -5  -1  -6    2.80    1.40
  -5  -1  -6   -0.30    3.80
  -5  -1  -6    5.70    2.80
   5   1   6    5.90    4.50
   5   1   6    1.10    4.00
   5   1   6    3.50    3.20
  -6  -1  -6    3.40    1.40
  -6  -1  -6    3.90    3.80
  -6  -1  -6   10.70    3.60
   6   1   6    5.10    6.80
   6   1   6    6.00    5.40
  -7  -1  -6   40.20    5.90
  -7  -1  -6   36.80    8.10
   7   1   6   34.70    9.00
  -7   2   6    4.60    2.70
  -7   2   6    7.20    2.50
  -7   2   6    1.30    4.20
   6  -2  -6   35.10    5.70
  -6   2   6   39.10    4.10
  -6   2   6   42.00    5.70
  -6   2   6   45.20    4.90
   5  -2  -6  167.78    8.30
   5  -2  -6  157.48    8.00
   5  -2  -6  148.39    8.00
  -5   2   6  163.98    7.30
  -5   2   6  152.58    6.40
  -5   2   6  171.08    8.20
   4  -2  -6    6.00    3.00
   4  -2  -6    4.20    2.80
   4  -2  -6    5.80    2.10
  -4   2   6    7.90    2.20
  -4   2   6    6.10    2.80
  -4   2   6    4.40    1.70
   3  -2  -6  716.93   16.80
   3  -2  -6  735.33   17.90
   3  -2  -6  693.53   15.30
   3  -2  -6  710.13   17.50
  -3   2   6  723.63   15.60
  -3   2   6  719.33   17.60
  -3   2   6  719.53   16.40
   2  -2  -6   11.60    1.60
   2  -2  -6   12.20    2.00
   2  -2  -6    9.10    1.90
   2  -2  -6    9.90    2.20
   2  -2  -6   14.20    2.40
  -2   2   6   10.10    2.10
  -2   2   6   10.50    1.80
  -2   2   6   11.60    1.40
  -2   2   6   11.80    1.70
   1  -2  -6 1630.24   32.50
   1  -2  -6 1649.93   32.90
   1  -2  -6 1690.73   33.50
   1  -2  -6 1669.53   33.80
   1  -2  -6 1655.43   32.80
  -1   2   6 1658.63   32.50
  -1   2   6 1700.23   31.50
  -1   2   6 1652.63   32.80
   0  -2  -6  334.07    8.50
   0  -2  -6  322.67    9.10
   0  -2  -6  332.07    8.30
   0  -2  -6  320.77    9.00
   0  -2  -6  329.67    8.20
   0   2   6  326.67    8.40
   0   2   6  319.07    6.40
   0   2   6  320.07    8.20
   0   2   6  319.47    8.20
   0   2   6  320.67    8.00
   0   2   6  323.57    8.70
  -1  -2  -6    8.70    1.80
  -1  -2  -6   10.90    2.50
  -1  -2  -6   11.10    1.80
  -1  -2  -6    9.10    1.10
  -1  -2  -6   12.80    2.50
  -1  -2  -6   10.80    1.50
   1   2   6   11.40    1.40
   1   2   6   12.00    2.30
   1   2   6   11.20    1.90
   1   2   6   11.80    1.80
   1   2   6   12.70    2.40
  -2  -2  -6   22.70    3.00
  -2  -2  -6   16.30    2.90
  -2  -2  -6   19.20    1.90
   2   2   6   17.80    2.30
   2   2   6   14.20    1.80
   2   2   6   17.70    2.10
   2   2   6   13.00    2.80
   2   2   6    9.80    3.50
  -3  -2  -6   61.29    5.40
  -3  -2  -6   69.49    3.00
  -3  -2  -6   75.59    4.50
   3   2   6   61.49    5.70
   3   2   6   75.49    6.20
   3   2   6   66.79    4.20
   3   2   6   67.99    3.80
  -4  -2  -6   45.40    4.30
  -4  -2  -6   51.49    5.90
  -4  -2  -6   46.90    1.80
   4   2   6   42.10    3.30
   4   2   6   44.70    5.90
   4   2   6   56.99    6.00
   4   2   6   49.20    4.00
  -5  -2  -6    3.00    4.40
  -5  -2  -6    5.50    2.90
   5   2   6   -0.20    3.10
   5   2   6    7.90    2.90
   5   2   6    2.00    5.60
  -6  -2  -6   11.30    5.60
  -6  -2  -6   13.90    3.90
   6   2   6    0.00    5.20
   6   2   6    8.80    5.30
  -7  -2  -6    9.40    4.90
  -7  -2  -6   20.50    4.70
   7   2   6   14.30    8.20
   7  -3  -6   43.60    6.80
  -7   3   6   27.50    4.70
  -7   3   6   42.50    5.60
  -7   3   6   45.00    5.00
   6  -3  -6   83.09    8.10
  -6   3   6   75.49    5.90
  -6   3   6   69.89    6.70
  -6   3   6   68.29    4.70
   5  -3  -6   37.20    5.50
   5  -3  -6   29.70    4.50
   5  -3  -6   37.90    5.30
  -5   3   6   32.10    4.00
  -5   3   6   35.10    4.00
  -5   3   6   34.60    3.50
   4  -3  -6  362.36   12.10
   4  -3  -6  387.76   12.30
   4  -3  -6  393.86   13.10
  -4   3   6  360.26   11.80
  -4   3   6  358.26   10.90
  -4   3   6  354.86    9.80
   3  -3  -6   73.59    5.40
   3  -3  -6   82.49    3.70
   3  -3  -6   79.09    4.70
   3  -3  -6   77.99    5.10
  -3   3   6   81.49    4.80
  -3   3   6   77.99    2.40
  -3   3   6   83.09    3.70
  -3   3   6   77.49    4.20
   2  -3  -6  561.74   14.70
   2  -3  -6  551.34   12.50
   2  -3  -6  567.84   12.80
   2  -3  -6  576.14   14.20
   2  -3  -6  573.04   14.10
   2  -3  -6  536.25   11.00
  -2   3   6  570.64   13.00
  -2   3   6  547.45   13.30
  -2   3   6  573.54   12.40
  -2   3   6  551.94   12.20
   1  -3  -6  580.34   13.80
   1  -3  -6  567.04   13.10
   1  -3  -6  581.24   13.00
   1  -3  -6  576.64   14.30
   1  -3  -6  572.64   13.60
  -1   3   6  573.34   12.90
  -1   3   6  557.84   11.50
  -1   3   6  562.94   13.30
  -1   3   6  570.24   11.80
  -1   3   6  577.14   12.70
   0  -3  -6  127.19    4.60
   0  -3  -6  134.89    5.40
   0  -3  -6  131.59    4.90
   0  -3  -6  131.09    4.50
   0  -3  -6  125.59    5.00
   0   3   6  125.69    4.50
   0   3   6  131.09    5.10
   0   3   6  126.49    4.50
   0   3   6  121.59    3.00
   0   3   6  118.79    4.50
   0   3   6  123.09    4.70
  -1  -3  -6  978.20   21.20
  -1  -3  -6  932.91   19.00
  -1  -3  -6  993.70   20.10
  -1  -3  -6  956.00   20.90
  -1  -3  -6  969.10   19.70
  -1  -3  -6  924.81   21.10
   1   3   6  963.60   21.50
   1   3   6  958.40   21.10
   1   3   6  966.50   20.20
   1   3   6  948.11   19.70
   1   3   6  946.51   20.30
  -2  -3  -6   45.20    4.20
  -2  -3  -6   38.30    2.90
  -2  -3  -6   35.00    2.60
  -2  -3  -6   30.70    3.00
   2   3   6   37.10    4.50
   2   3   6   41.50    3.60
   2   3   6   36.00    4.60
   2   3   6   26.70    2.70
   2   3   6   40.90    2.50
  -3  -3  -6   59.59    3.00
  -3  -3  -6   57.79    5.20
  -3  -3  -6   55.59    3.60
   3   3   6   63.89    6.50
   3   3   6   58.09    4.30
   3   3   6   54.49    3.70
   3   3   6   52.39    3.00
   3   3   6   64.19    6.10
  -4  -3  -6   31.00    4.90
  -4  -3  -6   30.70    2.00
  -4  -3  -6   37.10    3.80
   4   3   6   37.70    3.50
   4   3   6   35.80    4.90
   4   3   6   35.80    3.20
   4   3   6   30.80    5.80
  -5  -3  -6   11.10    4.80
  -5  -3  -6   15.60    3.30
   5   3   6   11.30    5.20
   5   3   6    7.50    5.70
   5   3   6   11.20    2.70
  -6  -3  -6   25.20    4.50
  -6  -3  -6   11.40    5.70
   6   3   6   19.50    4.20
   6   3   6   24.50    7.90
  -7  -3  -6    1.50    3.40
  -7  -3  -6    0.10    6.20
   7   3   6    2.60    5.50
   6  -4  -6   17.00    5.50
  -6   4   6   10.80    3.00
  -6   4   6   12.40    3.70
  -6   4   6    2.40    3.50
   5  -4  -6   33.00    5.70
   5  -4  -6   32.70    4.90
   5  -4  -6   47.70    6.30
  -5   4   6   41.90    4.70
  -5   4   6   45.20    4.20
  -5   4   6   48.90    4.80
   4  -4  -6  213.18    8.90
   4  -4  -6  216.28    9.80
   4  -4  -6  201.18   10.00
  -4   4   6  209.18    8.00
  -4   4   6  208.68    8.30
  -4   4   6  212.58    7.20
   3  -4  -6  261.27    9.70
   3  -4  -6  242.48    8.80
   3  -4  -6  246.38    9.50
   3  -4  -6  252.17    7.60
  -3   4   6  252.07    8.10
  -3   4   6  244.38    7.20
  -3   4   6  247.98    8.20
   2  -4  -6  739.03   18.20
   2  -4  -6  722.13   17.70
   2  -4  -6  760.62   18.70
   2  -4  -6  711.83   15.30
   2  -4  -6  730.13   16.50
  -2   4   6  732.23   15.80
  -2   4   6  741.13   15.60
  -2   4   6  721.43   16.40
  -2   4   6  742.33   16.60
   1  -4  -6    4.70    2.60
   1  -4  -6    4.20    1.80
   1  -4  -6    1.70    1.30
   1  -4  -6    3.80    1.90
   1  -4  -6    6.70    2.90
  -1   4   6    3.20    1.20
  -1   4   6    2.60    2.10
  -1   4   6    5.00    1.90
  -1   4   6    2.60    1.20
  -1   4   6    4.20    1.00
   0  -4  -6 1346.17   28.60
   0  -4  -6 1400.26   27.70
   0  -4  -6 1375.76   27.50
   0  -4  -6 1340.27   28.60
   0  -4  -6 1303.57   27.50
   0   4   6 1311.27   26.80
   0   4   6 1370.76   27.80
   0   4   6 1363.86   27.50
   0   4   6 1353.66   25.60
   0   4   6 1322.77   27.40
   0   4   6 1357.66   27.70
  -1  -4  -6  250.47    8.40
  -1  -4  -6  244.48    7.10
  -1  -4  -6  259.27    8.20
  -1  -4  -6  231.08    6.50
   1   4   6  244.98    8.40
   1   4   6  240.18    7.80
   1   4   6  242.68    8.10
   1   4   6  241.18    7.40
   1   4   6  233.28    6.50
  -2  -4  -6  121.29    4.20
  -2  -4  -6  114.89    5.50
  -2  -4  -6  122.29    4.80
  -2  -4  -6  124.99    6.50
   2   4   6  116.89    4.00
   2   4   6  125.59    5.30
   2   4   6  124.09    6.20
   2   4   6  120.89    5.20
  -3  -4  -6   93.99    6.20
  -3  -4  -6   89.79    4.40
  -3  -4  -6   90.99    3.90
   3   4   6   94.49    4.70
   3   4   6   82.49    3.30
   3   4   6   95.69    6.40
   3   4   6   99.99    5.80
  -4  -4  -6   12.50    4.30
  -4  -4  -6    3.80    2.30
  -4  -4  -6    6.30    1.50
   4   4   6    7.60    4.50
   4   4   6    3.50    2.00
   4   4   6    4.90    2.40
  -5  -4  -6  136.49   10.10
  -5  -4  -6  120.29    6.80
   5   4   6  111.29    8.60
   5   4   6  117.09    7.10
   5   4   6  119.59    9.40
  -6  -4  -6    3.00    5.50
  -6  -4  -6    4.90    3.30
   6   4   6   -1.20    3.90
   6   4   6    5.10    6.80
  -7  -4  -6   15.10    4.30
  -7  -4  -6   -4.70    5.80
   7   4   6   16.50    8.60
   6  -5  -6    3.60    5.00
  -6   5   6    0.90    2.80
  -6   5   6    5.70    3.50
   5  -5  -6  155.38   10.40
   5  -5  -6  182.58   10.10
  -5   5   6  156.18    8.00
  -5   5   6  155.58    7.10
  -5   5   6  152.58    7.70
   4  -5  -6    7.40    4.20
   4  -5  -6    7.10    2.50
   4  -5  -6    6.50    4.20
  -4   5   6    6.10    2.10
  -4   5   6    9.60    2.20
  -4   5   6    8.30    2.50
   3  -5  -6  227.98    9.90
   3  -5  -6  219.68    8.80
   3  -5  -6  198.08    8.90
   3  -5  -6  215.98    7.30
  -3   5   6  224.88    7.60
  -3   5   6  206.48    6.80
  -3   5   6  199.88    7.10
   2  -5  -6  116.49    5.30
   2  -5  -6  104.29    3.00
   2  -5  -6  119.29    6.40
   2  -5  -6  116.29    5.90
   2  -5  -6  117.89    7.30
  -2   5   6  114.39    4.40
  -2   5   6  121.29    4.80
  -2   5   6  118.19    4.30
   1  -5  -6  104.59    5.60
   1  -5  -6   95.89    3.50
   1  -5  -6   93.29    6.30
   1  -5  -6   90.89    4.80
   1  -5  -6   92.19    4.50
  -1   5   6   92.19    3.40
  -1   5   6   96.69    4.60
  -1   5   6  101.09    4.80
  -1   5   6   97.39    3.40
   0  -5  -6  758.82   18.30
   0  -5  -6  765.42   17.30
   0  -5  -6  748.93   18.30
   0  -5  -6  754.62   16.80
   0  -5  -6  734.53   16.70
   0   5   6  726.23   16.10
   0   5   6  802.92   17.50
   0   5   6  780.22   17.40
   0   5   6  752.92   16.80
  -1  -5  -6    3.40    1.90
  -1  -5  -6    2.10    1.30
  -1  -5  -6   -7.10    2.50
  -1  -5  -6    0.20    2.80
   1   5   6   -1.60    2.00
   1   5   6    1.90    1.00
   1   5   6    1.50    2.10
   1   5   6    2.30    2.60
  -2  -5  -6  207.78    6.60
  -2  -5  -6  217.88    5.70
  -2  -5  -6  218.28    8.20
   2   5   6  212.38    7.40
   2   5   6  203.68    5.60
   2   5   6  207.68    7.20
   2   5   6  219.08    9.10
  -3  -5  -6   51.09    4.40
  -3  -5  -6   49.40    3.80
  -3  -5  -6   50.29    5.40
  -3  -5  -6   49.90    3.50
   3   5   6   53.79    5.50
   3   5   6   44.40    3.90
   3   5   6   53.19    5.00
  -4  -5  -6   65.99    4.80
  -4  -5  -6   90.99    8.00
   4   5   6   72.29    7.60
   4   5   6   72.39    4.70
   4   5   6   77.49    6.30
  -5  -5  -6   56.89    4.90
  -5  -5  -6   50.39    6.90
   5   5   6   52.29    6.80
   5   5   6   64.19    6.20
  -6  -5  -6   -1.50    2.70
  -6  -5  -6    0.70    3.80
   6   5   6    1.90    4.40
   6   5   6    2.90    6.60
  -7  -5  -6   12.30    7.00
  -7  -5  -6   10.80    3.10
   7   5   6   11.90    8.40
   6  -6  -6   82.59    8.30
  -6   6   6   79.49    6.30
  -6   6   6   99.39    7.70
   5  -6  -6   -4.80    4.30
   5  -6  -6    0.00    5.10
  -5   6   6    1.50    2.50
  -5   6   6    0.40    2.90
   4  -6  -6   22.10    3.70
   4  -6  -6   30.70    5.60
   4  -6  -6   20.10    5.40
  -4   6   6   27.10    3.00
  -4   6   6   21.60    3.60
   3  -6  -6   13.50    3.30
   3  -6  -6   21.30    4.00
   3  -6  -6   16.70    3.50
   3  -6  -6   21.70    3.10
  -3   6   6   12.60    2.30
  -3   6   6   14.10    2.80
   2  -6  -6   93.19    5.60
   2  -6  -6   90.39    4.60
   2  -6  -6   83.69    6.80
   2  -6  -6   93.09    7.20
  -2   6   6   87.19    3.60
  -2   6   6  101.39    4.20
  -2   6   6   92.29    4.60
   1  -6  -6  556.24   15.90
   1  -6  -6  533.45   15.00
   1  -6  -6  528.45   13.70
   1  -6  -6  555.24   14.00
  -1   6   6  545.55   12.00
  -1   6   6  545.25   13.50
  -1   6   6  567.34   13.80
  -1   6   6  525.45   11.20
  -1   6   6  524.95   11.20
   0  -6  -6   21.70    3.90
   0  -6  -6   20.80    2.40
   0  -6  -6   19.70    2.70
   0  -6  -6   20.90    3.50
   0   6   6   25.40    3.70
   0   6   6   24.60    2.80
   0   6   6   16.20    2.50
   0   6   6   22.40    2.50
  -1  -6  -6  229.48    6.60
  -1  -6  -6  223.18    7.50
  -1  -6  -6  236.78    8.90
  -1  -6  -6  249.48    9.20
   1   6   6  245.88    8.70
   1   6   6  226.28    7.70
   1   6   6  249.08    8.90
  -2  -6  -6   95.69    6.80
  -2  -6  -6   98.19    6.30
  -2  -6  -6   92.19    3.50
  -2  -6  -6   88.29    4.80
   2   6   6   86.29    6.10
   2   6   6   93.19    5.90
   2   6   6   94.89    5.30
  -3  -6  -6  123.69    8.40
  -3  -6  -6  119.79    5.20
  -3  -6  -6  121.29    6.60
  -3  -6  -6  116.99    5.20
   3   6   6  116.49    5.40
   3   6   6  113.19    6.10
   3   6   6  108.69    8.10
  -4  -6  -6   84.89    5.10
  -4  -6  -6  107.59    9.10
   4   6   6   85.29    7.50
   4   6   6   98.79    6.20
   4   6   6   89.59    5.30
  -5  -6  -6   12.80    5.80
  -5  -6  -6    5.70    2.70
   5   6   6    7.80    4.50
   5   6   6    9.30    5.80
  -6  -6  -6   31.10    3.90
  -6  -6  -6   30.20    6.60
   6   6   6   23.90    4.60
  -7  -6  -6    2.00    3.20
  -7  -6  -6    5.00    6.70
   7   6   6    8.50    5.80
   7   6   6   -5.80    4.90
   5  -7  -6   -1.20    3.90
   5  -7  -6   -2.80    4.80
  -5   7   6    0.40    2.50
  -5   7   6    2.40    3.20
   4  -7  -6   53.89    7.50
   4  -7  -6   40.30    6.50
  -4   7   6   53.29    4.90
  -4   7   6   46.40    4.20
   3  -7  -6   17.70    3.60
   3  -7  -6   15.00    4.60
   3  -7  -6   19.70    3.30
   3  -7  -6   17.40    5.40
  -3   7   6   11.70    2.50
  -3   7   6   23.00    2.80
  -3   7   6   19.60    2.50
   2  -7  -6  121.29    6.10
   2  -7  -6  117.19    8.10
   2  -7  -6  110.49    8.60
   2  -7  -6  125.39    6.60
  -2   7   6  114.79    5.70
  -2   7   6  114.39    4.80
   1  -7  -6  107.69    7.20
   1  -7  -6  110.99    7.00
   1  -7  -6  112.39    5.50
   1  -7  -6  125.09    6.00
  -1   7   6  129.19    6.10
  -1   7   6  129.79    4.60
  -1   7   6  124.39    6.30
   0  -7  -6   24.40    2.70
   0  -7  -6   28.90    3.20
   0  -7  -6   23.60    3.80
   0  -7  -6   22.60    3.50
   0   7   6   23.30    3.90
   0   7   6   27.60    3.00
   0   7   6   25.70    3.50
  -1  -7  -6  317.97   10.80
  -1  -7  -6  296.07   10.80
  -1  -7  -6  294.57    8.10
  -1  -7  -6  311.67    9.80
   1   7   6  303.17    9.90
   1   7   6  303.37   10.00
   1   7   6  304.97    9.60
  -2  -7  -6   -0.10    1.00
  -2  -7  -6    0.50    2.10
  -2  -7  -6   -0.10    2.30
  -2  -7  -6    0.60    2.20
   2   7   6   -0.40    2.40
   2   7   6    3.30    2.60
   2   7   6    3.00    3.20
  -3  -7  -6  204.68   11.30
  -3  -7  -6  214.78    7.50
  -3  -7  -6  204.08    6.90
  -3  -7  -6  217.58    8.70
   3   7   6  202.58    8.40
   3   7   6  202.58    9.70
   3   7   6  210.98    8.30
  -4  -7  -6    2.90    1.40
  -4  -7  -6   -0.90    1.90
  -4  -7  -6   -0.90    4.70
   4   7   6    5.40    4.90
   4   7   6   -1.30    2.90
   4   7   6    2.70    2.00
  -5  -7  -6   28.20    3.30
  -5  -7  -6   30.60    6.30
   5   7   6   26.40    5.50
   5   7   6   30.60    5.00
  -6  -7  -6   42.50    8.70
   6   7   6   40.40    6.90
   5  -8  -6    5.60    6.30
   5  -8  -6    7.60    5.80
  -5   8   6    5.00    3.50
  -5   8   6    7.00    3.10
   4  -8  -6    6.70    6.10
   4  -8  -6   14.90    5.60
  -4   8   6   11.00    3.60
  -4   8   6   18.60    2.90
   3  -8  -6   16.50    5.40
   3  -8  -6   21.00    4.00
   3  -8  -6   24.00    5.00
   3  -8  -6   25.70    4.00
  -3   8   6   21.30    3.70
  -3   8   6   24.40    2.80
  -3   8   6   21.60    3.20
   2  -8  -6   29.80    3.60
   2  -8  -6   28.40    5.90
   2  -8  -6   24.00    5.10
   2  -8  -6   27.90    3.90
  -2   8   6   29.70    2.80
  -2   8   6   33.30    4.20
  -2   8   6   29.80    3.70
   1  -8  -6    6.80    2.80
   1  -8  -6   -1.90    3.50
   1  -8  -6    3.90    2.20
   1  -8  -6    5.20    4.50
  -1   8   6   -1.20    2.80
  -1   8   6    5.80    3.00
  -1   8   6    0.50    1.10
   0  -8  -6  233.98    7.80
   0  -8  -6  218.78    9.80
   0  -8  -6  233.28    9.00
   0  -8  -6  235.68    9.90
   0   8   6  239.58    9.20
   0   8   6  229.68    8.50
  -1  -8  -6   19.70    2.30
  -1  -8  -6    9.80    4.00
  -1  -8  -6   15.60    3.20
  -1  -8  -6   16.60    3.30
   1   8   6   15.80    3.30
   1   8   6   18.00    3.60
   1   8   6   28.50    4.90
  -2  -8  -6  116.59    5.80
  -2  -8  -6  120.59    7.40
  -2  -8  -6  124.99    7.70
   2   8   6  132.99    8.10
   2   8   6  130.59    7.90
   2   8   6  121.99    6.20
  -3  -8  -6   18.30    3.10
  -3  -8  -6   23.40    4.00
   3   8   6   18.40    4.10
   3   8   6   28.60    3.60
   3   8   6   28.90    5.20
  -4  -8  -6   34.50    3.50
  -4  -8  -6   36.60    7.50
   4   8   6   39.50    6.60
   4   8   6   34.70    4.50
   4   8   6   33.20    4.70
  -5  -8  -6   38.30    8.40
   5   8   6   35.00    5.40
  -6  -8  -6   -7.30    6.20
   6   8   6    5.10    5.40
   4  -9  -6   32.90    7.00
   4  -9  -6   48.20    8.30
  -4   9   6   37.50    4.30
  -4   9   6   44.10    4.90
   3  -9  -6   51.69    7.00
   3  -9  -6   54.19    5.60
   3  -9  -6   41.50    7.10
  -3   9   6   43.50    4.50
  -3   9   6   52.79    4.50
  -3   9   6   47.10    5.20
   2  -9  -6    8.50    3.40
   2  -9  -6   11.70    5.60
   2  -9  -6    5.20    4.70
   2  -9  -6   12.80    3.30
  -2   9   6    9.30    2.40
  -2   9   6    8.60    3.20
  -2   9   6   17.10    3.80
   1  -9  -6    8.30    4.90
   1  -9  -6    1.50    2.90
   1  -9  -6   -1.60    2.00
   1  -9  -6    4.70    4.00
  -1   9   6    0.40    1.70
  -1   9   6   -0.70    3.10
  -1   9   6   -2.10    2.80
   0  -9  -6  231.08    9.20
   0  -9  -6  234.58   10.60
   0  -9  -6  231.98   10.60
   0   9   6  239.48    9.80
   0   9   6  239.08    9.70
  -1  -9  -6   14.80    5.00
  -1  -9  -6   15.10    3.70
  -1  -9  -6   20.70    4.40
   1   9   6   20.90    4.80
   1   9   6   14.60    3.70
  -2  -9  -6   64.99    5.70
  -2  -9  -6   68.99    5.60
  -2  -9  -6   60.59    7.10
   2   9   6   66.29    5.70
   2   9   6   59.29    6.40
   2   9   6   58.79    5.60
  -3  -9  -6    2.70    2.60
  -3  -9  -6   -3.40    2.80
   3   9   6   -1.40    2.90
   3   9   6    0.40    4.10
   3   9   6   -3.20    4.30
  -4  -9  -6   48.80    8.90
  -4  -9  -6   55.39    4.80
   4   9   6   47.70    5.70
   4   9   6   55.09    5.70
   4   9   6   44.20    7.10
  -5  -9  -6    1.90    6.90
   5   9   6    5.10    4.10
  -6  -9  -6   18.50    8.20
   6   9   6   17.70    6.40
   4 -10  -6    5.30    6.80
   4 -10  -6   -3.10    5.50
  -4  10   6   -1.20    2.20
  -4  10   6   -0.50    1.90
   3 -10  -6   11.60    6.50
   3 -10  -6   24.70    4.60
   3 -10  -6    3.50    5.50
  -3  10   6    9.70    2.90
  -3  10   6   11.40    4.00
   2 -10  -6    1.70    5.40
   2 -10  -6   -1.40    2.60
   2 -10  -6    2.20    4.90
   2 -10  -6   -0.70    3.20
  -2  10   6   -0.70    2.00
  -2  10   6    1.70    3.40
   1 -10  -6   64.09    5.70
   1 -10  -6   42.70    4.40
   1 -10  -6   59.49    6.90
   1 -10  -6   60.89    8.10
  -1  10   6   58.79    3.80
  -1  10   6   67.89    6.10
  -1  10   6   62.09    5.80
   0 -10  -6   19.40    4.90
   0 -10  -6   13.40    5.30
   0 -10  -6   22.40    3.80
   0  10   6   28.60    5.10
   0  10   6   15.30    4.30
  -1 -10  -6   79.59    7.50
  -1 -10  -6   83.49    6.10
  -1 -10  -6   92.79    7.40
   1  10   6   84.49    6.80
   1  10   6   81.69    6.50
  -2 -10  -6    1.30    4.80
  -2 -10  -6    3.40    3.50
  -2 -10  -6    4.60    3.30
   2  10   6   -1.80    3.20
   2  10   6   -2.90    4.70
  -3 -10  -6    9.70    3.40
   3  10   6   18.70    5.30
   3  10   6    5.20    4.00
   3  10   6   11.80    4.10
  -4 -10  -6   24.40    3.70
  -4 -10  -6   31.40    7.40
   4  10   6   29.00    5.30
   4  10   6   24.30    5.00
  -5 -10  -6    7.50    7.80
   5  10   6   16.90    5.00
   3 -11  -6   34.40    6.80
   3 -11  -6   35.40    6.20
  -3  11   6   33.80    4.20
  -3  11   6   33.60    5.30
   2 -11  -6   51.69    5.60
   2 -11  -6   51.49    8.60
   2 -11  -6   52.29    7.40
  -2  11   6   56.09    5.80
  -2  11   6   49.70    4.60
   1 -11  -6   11.90    5.20
   1 -11  -6   18.50    4.50
   1 -11  -6   10.60    6.10
  -1  11   6   15.90    4.40
  -1  11   6   24.30    4.70
  -1  11   6   12.20    2.80
   0 -11  -6    6.80    5.70
   0 -11  -6   13.70    5.00
   0 -11  -6   16.40    4.50
   0  11   6   14.70    4.60
   0  11   6    4.80    4.20
  -1 -11  -6   59.79    6.60
  -1 -11  -6   64.09    7.40
  -1 -11  -6   80.69    7.20
   1  11   6   73.69    6.60
   1  11   6   67.19    6.80
  -2 -11  -6    3.90    5.50
  -2 -11  -6    2.30    3.90
   2  11   6    2.70    3.00
   2  11   6    1.80    5.30
  -3 -11  -6   42.60    5.40
   3  11   6   34.00    5.50
   3  11   6   34.70    4.90
  -4 -11  -6  -10.60    6.40
  -4 -11  -6    2.40    3.70
   4  11   6    0.10    4.00
   4  11   6   -3.20    5.50
  -5 -11  -6   19.90    9.00
   5  11   6    6.60    6.00
   2 -12  -6   66.99    8.40
   2 -12  -6   62.19    7.00
   2 -12  -6   65.69    8.50
  -2  12   6   53.99    4.90
  -2  12   6   60.09    5.90
   1 -12  -6   -0.50    5.60
   1 -12  -6   -3.00    2.60
   1 -12  -6   -4.80    4.40
  -1  12   6   -1.70    2.80
  -1  12   6    1.50    2.50
   0 -12  -6   37.50    6.30
   0 -12  -6   41.80    6.10
   0 -12  -6   37.70    7.80
   0  12   6   37.10    6.00
   0  12   6   35.60    5.90
  -1 -12  -6   76.19    7.60
  -1 -12  -6   45.40    8.10
   1  12   6   64.29    7.50
   1  12   6   51.29    6.70
  -2 -12  -6   24.00    7.20
  -2 -12  -6   26.10    4.30
   2  12   6   30.80    5.50
   2  12   6   24.10    5.70
  -3 -12  -6    6.60    3.80
   3  12   6   11.00    4.80
   3  12   6    9.20    6.00
  -4 -12  -6    8.70    8.20
  -4 -12  -6    7.90    3.40
   4  12   6   11.00    6.30
   4  12   6    5.80    4.80
   0 -13  -6    7.20    4.90
   0 -13  -6    6.20    5.20
   0  13   6   16.20    4.60
   0  13   6    8.30    4.90
  -1 -13  -6    9.20    6.30
  -1 -13  -6    0.20    3.10
   1  13   6   -3.30    2.80
   1  13   6    2.40    5.00
  -2 -13  -6   30.10    5.70
  -2 -13  -6   27.40    6.20
   2  13   6   17.10    5.60
   2  13   6   20.40    6.50
   1  12  -7    1.50    4.50
   1  12  -7    9.90    5.30
  -1 -12   7    0.10    4.90
   0  12  -7   12.40    4.20
   0 -12   7   14.50    5.70
   3  11  -7    5.50    5.60
   3  11  -7    7.20    4.50
   3  11  -7    6.40    5.40
  -3 -11   7    5.50    4.10
   2  11  -7   35.50    5.20
   2  11  -7   29.40    6.50
  -2 -11   7   41.00    6.00
   1  11  -7   21.60    5.00
   1  11  -7   30.10    5.60
  -1 -11   7   24.60    5.50
   0  11  -7   40.70    6.20
   0  11  -7   30.60    5.80
   0 -11   7   40.40    5.60
  -1  11  -7    1.10    4.10
   1 -11   7    0.20    4.20
   1 -11   7    4.30    3.60
  -2  11  -7    0.70    3.70
   2 -11   7    7.70    5.00
   2 -11   7   -0.30    4.20
   4  10  -7   15.40    6.70
   4  10  -7   15.90    3.80
   4  10  -7   16.90    6.40
  -4 -10   7   14.50    6.30
   3  10  -7   44.10    7.90
   3  10  -7   58.19    5.90
   3  10  -7   43.50    6.90
  -3 -10   7   47.00    5.50
   2  10  -7    3.10    3.70
   2  10  -7   -5.00    4.20
   2  10  -7   -0.60    3.80
  -2 -10   7    0.10    3.80
   1  10  -7  100.49    9.30
   1  10  -7  105.99    8.30
  -1 -10   7   98.79    8.10
   0  10  -7    1.40    3.40
   0  10  -7    5.90    4.00
   0 -10   7    3.40    3.60
   0 -10   7    2.40    4.10
  -1  10  -7    9.80    5.20
  -1  10  -7    7.30    4.10
   1 -10   7   10.00    4.10
   1 -10   7    1.00    5.30
   1 -10   7   10.30    4.80
  -2  10  -7   12.60    4.10
   2 -10   7   11.60    3.20
   2 -10   7    5.70    6.00
   2 -10   7   11.10    4.90
  -3  10  -7   10.90    3.60
  -3  10  -7    8.40    3.60
   3 -10   7    9.80    5.00
   3 -10   7   11.80    3.60
   3 -10   7   15.40    7.00
   5   9  -7   -2.30    6.30
   5   9  -7    2.90    4.10
  -5  -9   7    2.30    5.40
  -5  -9   7    2.30    3.00
   4   9  -7   36.40    8.10
   4   9  -7   44.50    5.50
   4   9  -7   33.90    5.70
  -4  -9   7   30.80    7.10
  -4  -9   7   38.90    5.60
   3   9  -7   14.40    5.40
   3   9  -7    8.70    3.90
   3   9  -7    2.80    4.50
  -3  -9   7    3.50    3.20
  -3  -9   7    2.40    4.90
  -3  -9   7    9.00    3.60
   2   9  -7   65.99    8.30
   2   9  -7   58.09    6.40
   2   9  -7   71.19    6.50
  -2  -9   7   78.19    6.50
  -2  -9   7   79.29    6.10
   1   9  -7   70.29    6.30
   1   9  -7   78.79    8.00
   1   9  -7   45.30    6.30
  -1  -9   7   67.59    6.40
   0   9  -7   45.50    6.00
   0   9  -7   56.69    5.40
   0  -9   7   59.89    6.40
   0  -9   7   56.39    5.80
  -1   9  -7  104.39    6.50
  -1   9  -7  111.69    9.40
   1  -9   7  102.59    7.90
   1  -9   7  112.39    8.30
   1  -9   7  101.69    8.80
  -2   9  -7    6.90    2.80
   2  -9   7    6.80    4.20
   2  -9   7    1.10    3.90
   2  -9   7    8.70    4.10
  -3   9  -7   15.00    3.40
  -3   9  -7    9.00    3.50
   3  -9   7   21.10    4.90
   3  -9   7   15.20    5.40
  -4   9  -7    3.70    3.10
   4  -9   7    7.40    5.20
   5   8  -7    6.00    5.10
   5   8  -7    9.40    5.90
  -5  -8   7    6.90    5.40
  -5  -8   7   13.10    4.80
   4   8  -7   31.50    4.60
   4   8  -7   27.60    7.50
   4   8  -7   28.90    6.10
  -4  -8   7   24.60    4.20
  -4  -8   7   30.60    6.50
   3   8  -7   29.30    5.60
   3   8  -7   27.70    5.80
   3   8  -7   32.00    4.00
  -3  -8   7   21.80    5.40
  -3  -8   7   32.20    4.60
  -3  -8   7   32.30    4.30
   2   8  -7  218.38    9.50
   2   8  -7  191.88    8.90
   2   8  -7  192.08   12.30
  -2  -8   7  200.38    9.10
  -2  -8   7  214.38    9.00
   1   8  -7    4.80    3.30
   1   8  -7    4.20    3.40
   1   8  -7    2.80    3.00
  -1  -8   7    8.30    3.50
  -1  -8   7    1.00    2.80
   0   8  -7   85.89    6.50
   0   8  -7   82.59    6.80
   0  -8   7   88.89    7.20
   0  -8   7   83.19    5.90
   0  -8   7   84.79    6.80
  -1   8  -7   53.69    6.00
  -1   8  -7   58.79    5.50
   1  -8   7   51.79    6.40
   1  -8   7   61.39    6.30
   1  -8   7   57.99    5.80
  -2   8  -7   21.90    3.90
   2  -8   7   22.00    3.90
   2  -8   7   15.60    5.70
   2  -8   7   24.40    4.90
  -3   8  -7   24.40    4.40
   3  -8   7   25.60    4.90
   3  -8   7   27.30    5.50
   3  -8   7   38.00    7.40
  -4   8  -7    3.90    2.90
   4  -8   7   -5.80    5.90
   6   7  -7   -8.20    5.80
   6   7  -7    8.80    6.20
  -6  -7   7   10.70    5.30
  -6  -7   7    5.80    5.60
   5   7  -7   38.40    7.90
   5   7  -7   39.90    7.10
  -5  -7   7   39.50    7.00
  -5  -7   7   58.69    6.50
   4   7  -7    1.60    4.40
   4   7  -7    2.50    4.20
   4   7  -7    6.50    2.90
  -4  -7   7   -1.40    4.10
  -4  -7   7    3.80    2.50
   3   7  -7   49.70    4.80
   3   7  -7   55.49    6.60
   3   7  -7   62.79    6.20
  -3  -7   7   58.59    5.70
  -3  -7   7   63.79    7.10
  -3  -7   7   62.39    5.00
   2   7  -7   10.30    5.70
   2   7  -7   19.00    4.00
   2   7  -7    8.40    3.20
  -2  -7   7   13.00    3.30
  -2  -7   7   15.00    3.20
   1   7  -7  122.39    6.60
   1   7  -7  119.69    9.60
   1   7  -7  116.39    6.20
  -1  -7   7  117.49    6.20
  -1  -7   7  112.89    6.30
   0   7  -7  141.89    8.80
   0   7  -7  131.09    5.70
   0   7  -7  125.29    6.70
   0  -7   7  116.59    6.90
   0  -7   7  129.39    7.50
   0  -7   7  139.89    7.90
  -1   7  -7   47.90    5.90
  -1   7  -7   50.19    4.50
   1  -7   7   42.40    4.90
   1  -7   7   51.69    5.60
   1  -7   7   60.29    6.30
  -2   7  -7  175.18    7.70
  -2   7  -7  186.38    8.00
  -2   7  -7  187.08    9.40
   2  -7   7  205.08    9.30
   2  -7   7  193.98   11.00
   2  -7   7  213.48   10.20
  -3   7  -7    4.40    2.30
  -3   7  -7    0.70    2.50
   3  -7   7    3.10    3.30
   3  -7   7   -1.30    5.10
   3  -7   7    3.30    4.10
  -4   7  -7   17.40    3.30
  -4   7  -7   21.10    3.20
   4  -7   7   19.40    4.30
   4  -7   7   19.20    7.10
  -5   7  -7   12.20    3.70
  -5   7  -7   13.30    3.40
   5  -7   7   10.60    7.40
   6   6  -7    5.10    5.30
   6   6  -7   -1.00    5.50
  -6  -6   7   -1.50    4.20
  -6  -6   7    6.00    4.60
   5   6  -7   36.10    7.00
   5   6  -7   36.70    5.40
  -5  -6   7   30.60    5.70
  -5  -6   7   29.30    5.40
   4   6  -7    3.20    5.10
   4   6  -7   10.20    3.20
  -4  -6   7    2.80    4.00
  -4  -6   7    5.90    2.80
   3   6  -7    8.30    2.40
   3   6  -7    9.10    2.70
   3   6  -7    4.40    5.00
  -3  -6   7   12.20    3.40
  -3  -6   7    8.40    3.90
  -3  -6   7    7.50    2.40
   2   6  -7    8.90    5.20
   2   6  -7    3.20    2.60
  -2  -6   7    6.40    2.80
  -2  -6   7    5.50    2.60
   1   6  -7  452.55   15.80
   1   6  -7  458.25   12.50
   1   6  -7  459.45   12.50
  -1  -6   7  445.96   12.20
  -1  -6   7  479.65   14.20
  -1  -6   7  466.25   13.20
   0   6  -7   30.00    5.10
   0   6  -7   30.90    3.80
   0   6  -7   32.40    3.20
   0  -6   7   28.80    4.40
   0  -6   7   28.60    4.00
   0  -6   7   24.40    3.80
  -1   6  -7   59.99    5.90
  -1   6  -7   52.59    4.00
  -1   6  -7   53.99    3.40
   1  -6   7   56.59    5.00
   1  -6   7   60.49    5.90
   1  -6   7   62.09    5.50
  -2   6  -7   35.80    3.40
  -2   6  -7   40.40    5.10
  -2   6  -7   42.10    4.20
   2  -6   7   47.30    6.00
   2  -6   7   42.80    5.50
   2  -6   7   41.80    4.20
  -3   6  -7   54.19    4.40
  -3   6  -7   47.80    3.90
  -3   6  -7   54.09    4.00
   3  -6   7   57.39    5.30
   3  -6   7   64.09    7.40
   3  -6   7   62.19    6.70
   3  -6   7   67.49    7.40
  -4   6  -7   31.50    3.70
  -4   6  -7   32.90    4.30
   4  -6   7   26.20    5.90
   4  -6   7   43.20    6.60
  -5   6  -7    2.30    3.00
  -5   6  -7   -2.20    2.20
   5  -6   7   -2.90    4.10
   5  -6   7    1.90    5.00
   6   5  -7   20.50    5.70
   6   5  -7   15.10    5.70
  -6  -5   7   11.90    3.90
  -6  -5   7   13.10    5.50
   5   5  -7   -0.20    4.60
  -5  -5   7    2.90    4.30
  -5  -5   7    3.60    2.90
   4   5  -7  128.79    9.20
  -4  -5   7  122.29    8.50
  -4  -5   7  137.09    8.30
   3   5  -7    3.60    4.00
   3   5  -7   -1.10    2.00
   3   5  -7   -2.30    1.90
  -3  -5   7   -2.10    2.40
  -3  -5   7   -4.30    2.00
  -3  -5   7   -5.70    2.60
   2   5  -7   72.49    6.90
   2   5  -7   68.99    4.80
   2   5  -7   78.39    4.30
  -2  -5   7   77.09    4.70
  -2  -5   7   79.19    5.40
   1   5  -7  188.08    7.00
   1   5  -7  184.78   10.00
  -1  -5   7  188.98    7.40
  -1  -5   7  187.98    8.20
   0   5  -7  410.56   10.30
   0   5  -7  415.86   11.20
   0   5  -7  416.56   14.00
   0  -5   7  422.76   11.90
   0  -5   7  415.66   11.80
   0  -5   7  418.16   12.60
  -1   5  -7  123.79    3.40
  -1   5  -7  136.69    7.60
  -1   5  -7  150.38    6.20
  -1   5  -7  136.99    5.00
  -1   5  -7  128.79    3.80
   1  -5   7  140.09    6.40
   1  -5   7  133.09    6.70
   1  -5   7  143.49    7.10
  -2   5  -7   39.30    3.50
  -2   5  -7   36.60    3.60
  -2   5  -7   41.30    4.70
   2  -5   7   36.40    3.90
   2  -5   7   41.60    5.50
   2  -5   7   44.40    5.00
   2  -5   7   41.50    4.30
  -3   5  -7  240.18    7.70
  -3   5  -7  231.28    8.70
  -3   5  -7  238.68    7.70
   3  -5   7  253.07   11.90
   3  -5   7  216.48    8.70
   3  -5   7  242.38   10.20
   3  -5   7  233.38    8.90
  -4   5  -7    2.40    2.10
  -4   5  -7    2.80    2.00
   4  -5   7   -2.80    3.20
   4  -5   7    4.90    5.00
   4  -5   7    2.50    2.60
  -5   5  -7   20.60    4.20
  -5   5  -7   16.70    3.10
   5  -5   7   10.30    6.00
   5  -5   7   21.90    6.90
  -6   5  -7   33.30    5.20
  -6   5  -7   35.30    3.80
   6  -5   7   31.00    8.40
   7   4  -7   78.09    9.00
   7   4  -7   76.79    8.10
  -7  -4   7   58.49    8.20
  -7  -4   7   54.09    7.60
   6   4  -7   11.30    5.30
  -6  -4   7   20.60    4.60
  -6  -4   7   27.00    6.20
   5   4  -7    3.30    4.20
  -5  -4   7    5.60    4.00
  -5  -4   7    3.00    3.80
   4   4  -7  126.69    8.50
   4   4  -7  115.99    5.60
  -4  -4   7  126.89    8.10
  -4  -4   7  123.49    7.80
   3   4  -7    1.10    3.50
   3   4  -7    3.00    2.20
   3   4  -7    2.10    1.90
  -3  -4   7    3.20    1.70
  -3  -4   7    5.00    3.00
  -3  -4   7    4.10    2.00
   2   4  -7  259.87    8.20
   2   4  -7  247.48   10.40
   2   4  -7  261.37    7.80
  -2  -4   7  282.17    8.30
   1   4  -7   27.70    4.00
   1   4  -7   29.00    3.40
   1   4  -7   32.90    3.20
  -1  -4   7   32.90    3.60
  -1  -4   7   29.20    3.20
  -1  -4   7   27.00    2.40
   0   4  -7  859.61   19.00
   0   4  -7  852.21   21.20
   0  -4   7  853.21   20.60
   0  -4   7  845.72   19.20
   0  -4   7  862.81   19.50
  -1   4  -7   63.09    3.80
  -1   4  -7   63.09    1.40
  -1   4  -7   65.19    6.00
  -1   4  -7   58.89    2.40
   1  -4   7   68.49    5.30
   1  -4   7   59.49    4.50
   1  -4   7   65.49    4.80
   1  -4   7   77.69    6.30
  -2   4  -7    3.10    2.80
  -2   4  -7    3.80    2.00
  -2   4  -7    1.00    1.50
   2  -4   7    2.80    4.00
   2  -4   7   -1.10    2.50
   2  -4   7    3.80    3.20
   2  -4   7    3.50    2.30
  -3   4  -7   69.09    4.20
  -3   4  -7   77.59    4.60
  -3   4  -7   75.99    4.00
   3  -4   7   71.09    4.90
   3  -4   7   76.39    5.00
   3  -4   7   78.09    7.30
   3  -4   7   73.39    6.30
  -4   4  -7   51.79    4.70
  -4   4  -7   54.99    3.90
   4  -4   7   60.69    6.50
   4  -4   7   45.40    5.00
   4  -4   7   56.39    6.30
   4  -4   7   55.69    4.80
  -5   4  -7   39.20    3.50
  -5   4  -7   41.30    5.10
   5  -4   7   48.90    7.80
   5  -4   7   36.60    6.20
  -6   4  -7   16.10    4.60
  -6   4  -7   18.20    3.20
   6  -4   7   19.40    5.80
   6  -4   7   37.40    6.80
   7   3  -7   27.40    6.10
  -7  -3   7   22.40    5.10
  -7  -3   7    7.60    5.80
   6   3  -7   14.60    5.20
  -6  -3   7   11.70    5.10
  -6  -3   7   15.10    4.20
   5   3  -7    7.40    2.60
   5   3  -7   17.10    4.60
  -5  -3   7    9.80    4.40
  -5  -3   7    9.60    3.30
   4   3  -7   29.60    3.40
   4   3  -7   34.50    4.50
  -4  -3   7   27.10    4.40
  -4  -3   7   37.40    4.90
   3   3  -7  293.07    8.20
   3   3  -7  288.37    8.90
   3   3  -7  283.07   10.90
  -3  -3   7  298.27   10.60
  -3  -3   7  290.97   10.10
   2   3  -7    8.80    1.40
   2   3  -7   10.80    3.30
   2   3  -7   14.70    2.60
   2   3  -7   15.60    2.30
  -2  -3   7   18.10    2.90
  -2  -3   7   13.80    2.30
   1   3  -7  133.59    5.10
   1   3  -7  122.59    6.90
   1   3  -7  121.39    5.60
  -1  -3   7  124.89    6.30
  -1  -3   7  116.89    5.10
  -1  -3   7  119.69    3.60
   0   3  -7  208.68    6.70
   0   3  -7  231.78    7.30
   0   3  -7  215.88    9.20
   0  -3   7  219.58    8.50
   0  -3   7  210.08    6.60
  -1   3  -7  213.28    8.50
  -1   3  -7  213.48    6.80
   1  -3   7  203.08    7.40
   1  -3   7  208.18    7.50
   1  -3   7  214.98    8.80
  -2   3  -7   86.39    4.40
  -2   3  -7   92.89    4.50
  -2   3  -7   89.59    5.60
   2  -3   7   84.29    5.10
   2  -3   7   96.09    7.60
   2  -3   7   90.09    5.90
  -3   3  -7    8.80    2.50
  -3   3  -7    7.10    2.00
  -3   3  -7    6.40    1.60
   3  -3   7    6.20    2.50
   3  -3   7    8.40    4.90
   3  -3   7    5.70    2.60
  -4   3  -7  104.29    6.50
  -4   3  -7  117.59    5.00
  -4   3  -7  116.49    4.00
   4  -3   7  133.59    9.90
   4  -3   7  122.99    6.80
   4  -3   7  122.99    6.40
  -5   3  -7    5.80    3.20
  -5   3  -7    7.20    2.20
   5  -3   7    7.50    4.50
   5  -3   7    6.70    3.30
  -6   3  -7    6.20    3.00
  -6   3  -7    6.80    2.40
   6  -3   7   10.70    5.50
   6  -3   7   10.70    6.10
   7   2  -7   10.20    4.80
  -7  -2   7   -1.20    4.90
  -7  -2   7   -2.90    4.40
   6   2  -7  105.29    9.80
  -6  -2   7   77.89    8.10
  -6  -2   7  120.99    9.80
   5   2  -7   79.59    7.70
   5   2  -7   57.79    4.90
  -5  -2   7   64.99    4.30
  -5  -2   7   82.59    7.60
  -5  -2   7   78.19    7.10
   4   2  -7    1.20    1.60
   4   2  -7    1.80    3.30
  -4  -2   7    7.10    3.20
  -4  -2   7   -0.30    2.80
  -4  -2   7    3.70    1.90
   3   2  -7  248.38    7.00
   3   2  -7  258.67    8.30
   3   2  -7  247.78    7.10
   3   2  -7  252.27   10.00
  -3  -2   7  250.37    9.00
  -3  -2   7  253.87    9.20
  -3  -2   7  255.77    6.50
  -3  -2   7  255.47    7.30
   2   2  -7  144.09    5.10
   2   2  -7  161.58    5.80
   2   2  -7  140.59    6.90
   2   2  -7  150.48    4.80
  -2  -2   7  152.08    5.10
  -2  -2   7  145.89    5.80
  -2  -2   7  154.78    4.70
   1   2  -7  506.55   11.70
   1   2  -7  494.85   11.20
   1   2  -7  518.95   12.10
   1   2  -7  506.85   13.30
  -1  -2   7  476.45    9.40
  -1  -2   7  488.15   11.00
  -1  -2   7  491.15   13.00
   0   2  -7  107.09    4.40
   0   2  -7  113.19    5.60
   0   2  -7  108.49    4.80
   0  -2   7  110.89    5.50
   0  -2   7  105.09    4.90
   0  -2   7  117.49    4.70
  -1   2  -7  801.32   18.60
  -1   2  -7  775.02   16.90
   1  -2   7  765.52   17.50
   1  -2   7  775.42   18.30
   1  -2   7  742.33   18.60
  -2   2  -7   39.80    3.10
  -2   2  -7   38.60    3.60
   2  -2   7   38.80    4.00
   2  -2   7   35.50    3.40
   2  -2   7   38.90    4.60
  -3   2  -7   12.80    1.70
  -3   2  -7   12.60    2.00
  -3   2  -7    9.30    2.50
   3  -2   7   12.60    2.60
   3  -2   7    9.20    3.90
   3  -2   7    7.50    3.60
  -4   2  -7  121.89    6.60
  -4   2  -7  114.09    3.80
  -4   2  -7  117.69    4.70
   4  -2   7  116.59    9.60
   4  -2   7  110.39    8.10
   4  -2   7  111.49    5.20
  -5   2  -7   23.80    3.70
  -5   2  -7   30.30    3.00
   5  -2   7   36.90    6.20
   5  -2   7   35.90    5.80
  -6   2  -7   84.89    5.00
  -6   2  -7   72.59    6.80
   6  -2   7   79.59   10.20
  -7   2  -7   11.60    4.60
   7  -2   7    5.30    7.20
   7   1  -7   26.30    5.60
  -7  -1   7    9.60    4.10
   6   1  -7   68.29    7.90
   6   1  -7   55.09    5.00
  -6  -1   7   50.49    6.70
  -6  -1   7   67.89    4.90
  -6  -1   7   55.39    6.40
   5   1  -7    0.50    2.60
   5   1  -7   -1.80    2.30
  -5  -1   7    1.40    2.40
  -5  -1   7   -1.00    1.40
  -5  -1   7   -0.20    3.30
   4   1  -7  169.48    6.60
   4   1  -7  174.28    7.30
   4   1  -7  167.28    8.30
  -4  -1   7  165.48    8.00
  -4  -1   7  179.28    8.20
  -4  -1   7  182.18    6.40
   3   1  -7    2.20    2.10
   3   1  -7    4.20    1.40
   3   1  -7    2.10    1.90
   3   1  -7    2.80    2.80
  -3  -1   7    4.60    2.40
  -3  -1   7    5.00    1.60
  -3  -1   7    5.10    2.60
  -3  -1   7    2.30    1.00
   2   1  -7  495.35   12.70
   2   1  -7  508.55   11.90
   2   1  -7  523.25   11.70
   2   1  -7  522.35   14.00
  -2  -1   7  497.75   11.50
  -2  -1   7  497.85   11.30
  -2  -1   7  509.95   12.00
   1   1  -7  258.97    7.10
   1   1  -7  256.07    8.40
   1   1  -7  263.57    7.00
   1   1  -7  265.57    7.70
  -1  -1   7  253.57    7.40
  -1  -1   7  260.97    7.90
  -1  -1   7  256.17    6.00
  -1  -1   7  245.98    5.90
   0   1  -7   73.19    4.50
   0   1  -7   79.39    3.80
   0   1  -7   73.89    3.50
   0   1  -7   72.19    3.40
   0  -1   7   74.09    5.00
   0  -1   7   73.59    1.80
   0  -1   7   70.29    3.80
   0  -1   7   77.29    4.70
  -1   1  -7  998.30   20.60
  -1   1  -7 1002.20   21.40
  -1   1  -7 1017.50   22.00
   1  -1   7 1010.20   21.40
   1  -1   7  955.80   21.90
   1  -1   7  978.70   22.70
  -2   1  -7   37.20    2.90
  -2   1  -7   35.90    3.30
  -2   1  -7   36.60    1.80
   2  -1   7   38.10    2.90
   2  -1   7   33.80    5.30
   2  -1   7   39.00    4.50
  -3   1  -7  244.78    8.20
  -3   1  -7  240.18    6.60
  -3   1  -7  246.88    6.30
   3  -1   7  228.18    5.50
   3  -1   7  242.08   11.10
   3  -1   7  243.88    9.40
   3  -1   7  259.27    8.00
  -4   1  -7   43.80    2.90
  -4   1  -7   40.80    4.30
   4  -1   7   41.80    3.60
   4  -1   7   49.80    7.10
   4  -1   7   41.30    5.90
  -5   1  -7  121.29    6.70
   5  -1   7  107.29    9.00
   5  -1   7  121.09    9.50
  -6   1  -7   31.90    3.00
  -6   1  -7   29.80    4.80
   6  -1   7   34.90    8.50
   6  -1   7   23.40    5.30
  -7   1  -7    4.80    4.00
   7  -1   7   -7.30    7.40
   7   0  -7   48.20    6.40
  -7   0   7   29.80    6.00
  -7   0   7   36.90    4.90
   6   0  -7   10.50    3.50
   6   0  -7   21.10    5.80
  -6   0   7   15.80    3.40
  -6   0   7   15.90    3.90
   5   0  -7  150.18    7.40
   5   0  -7  136.29    7.30
   5   0  -7  147.79    8.80
  -5   0   7  130.69    6.60
  -5   0   7  137.89    8.50
   4   0  -7   52.39    4.40
   4   0  -7   49.70    4.50
   4   0  -7   61.09    6.10
  -4   0   7   55.39    5.10
  -4   0   7   57.69    5.30
  -4   0   7   54.59    4.10
   3   0  -7   -1.00    2.00
   3   0  -7    0.90    1.20
   3   0  -7    1.90    2.10
   3   0  -7    1.30    1.80
   3   0  -7    0.00    1.20
  -3   0   7   -3.70    2.10
  -3   0   7    0.80    0.70
  -3   0   7    0.80    2.00
  -3   0   7    2.00    1.40
   2   0  -7  134.49    3.30
   2   0  -7  139.89    6.60
   2   0  -7  147.49    5.60
   2   0  -7  143.89    5.50
   2   0  -7  139.69    4.60
  -2   0   7  142.49    4.60
  -2   0   7  143.29    4.90
  -2   0   7  138.89    4.70
   1   0  -7   35.30    3.00
   1   0  -7   40.60    3.40
   1   0  -7   31.10    2.20
   1   0  -7   34.20    3.30
  -1   0   7   31.40    1.70
  -1   0   7   33.10    2.70
  -1   0   7   35.60    3.10
   0   0  -7  840.22   18.40
   0   0  -7  853.71   18.90
   0   0  -7  885.81   18.00
   0   0  -7  855.41   18.50
   0   0   7  879.01   19.30
   0   0   7  853.51   16.50
   0   0   7  840.72   18.30
   0   0   7  859.31   19.20
  -1   0  -7  141.59    5.50
  -1   0  -7  149.29    4.90
  -1   0  -7  142.59    5.70
  -1   0  -7  148.89    5.70
   1   0   7  145.69    6.90
   1   0   7  147.09    4.40
   1   0   7  142.79    5.40
   1   0   7  148.29    6.60
  -2   0  -7   94.49    3.90
  -2   0  -7   94.59    4.40
  -2   0  -7   96.89    2.70
  -2   0  -7   95.89    3.90
   2   0   7   90.99    6.60
   2   0   7   91.59    6.10
   2   0   7  103.19    4.60
   2   0   7   91.69    3.50
  -3   0  -7   61.29    4.80
  -3   0  -7   61.49    3.20
  -3   0  -7   72.69    4.70
  -3   0  -7   59.89    2.40
   3   0   7   65.39    6.80
   3   0   7   57.29    2.90
   3   0   7   64.29    5.60
   3   0   7   64.39    4.00
  -4   0  -7  107.39    6.10
  -4   0  -7   88.69    3.70
  -4   0  -7  103.59    6.80
   4   0   7  105.09    8.60
   4   0   7  114.29    5.20
   4   0   7   99.39    4.90
   4   0   7   93.29    8.60
  -5   0  -7   85.29    7.30
  -5   0  -7   83.19    5.70
  -5   0  -7   66.69    3.50
   5   0   7   77.79    7.10
   5   0   7   76.29    9.30
  -6   0  -7   15.70    2.20
  -6   0  -7   11.50    3.30
   6   0   7   13.10    6.20
   6   0   7   12.30    5.70
  -7   0  -7   37.90    6.00
   7   0   7   35.40    9.50
  -7   1   7   52.59    5.70
  -7   1   7   50.29    6.20
   6  -1  -7   25.50    5.10
   6  -1  -7   19.20    4.40
  -6   1   7   24.40    5.20
  -6   1   7   19.00    3.80
   5  -1  -7  121.09    9.10
   5  -1  -7  128.69    7.50
   5  -1  -7  113.09    6.90
  -5   1   7  121.09    5.60
  -5   1   7  121.89    7.30
  -5   1   7  108.89    6.20
   4  -1  -7    8.00    2.60
   4  -1  -7    9.50    3.10
   4  -1  -7    9.40    2.40
  -4   1   7   11.50    2.40
  -4   1   7    9.20    1.90
  -4   1   7   11.10    3.20
   3  -1  -7  128.29    4.60
   3  -1  -7  136.39    6.40
   3  -1  -7  140.19    6.30
   3  -1  -7  140.79    5.10
  -3   1   7  134.19    3.30
  -3   1   7  150.18    6.80
  -3   1   7  134.79    4.70
  -3   1   7  138.79    5.10
   2  -1  -7  105.19    5.30
   2  -1  -7  113.79    5.40
   2  -1  -7  106.19    4.10
   2  -1  -7  111.29    3.90
  -2   1   7  110.49    3.60
  -2   1   7  112.69    4.10
  -2   1   7  106.29    3.90
  -2   1   7  107.19    4.90
   1  -1  -7  558.94   13.30
   1  -1  -7  550.74   11.80
   1  -1  -7  547.45   12.30
   1  -1  -7  546.35   13.70
   1  -1  -7  557.24   13.30
   1  -1  -7  524.25   13.20
  -1   1   7  544.45   12.70
  -1   1   7  554.14   11.80
  -1   1   7  546.85   13.10
  -1   1   7  551.34   12.50
   0  -1  -7  536.65   11.90
   0  -1  -7  526.45   12.60
   0  -1  -7  495.45   12.20
   0  -1  -7  497.75   13.20
   0  -1  -7  504.25   12.00
   0   1   7  520.95   12.80
   0   1   7  523.35   12.10
   0   1   7  512.85   12.60
  -1  -1  -7   20.70    2.60
  -1  -1  -7   23.20    2.60
  -1  -1  -7   26.10    2.00
  -1  -1  -7   23.60    2.20
  -1  -1  -7   25.40    2.30
   1   1   7   27.50    3.90
   1   1   7   24.40    2.60
   1   1   7   21.40    2.20
   1   1   7   26.40    3.60
  -2  -1  -7  835.82   17.70
  -2  -1  -7  837.62   17.10
  -2  -1  -7  854.61   18.90
   2   1   7  867.41   20.70
   2   1   7  803.82   17.50
   2   1   7  862.11   20.70
   2   1   7  830.32   18.30
  -3  -1  -7   40.20    2.70
  -3  -1  -7   39.10    1.80
  -3  -1  -7   39.30    3.90
  -3  -1  -7   32.40    4.20
   3   1   7   51.79    6.40
   3   1   7   40.10    3.10
   3   1   7   31.30    5.20
   3   1   7   38.00    3.30
  -4  -1  -7  419.96   14.10
  -4  -1  -7  461.25   13.10
  -4  -1  -7  416.36    9.80
   4   1   7  433.06   14.50
   4   1   7  425.66   11.30
   4   1   7  427.16   15.70
  -5  -1  -7    4.50    4.10
  -5  -1  -7    7.10    3.20
  -5  -1  -7    6.40    1.50
   5   1   7   -1.30    4.60
   5   1   7   13.60    4.80
  -6  -1  -7   57.49    6.20
  -6  -1  -7   48.20    7.40
   6   1   7   52.29    9.20
   6   1   7   45.10    7.60
  -7  -1  -7   26.80    5.40
   7   1   7   23.20    7.10
  -7   2   7    3.10    4.20
  -7   2   7   -0.60    3.40
   6  -2  -7   73.79    7.10
  -6   2   7   83.99    5.00
  -6   2   7   84.69    6.30
  -6   2   7   76.59    7.10
   5  -2  -7   16.90    4.00
   5  -2  -7   14.70    3.60
  -5   2   7   20.50    4.30
  -5   2   7   15.60    2.30
  -5   2   7   18.50    3.30
   4  -2  -7   10.20    3.20
   4  -2  -7    8.60    2.90
   4  -2  -7    5.40    2.70
  -4   2   7    6.70    2.00
  -4   2   7    8.60    2.40
  -4   2   7    4.60    2.10
   3  -2  -7   41.30    4.00
   3  -2  -7   39.40    3.60
   3  -2  -7   39.80    4.30
   3  -2  -7   35.40    2.70
  -3   2   7   38.90    2.40
  -3   2   7   41.10    3.30
  -3   2   7   39.10    4.00
   2  -2  -7    3.00    2.50
   2  -2  -7    2.30    1.40
   2  -2  -7    4.30    1.90
   2  -2  -7    2.10    1.40
   2  -2  -7    2.70    1.90
  -2   2   7    1.90    1.00
  -2   2   7    1.70    1.70
  -2   2   7    2.20    1.40
  -2   2   7    4.80    1.40
   1  -2  -7  217.58    6.40
   1  -2  -7  219.08    6.80
   1  -2  -7  210.68    7.10
   1  -2  -7  224.78    6.90
   1  -2  -7  207.48    6.20
  -1   2   7  215.38    5.70
  -1   2   7  223.68    5.20
  -1   2   7  207.98    6.20
  -1   2   7  217.58    6.30
  -1   2   7  226.48    6.90
   0  -2  -7    3.10    2.40
   0  -2  -7    3.60    1.40
   0  -2  -7    4.80    1.30
   0  -2  -7    3.60    1.70
   0  -2  -7    3.30    1.80
   0  -2  -7    3.20    1.70
   0   2   7    5.40    2.20
   0   2   7    1.90    1.60
   0   2   7    0.80    1.50
   0   2   7    2.90    1.30
  -1  -2  -7  750.92   16.50
  -1  -2  -7  767.82   16.00
  -1  -2  -7  773.22   16.50
  -1  -2  -7  771.82   17.50
  -1  -2  -7  784.72   16.70
   1   2   7  776.32   17.00
   1   2   7  766.42   16.50
   1   2   7  751.92   16.80
   1   2   7  781.02   18.10
   1   2   7  779.72   18.00
  -2  -2  -7   90.09    3.90
  -2  -2  -7   90.79    4.60
  -2  -2  -7   87.49    2.60
  -2  -2  -7   91.09    4.80
  -2  -2  -7   82.79    4.70
   2   2   7   87.19    4.40
   2   2   7   92.69    4.60
   2   2   7   87.79    5.80
   2   2   7   83.89    6.60
  -3  -2  -7  199.18    5.80
  -3  -2  -7  192.38    7.80
   3   2   7  198.78    6.30
   3   2   7  198.78    6.70
   3   2   7  208.28    9.00
   3   2   7  191.48   10.00
  -4  -2  -7   13.70    1.50
  -4  -2  -7   10.20    4.00
  -4  -2  -7    9.30    2.40
   4   2   7   12.30    2.40
   4   2   7   10.30    3.60
   4   2   7    9.40    2.70
   4   2   7   14.60    5.40
  -5  -2  -7   87.19    5.80
  -5  -2  -7   82.79    8.00
   5   2   7   85.09    9.30
   5   2   7   79.19    7.40
   5   2   7   81.99    5.10
  -6  -2  -7   23.70    5.40
  -6  -2  -7   34.70    4.50
   6   2   7   29.90    8.20
  -7  -2  -7   -3.30    5.50
  -7  -2  -7    1.70    2.70
   7   2   7   10.00    8.60
   6  -3  -7   64.89    7.00
  -6   3   7   53.39    5.10
  -6   3   7   57.99    6.20
  -6   3   7   68.29    4.70
   5  -3  -7    5.40    3.10
   5  -3  -7    1.00    3.80
  -5   3   7   -2.70    2.70
  -5   3   7    2.60    2.00
  -5   3   7    3.90    2.50
   4  -3  -7  319.77   10.90
   4  -3  -7  310.87   11.00
   4  -3  -7  322.07   11.40
  -4   3   7  326.67    9.20
  -4   3   7  302.17   10.60
  -4   3   7  308.27   10.00
   3  -3  -7   63.69    5.40
   3  -3  -7   60.39    4.90
   3  -3  -7   55.19    3.40
   3  -3  -7   61.89    5.00
  -3   3   7   59.49    2.60
  -3   3   7   58.29    3.50
  -3   3   7   62.09    3.30
  -3   3   7   56.39    4.30
   2  -3  -7  410.96   11.20
   2  -3  -7  420.96   10.50
   2  -3  -7  403.56   11.60
   2  -3  -7  421.66   12.00
   2  -3  -7  419.26   10.50
  -2   3   7  413.16    9.60
  -2   3   7  431.96   10.60
  -2   3   7  426.46   11.20
  -2   3   7  427.76   10.10
   1  -3  -7  584.94   14.70
   1  -3  -7  566.04   13.80
   1  -3  -7  591.74   14.20
   1  -3  -7  574.64   13.80
   1  -3  -7  553.04   13.20
  -1   3   7  583.24   13.30
  -1   3   7  586.44   13.30
  -1   3   7  572.74   11.90
   0  -3  -7  169.98    6.40
   0  -3  -7  168.28    5.60
   0  -3  -7  164.28    5.40
   0  -3  -7  168.08    6.30
   0  -3  -7  162.38    6.00
   0   3   7  155.98    5.60
   0   3   7  156.98    3.70
   0   3   7  165.08    5.80
   0   3   7  166.08    5.70
   0   3   7  168.98    5.80
  -1  -3  -7 1412.06   28.10
  -1  -3  -7 1405.66   29.10
  -1  -3  -7 1354.46   27.10
  -1  -3  -7 1404.76   27.90
   1   3   7 1371.66   29.40
   1   3   7 1411.16   29.80
   1   3   7 1343.97   28.00
   1   3   7 1379.46   28.30
   1   3   7 1384.06   28.40
  -2  -3  -7  167.78    5.60
  -2  -3  -7  169.48    6.60
  -2  -3  -7  170.88    7.00
  -2  -3  -7  168.28    5.80
   2   3   7  155.98    3.40
   2   3   7  165.08    6.10
   2   3   7  159.58    5.90
   2   3   7  170.98    8.30
   2   3   7  163.48    5.40
   2   3   7  162.58    8.10
  -3  -3  -7  251.37    9.80
  -3  -3  -7  243.78    6.80
   3   3   7  246.08   10.40
   3   3   7  245.38    8.10
   3   3   7  245.68   10.70
   3   3   7  242.38    7.80
  -4  -3  -7   23.40    4.80
  -4  -3  -7   29.70    3.80
   4   3   7   29.20    3.20
   4   3   7   29.10    3.80
   4   3   7   24.90    4.90
   4   3   7   19.00    5.10
  -5  -3  -7  188.88   11.00
  -5  -3  -7  169.28    8.40
   5   3   7  173.08    7.50
   5   3   7  193.38   13.00
   5   3   7  174.48   11.30
  -6  -3  -7    4.10    5.30
  -6  -3  -7    7.00    2.80
   6   3   7   10.30    5.50
  -7  -3  -7   11.20    3.60
  -7  -3  -7    4.60    6.40
   7   3   7   10.80    8.50
   6  -4  -7   11.10    5.00
  -6   4   7    3.00    3.60
  -6   4   7    6.70    2.90
  -6   4   7   12.00    3.80
   5  -4  -7   68.79    7.20
  -5   4   7   64.39    4.80
  -5   4   7   61.19    5.60
  -5   4   7   60.19    5.30
   4  -4  -7  164.08    8.60
   4  -4  -7  167.68    7.90
   4  -4  -7  161.58    8.30
  -4   4   7  166.78    7.10
  -4   4   7  157.98    6.20
  -4   4   7  161.28    7.60
   3  -4  -7    9.10    3.40
   3  -4  -7    9.40    2.10
   3  -4  -7   10.70    3.00
   3  -4  -7    3.60    3.20
  -3   4   7    5.80    1.70
  -3   4   7   13.30    2.50
  -3   4   7    9.30    1.60
  -3   4   7    9.10    1.80
   2  -4  -7   38.80    3.60
   2  -4  -7   37.80    3.10
   2  -4  -7   34.90    2.80
   2  -4  -7   43.70    4.70
   2  -4  -7   41.60    4.50
  -2   4   7   38.80    3.00
  -2   4   7   38.90    3.20
  -2   4   7   40.90    3.20
  -2   4   7   38.50    2.40
   1  -4  -7   71.29    3.90
   1  -4  -7   71.99    3.70
   1  -4  -7   70.39    4.30
   1  -4  -7   65.39    5.10
   1  -4  -7   61.79    4.60
  -1   4   7   73.49    4.10
  -1   4   7   67.29    2.20
  -1   4   7   66.19    3.50
  -1   4   7   73.99    2.70
  -1   4   7   74.49    4.60
   0  -4  -7  801.52   17.40
   0  -4  -7  732.43   17.50
   0  -4  -7  776.32   17.20
   0  -4  -7  780.92   18.20
   0  -4  -7  784.52   18.60
   0   4   7  761.62   15.10
   0   4   7  780.62   17.30
   0   4   7  753.22   16.70
   0   4   7  786.02   17.50
   0   4   7  759.42   17.40
  -1  -4  -7   26.90    2.60
  -1  -4  -7   28.40    2.60
  -1  -4  -7   28.40    3.80
  -1  -4  -7   28.20    3.30
   1   4   7   24.10    2.40
   1   4   7   27.50    4.10
   1   4   7   31.80    3.80
   1   4   7   29.70    3.10
   1   4   7   29.10    3.10
  -2  -4  -7  269.87    9.50
  -2  -4  -7  268.77    7.50
  -2  -4  -7  256.47    7.80
  -2  -4  -7  270.87    9.40
   2   4   7  275.07    9.90
   2   4   7  271.47    8.40
   2   4   7  275.87    9.80
   2   4   7  261.87    7.30
   2   4   7  277.27    8.40
  -3  -4  -7    3.60    3.20
  -3  -4  -7    0.80    1.70
   3   4   7    1.30    3.10
   3   4   7    1.70    2.10
   3   4   7    1.00    1.20
   3   4   7    0.20    3.00
   3   4   7   -0.40    2.70
  -4  -4  -7   33.00    5.50
  -4  -4  -7   29.00    3.80
  -4  -4  -7   24.50    2.30
   4   4   7   25.80    4.70
   4   4   7   26.50    5.10
   4   4   7   25.20    3.40
   4   4   7   25.40    2.90
  -5  -4  -7   14.40    3.50
  -5  -4  -7   16.50    5.40
   5   4   7    9.40    4.70
   5   4   7   16.90    4.10
   5   4   7   11.80    4.20
  -6  -4  -7   22.00    6.80
  -6  -4  -7   21.60    4.30
   6   4   7   11.70    4.40
   6   4   7   28.90    8.70
  -7  -4  -7    5.30    6.20
  -7  -4  -7   -1.00    3.40
   7   4   7   -0.90    5.70
   6  -5  -7   81.59    8.90
  -6   5   7   68.59    5.30
  -6   5   7   73.89    6.70
   5  -5  -7  102.79    8.10
   5  -5  -7   97.99    7.70
  -5   5   7   99.09    6.70
  -5   5   7  114.89    7.10
  -5   5   7  104.49    5.40
   4  -5  -7   -3.40    2.50
   4  -5  -7   -2.50    2.60
   4  -5  -7   -0.50    3.80
  -4   5   7   -2.00    1.70
  -4   5   7   -1.10    2.00
  -4   5   7   -2.20    1.30
   3  -5  -7  256.47   10.70
   3  -5  -7  258.67   10.00
   3  -5  -7  271.47    8.50
   3  -5  -7  258.87   11.10
  -3   5   7  253.17    7.00
  -3   5   7  269.77    8.60
  -3   5   7  275.67    8.90
  -3   5   7  260.47    7.60
   2  -5  -7   76.89    6.30
   2  -5  -7   88.19    4.80
   2  -5  -7   77.09    4.80
   2  -5  -7   79.99    5.60
  -2   5   7   77.29    4.10
  -2   5   7   86.09    4.50
  -2   5   7   82.89    4.10
  -2   5   7   90.49    3.70
   1  -5  -7  714.73   16.90
   1  -5  -7  727.63   18.40
   1  -5  -7  687.13   15.40
   1  -5  -7  692.73   16.60
   1  -5  -7  720.23   17.90
  -1   5   7  704.13   16.30
  -1   5   7  701.13   15.30
  -1   5   7  704.23   14.80
  -1   5   7  742.23   17.00
   0  -5  -7  521.15   13.30
   0  -5  -7  548.15   14.70
   0  -5  -7  551.84   15.00
   0  -5  -7  556.64   13.70
   0  -5  -7  568.74   13.50
   0   5   7  560.64   13.80
   0   5   7  546.05   12.80
   0   5   7  557.24   13.80
   0   5   7  577.54   11.50
   0   5   7  561.54   13.50
  -1  -5  -7  139.59    5.30
  -1  -5  -7  135.59    4.80
  -1  -5  -7  147.39    7.30
  -1  -5  -7  139.09    7.10
   1   5   7  134.89    6.50
   1   5   7  137.49    7.10
   1   5   7  136.19    6.60
   1   5   7  126.19    4.80
   1   5   7  134.89    5.50
  -2  -5  -7  202.98    8.30
  -2  -5  -7  195.98    5.90
  -2  -5  -7  210.48    7.00
   2   5   7  202.88    7.40
   2   5   7  202.48    8.10
   2   5   7  200.08    8.40
   2   5   7  201.68    5.80
   2   5   7  198.98    8.50
  -3  -5  -7   43.20    3.40
  -3  -5  -7   36.70    4.30
  -3  -5  -7   38.90    4.70
   3   5   7   38.10    5.50
   3   5   7   34.30    3.70
   3   5   7   41.50    4.60
  -4  -5  -7   73.19    7.60
  -4  -5  -7   69.29    4.60
  -4  -5  -7   72.09    3.60
   4   5   7   67.19    4.80
   4   5   7   72.49    6.90
   4   5   7   67.79    5.10
   4   5   7   66.49    7.70
  -5  -5  -7   20.50    3.60
  -5  -5  -7   14.80    5.70
   5   5   7   23.80    7.20
   5   5   7   16.20    3.50
   5   5   7   11.60    4.50
  -6  -5  -7   44.80    5.10
  -6  -5  -7   23.00    7.10
   6   5   7   33.10    5.60
   6   5   7   39.20    7.80
  -7  -5  -7    2.20    3.50
  -7  -5  -7    1.60    6.60
   7   5   7    7.20    8.50
   6  -6  -7  150.88   11.90
  -6   6   7  149.39    9.00
  -6   6   7  143.09    7.80
   5  -6  -7    6.70    5.10
   5  -6  -7    4.10    5.00
  -5   6   7    9.90    2.90
  -5   6   7    1.60    3.00
   4  -6  -7   80.09    7.80
   4  -6  -7   85.59    8.10
   4  -6  -7   82.99    6.20
  -4   6   7   75.29    5.20
  -4   6   7   75.79    4.90
   3  -6  -7  261.27    9.00
   3  -6  -7  258.37   11.60
   3  -6  -7  265.27   11.10
   3  -6  -7  260.27   10.00
  -3   6   7  265.17    8.10
  -3   6   7  254.77    8.90
  -3   6   7  262.77    7.60
   2  -6  -7   29.00    3.30
   2  -6  -7   26.00    3.60
   2  -6  -7   33.30    4.90
   2  -6  -7   26.30    5.00
  -2   6   7   23.30    2.30
  -2   6   7   32.50    2.70
  -2   6   7   34.90    3.30
   1  -6  -7  412.46   11.60
   1  -6  -7  390.06   12.50
   1  -6  -7  398.06   13.10
   1  -6  -7  398.06   11.10
  -1   6   7  394.06   11.10
  -1   6   7  375.66    9.10
  -1   6   7  407.06    9.50
  -1   6   7  424.86   11.50
   0  -6  -7    6.80    2.40
   0  -6  -7    7.20    2.70
   0  -6  -7    3.40    2.50
   0  -6  -7    6.90    2.10
   0   6   7    6.40    2.30
   0   6   7   10.00    3.30
   0   6   7   10.00    2.80
   0   6   7    7.00    2.10
  -1  -6  -7  451.85   11.20
  -1  -6  -7  454.35   13.50
  -1  -6  -7  437.96   12.10
  -1  -6  -7  466.55   14.10
   1   6   7  459.25   13.10
   1   6   7  441.96   12.20
   1   6   7  463.45   12.60
   1   6   7  434.26   12.50
  -2  -6  -7   58.39    5.70
  -2  -6  -7   40.20    3.70
  -2  -6  -7   47.30    4.90
   2   6   7   50.39    5.10
   2   6   7   54.89    5.00
   2   6   7   50.29    4.40
  -3  -6  -7  150.18    6.10
  -3  -6  -7  150.68    7.80
  -3  -6  -7  149.49    9.30
   3   6   7  163.78    7.00
   3   6   7  146.79    8.30
   3   6   7  145.09    7.70
  -4  -6  -7   23.00    2.90
  -4  -6  -7   21.30    3.10
  -4  -6  -7   25.70    5.80
   4   6   7   19.60    4.60
   4   6   7   16.90    3.40
   4   6   7   16.20    5.40
  -5  -6  -7    5.20    2.10
  -5  -6  -7    8.00    5.60
   5   6   7    9.70    4.80
   5   6   7    0.80    5.40
  -6  -6  -7    7.50    3.20
  -6  -6  -7    4.50    5.90
   6   6   7    3.60    4.90
   6   6   7   13.30    7.90
  -7  -6  -7   -1.80    6.10
  -7  -6  -7   -0.70    3.20
   7   6   7   16.20    8.60
   5  -7  -7   30.70    5.80
   5  -7  -7   25.90    6.80
  -5   7   7   29.70    4.80
  -5   7   7   31.40    4.10
   4  -7  -7   77.09    8.40
   4  -7  -7   95.69    8.90
  -4   7   7   76.29    5.10
  -4   7   7   74.99    5.50
   3  -7  -7   24.00    3.60
   3  -7  -7   14.90    5.40
   3  -7  -7   20.20    5.00
   3  -7  -7   20.30    3.30
  -3   7   7   19.10    2.70
  -3   7   7   23.50    3.60
  -3   7   7   16.50    2.30
   2  -7  -7  445.26   14.50
   2  -7  -7  403.06   12.70
   2  -7  -7  419.16   12.30
   2  -7  -7  430.06   14.80
  -2   7   7  402.26   10.60
   1  -7  -7   18.70    3.30
   1  -7  -7   24.40    4.10
   1  -7  -7   13.40    3.30
   1  -7  -7   13.40    2.80
  -1   7   7   13.50    1.90
  -1   7   7   18.50    3.60
  -1   7   7   16.60    3.20
   0  -7  -7  246.38   10.20
   0  -7  -7  241.98    8.80
   0  -7  -7  263.67   10.70
   0  -7  -7  244.98    8.10
   0   7   7  250.77    8.70
   0   7   7  269.57    9.10
   0   7   7  253.17    7.80
  -1  -7  -7  338.57    9.10
  -1  -7  -7  334.77   10.30
  -1  -7  -7  350.46   11.90
  -1  -7  -7  370.16   12.70
   1   7   7  337.37   11.10
   1   7   7  347.37   11.00
   1   7   7  346.97   10.90
  -2  -7  -7    0.60    2.60
  -2  -7  -7   -0.30    1.30
  -2  -7  -7    2.30    2.40
  -2  -7  -7    4.40    3.40
   2   7   7    1.60    3.30
   2   7   7    2.70    2.70
   2   7   7    4.90    2.70
  -3  -7  -7   80.79    6.70
  -3  -7  -7   70.49    4.80
  -3  -7  -7   99.39    8.90
  -3  -7  -7   76.59    4.50
   3   7   7   74.29    7.10
   3   7   7   72.79    5.50
   3   7   7   71.09    5.70
  -4  -7  -7    4.50    2.20
  -4  -7  -7    2.20    3.60
  -4  -7  -7    2.20    2.00
   4   7   7   -1.00    3.20
   4   7   7    2.80    2.90
   4   7   7    8.20    3.50
  -5  -7  -7    8.80    2.30
  -5  -7  -7   11.40    6.30
   5   7   7    3.50    3.60
  -6  -7  -7    9.00    5.10
   6   7   7   -0.50    4.90
   6   7   7    2.60    5.10
   5  -8  -7  103.69    9.40
   5  -8  -7  110.29   10.80
  -5   8   7   98.29    7.80
  -5   8   7  113.89    6.80
   4  -8  -7   19.30    5.90
   4  -8  -7    9.00    4.70
  -4   8   7    7.90    2.70
  -4   8   7   14.00    3.70
   3  -8  -7  156.38    7.80
   3  -8  -7  148.79   11.30
   3  -8  -7  161.98   11.00
   3  -8  -7  148.79    8.00
  -3   8   7  180.08    8.20
  -3   8   7  163.68    6.80
   2  -8  -7   59.39    6.60
   2  -8  -7   53.69    5.00
   2  -8  -7   61.19    5.30
   2  -8  -7   59.69    6.50
  -2   8   7   50.89    3.70
  -2   8   7   60.19    5.10
   1  -8  -7   70.99    6.70
   1  -8  -7   66.19    4.50
   1  -8  -7   65.39    5.50
   1  -8  -7   71.09    7.30
  -1   8   7   72.19    5.50
  -1   8   7   65.49    3.70
  -1   8   7   68.89    5.70
   0  -8  -7  189.38    9.80
   0  -8  -7  187.78    9.60
   0  -8  -7  192.78    8.30
   0  -8  -7  187.58    7.10
   0   8   7  186.48    7.80
   0   8   7  199.18    8.40
  -1  -8  -7   -0.50    1.80
  -1  -8  -7   -0.90    3.40
  -1  -8  -7    1.50    1.40
  -1  -8  -7    0.70    2.70
   1   8   7    2.60    2.20
   1   8   7    4.30    3.80
   1   8   7    0.70    2.80
  -2  -8  -7  196.58    8.30
  -2  -8  -7  211.08    9.50
  -2  -8  -7  213.48    9.90
   2   8   7  226.18    9.00
   2   8   7  202.28    9.60
   2   8   7  203.38    9.60
  -3  -8  -7   -0.20    3.10
  -3  -8  -7   -2.60    2.30
   3   8   7    2.50    3.10
   3   8   7    0.80    4.00
   3   8   7   -1.90    4.10
  -4  -8  -7   42.20    3.90
  -4  -8  -7   55.89    8.60
   4   8   7   56.19    5.50
   4   8   7   45.50    6.00
   4   8   7   52.19    6.50
  -5  -8  -7   19.10    6.10
   5   8   7   36.60    6.50
  -6  -8  -7   10.80    6.90
   6   8   7    6.00    5.60
   4  -9  -7   10.00    6.50
   4  -9  -7    6.20    6.00
  -4   9   7    6.50    2.90
  -4   9   7    7.00    2.90
   3  -9  -7   27.80    7.00
   3  -9  -7   27.30    4.60
   3  -9  -7   30.80    6.50
  -3   9   7   29.10    3.20
  -3   9   7   26.20    4.40
   2  -9  -7    1.40    3.10
   2  -9  -7   -0.20    1.80
   2  -9  -7    3.90    3.40
   2  -9  -7    8.30    4.20
  -2   9   7   -0.70    2.80
  -2   9   7    1.10    1.30
   1  -9  -7  100.69    8.00
   1  -9  -7  115.69    6.50
   1  -9  -7  105.69    7.60
   1  -9  -7  111.99    6.50
  -1   9   7  117.59    7.20
  -1   9   7  115.99    7.10
  -1   9   7  122.29    5.10
   0  -9  -7   25.70    3.10
   0  -9  -7   30.00    5.60
   0  -9  -7   29.30    4.50
   0  -9  -7   22.70    4.20
   0   9   7   31.80    4.70
   0   9   7   35.40    4.90
  -1  -9  -7  138.89    7.50
  -1  -9  -7  130.39    8.50
  -1  -9  -7  123.69    8.00
   1   9   7  127.39    8.30
   1   9   7  137.39    7.60
  -2  -9  -7  100.49    6.60
  -2  -9  -7  100.59    7.70
  -2  -9  -7  119.09    9.10
   2   9   7  102.29    6.30
   2   9   7   94.39    7.50
   2   9   7  107.09    8.10
  -3  -9  -7    5.00    3.50
  -3  -9  -7    2.50    2.80
   3   9   7    0.10    2.40
   3   9   7    1.40    4.20
   3   9   7   -6.00    4.30
  -4  -9  -7   51.29    9.00
  -4  -9  -7   30.20    3.70
   4   9   7   47.40    6.30
   4   9   7   45.70    5.00
   4   9   7   41.50    6.50
  -5  -9  -7    3.90    4.90
   5   9   7    0.50    5.50
  -6  -9  -7   19.00    8.00
   6   9   7    5.20    5.80
   4 -10  -7   69.49    9.60
   4 -10  -7   74.39    9.20
  -4  10   7   73.39    6.40
  -4  10   7   77.79    6.00
   3 -10  -7   -1.00    5.30
   3 -10  -7   -4.20    4.10
   3 -10  -7    8.30    4.10
  -3  10   7    0.70    2.50
  -3  10   7    2.60    3.30
   2 -10  -7   82.39    7.70
   2 -10  -7   88.19    6.70
   2 -10  -7   89.39    7.30
   2 -10  -7   90.89    8.60
  -2  10   7   82.49    5.20
  -2  10   7   84.49    6.60
   1 -10  -7   43.30    7.30
   1 -10  -7   45.80    4.70
   1 -10  -7   49.80    5.30
   1 -10  -7   45.60    6.70
  -1  10   7   43.30    5.40
  -1  10   7   47.00    3.70
  -1  10   7   61.89    5.90
   0 -10  -7   19.40    5.20
   0 -10  -7   25.10    4.10
   0 -10  -7   25.50    5.10
   0  10   7   21.10    3.90
   0  10   7   33.90    5.20
  -1 -10  -7  120.89    8.50
  -1 -10  -7  119.09    8.70
  -1 -10  -7  116.59    6.90
   1  10   7  106.99    7.70
   1  10   7  109.49    8.50
  -2 -10  -7   -2.20    3.00
  -2 -10  -7    2.80    3.70
  -2 -10  -7   -2.30    3.40
   2  10   7    1.60    2.70
   2  10   7   -6.10    3.00
  -3 -10  -7   47.50    5.20
   3  10   7   24.70    5.40
   3  10   7   44.00    5.00
   3  10   7   37.10    6.70
  -4 -10  -7   11.30    7.30
  -4 -10  -7    5.00    3.00
   4  10   7    6.80    5.50
   4  10   7    7.80    4.10
  -5 -10  -7   33.00    7.60
   5  10   7   27.40    6.80
   3 -11  -7   26.50    7.10
   3 -11  -7    9.80    6.60
  -3  11   7   21.00    4.40
  -3  11   7   12.30    3.30
   2 -11  -7   14.40    5.90
   2 -11  -7   15.10    3.90
   2 -11  -7   18.80    5.60
  -2  11   7   18.70    3.20
  -2  11   7   18.90    4.30
   1 -11  -7    0.00    5.50
   1 -11  -7    8.50    4.20
   1 -11  -7    0.50    4.80
  -1  11   7    5.20    3.70
  -1  11   7    0.70    1.60
  -1  11   7    6.80    4.00
   0 -11  -7   12.90    6.10
   0 -11  -7   20.80    4.90
   0 -11  -7   22.80    5.70
   0  11   7   23.20    5.20
   0  11   7   21.10    5.00
  -1 -11  -7   19.80    5.20
  -1 -11  -7   14.00    4.90
  -1 -11  -7   17.60    3.80
   1  11   7   19.20    5.50
   1  11   7   17.00    4.70
  -2 -11  -7   15.80    5.00
  -2 -11  -7    7.80    4.40
  -2 -11  -7   17.70    4.50
   2  11   7    9.30    3.60
   2  11   7   10.30    4.20
  -3 -11  -7   45.50    4.80
   3  11   7   47.70    7.30
   3  11   7   37.60    5.20
  -4 -11  -7    2.90    5.50
  -4 -11  -7   -3.00    2.80
   4  11   7    5.60    5.70
   4  11   7   -4.30    3.90
   2 -12  -7   -9.40    5.90
   2 -12  -7   -3.00    5.50
   2 -12  -7    0.60    4.20
  -2  12   7    2.60    1.90
  -2  12   7    8.00    3.90
   1 -12  -7   43.20    8.10
   1 -12  -7   37.30    6.20
   1 -12  -7   59.49    7.80
  -1  12   7   52.89    6.40
  -1  12   7   38.80    4.20
  -1  12   7   46.00    5.10
   0 -12  -7    7.30    4.50
   0 -12  -7    1.40    5.00
   0 -12  -7   16.90    6.60
   0  12   7    1.40    4.10
   0  12   7    2.70    4.40
  -1 -12  -7    1.40    5.80
  -1 -12  -7    6.30    4.10
  -1 -12  -7   -0.60    4.70
   1  12   7   -0.10    3.00
   1  12   7   -0.50    4.80
  -2 -12  -7   56.49    6.40
  -2 -12  -7   49.00    8.10
   2  12   7   53.89    7.70
   2  12   7   37.00    6.10
  -3 -12  -7    3.30    3.80
   3  12   7   -3.30    5.80
   3  12   7    5.10    4.50
   0 -13  -7    7.60    4.80
   0 -13  -7    4.10    4.50
   0  13   7    6.40    4.80
   0  13   7   12.20    4.60
  -1 -13  -7   -2.10    4.20
  -1 -13  -7    7.50    6.50
   1  13   7    7.20    4.80
   1  13   7    7.50    5.10
  -2 -13  -7    8.50    4.90
  -2 -13  -7   19.40    7.10
   2  13   7   11.20    4.00
   2  13   7   25.60    6.80
   3  11  -8    6.30    4.60
   3  11  -8    0.00    3.80
  -3 -11   8   -4.80    3.50
   2  11  -8    6.00    4.30
   2  11  -8    3.30    4.20
  -2 -11   8   -3.30    4.10
   1  11  -8   50.29    6.60
   1  11  -8   41.00    7.50
  -1 -11   8   41.10    5.70
   0  11  -8   15.20    5.30
   0  11  -8   35.90    6.90
   0 -11   8   27.60    6.00
  -1  11  -8    3.30    4.50
   1 -11   8    5.10    4.80
   4  10  -8   12.30    7.60
   4  10  -8    8.90    4.40
   3  10  -8   42.40    5.80
   3  10  -8   37.50    5.20
   3  10  -8   39.30    7.80
  -3 -10   8   29.80    6.70
  -3 -10   8   42.10    5.30
   2  10  -8   10.10    5.80
   2  10  -8    8.70    4.40
  -2 -10   8    4.70    4.00
   1  10  -8  107.29    8.50
   1  10  -8  104.19   10.20
  -1 -10   8  100.29    7.50
   0  10  -8    0.50    3.70
   0  10  -8    2.60    5.00
   0 -10   8    1.90    3.20
  -1  10  -8   42.70    7.40
  -1  10  -8   57.29    6.40
   1 -10   8   61.89    6.90
   1 -10   8   58.79    7.10
   1 -10   8   45.40    7.30
  -2  10  -8    7.30    3.80
   2 -10   8   16.10    5.10
   2 -10   8   -4.00    5.50
   2 -10   8    9.10    4.00
  -3  10  -8   38.60    5.00
   5   9  -8    5.90    5.80
   5   9  -8    9.90    7.50
  -5  -9   8    5.90    3.40
   4   9  -8   18.30    5.60
   4   9  -8   17.30    6.00
   4   9  -8   24.20    6.50
  -4  -9   8   11.70    6.00
  -4  -9   8   22.50    5.00
   3   9  -8   12.50    4.20
   3   9  -8   15.40    4.40
   3   9  -8   19.90    7.60
  -3  -9   8    9.60    3.70
  -3  -9   8   13.00    5.40
  -3  -9   8   13.20    4.00
   2   9  -8   13.20    4.70
   2   9  -8   11.70    4.70
   2   9  -8   12.50    4.40
  -2  -9   8    8.90    3.20
  -2  -9   8   16.70    4.30
   1   9  -8   17.80    4.70
   1   9  -8   13.10    4.40
  -1  -9   8   16.60    4.60
   0   9  -8   79.19    6.40
   0   9  -8   64.49    7.70
   0  -9   8   78.79   10.50
   0  -9   8   93.19    7.80
   0  -9   8   65.59    6.60
  -1   9  -8   36.70    4.70
  -1   9  -8   32.80    5.40
   1  -9   8   25.50    5.10
   1  -9   8   26.20    5.40
   1  -9   8   29.50    6.10
  -2   9  -8    5.20    3.80
   2  -9   8   -2.60    3.60
   2  -9   8    4.10    4.00
   2  -9   8   10.50    4.70
  -3   9  -8    1.50    3.20
  -3   9  -8    4.30    3.10
   3  -9   8   -2.00    4.00
   3  -9   8    1.50    2.90
   3  -9   8    8.40    4.40
   5   8  -8   17.20    4.90
   5   8  -8   -3.20    7.00
  -5  -8   8   10.90    4.90
  -5  -8   8   15.20    5.90
   4   8  -8   72.79    7.90
   4   8  -8   49.30    7.60
  -4  -8   8   48.90    7.40
  -4  -8   8   44.70    5.40
   3   8  -8   67.69    6.60
   3   8  -8   62.49    5.60
   3   8  -8   79.99    9.60
  -3  -8   8   64.79    5.60
  -3  -8   8   62.89    7.40
  -3  -8   8   56.39    6.00
   2   8  -8  138.99    8.00
   2   8  -8  130.79    8.20
   2   8  -8  143.59   12.20
  -2  -8   8  139.39    7.70
  -2  -8   8  145.69    8.10
   1   8  -8    6.00    5.20
   1   8  -8    4.50    3.20
   1   8  -8    3.80    2.60
  -1  -8   8    8.20    3.70
   0   8  -8  199.88   11.20
   0   8  -8  220.28    9.60
   0  -8   8  219.78   10.60
   0  -8   8  212.28    9.90
   0  -8   8  208.18    9.80
  -1   8  -8   -1.40    4.20
  -1   8  -8   -2.00    3.30
   1  -8   8    2.30    4.20
   1  -8   8    0.40    2.60
   1  -8   8    3.00    3.50
  -2   8  -8   28.80    4.40
   2  -8   8   28.60    5.20
   2  -8   8   17.40    6.00
   2  -8   8   25.00    4.40
  -3   8  -8    0.20    3.00
   3  -8   8    2.80    4.60
   3  -8   8   -3.70    5.30
   3  -8   8   -2.90    3.50
  -4   8  -8   40.90    4.70
   4  -8   8   54.99    9.30
   6   7  -8   31.30    6.90
   6   7  -8   22.90    7.70
  -6  -7   8   21.10    6.00
   5   7  -8   46.80    8.60
   5   7  -8   61.99    8.00
  -5  -7   8   49.60    6.20
  -5  -7   8   51.49    7.50
   4   7  -8   27.20    6.00
   4   7  -8   25.20    4.70
  -4  -7   8   24.80    5.60
  -4  -7   8   25.70    5.10
   3   7  -8  126.89    7.20
   3   7  -8  119.99   10.50
   3   7  -8  126.29    7.50
  -3  -7   8  130.39    6.70
  -3  -7   8  115.39    8.60
  -3  -7   8  122.59    7.90
   2   7  -8    3.80    5.80
   2   7  -8    5.70    3.40
   2   7  -8    5.90    3.10
  -2  -7   8    2.00    3.00
  -2  -7   8   -0.60    2.40
   1   7  -8   75.49    5.50
   1   7  -8   86.39    7.70
   1   7  -8   93.99    6.40
  -1  -7   8   86.79    7.10
  -1  -7   8   79.39    5.40
   0   7  -8   56.29    5.20
   0   7  -8   52.69    5.70
   0  -7   8   45.50    4.90
   0  -7   8   54.59    5.50
   0  -7   8   59.69    5.50
  -1   7  -8  145.19    9.30
  -1   7  -8  142.09    7.60
   1  -7   8  136.99    8.80
   1  -7   8  140.79    7.40
   1  -7   8  150.18    8.80
  -2   7  -8   86.19    7.80
  -2   7  -8   94.29    6.30
   2  -7   8   92.09    7.90
   2  -7   8   93.59    8.50
   2  -7   8   87.99    7.10
  -3   7  -8    5.00    2.90
  -3   7  -8   -0.90    2.10
   3  -7   8    0.50    3.30
   3  -7   8    7.60    5.50
   3  -7   8    2.80    4.30
  -4   7  -8    8.90    2.90
  -4   7  -8   16.70    3.60
   4  -7   8   19.60    7.20
   4  -7   8   15.40    5.50
  -5   7  -8    1.90    5.30
  -5   7  -8   -1.80    2.50
   5  -7   8   14.60    7.40
   6   6  -8   38.50    7.80
   6   6  -8   44.30    7.30
  -6  -6   8   49.90    7.60
  -6  -6   8   37.20    7.00
   5   6  -8    4.50    5.60
  -5  -6   8    7.50    4.30
  -5  -6   8    3.30    4.40
   4   6  -8   84.79    8.90
  -4  -6   8   87.49    6.70
  -4  -6   8   71.09    7.30
   3   6  -8   41.00    6.90
   3   6  -8   43.50    4.00
   3   6  -8   38.70    3.80
  -3  -6   8   45.90    5.30
  -3  -6   8   42.80    5.50
  -3  -6   8   53.49    4.60
   2   6  -8  192.78    7.80
   2   6  -8  176.08   11.20
  -2  -6   8  186.18    8.50
  -2  -6   8  193.28    8.00
   1   6  -8  434.86   12.30
   1   6  -8  451.65   16.20
   1   6  -8  451.55   12.60
  -1  -6   8  457.45   14.40
  -1  -6   8  427.36   11.70
  -1  -6   8  464.05   13.40
   0   6  -8   13.30    5.00
   0   6  -8   12.80    2.40
   0   6  -8   16.50    3.30
   0  -6   8   21.60    3.70
   0  -6   8   18.20    3.40
   0  -6   8   19.30    3.50
  -1   6  -8  298.47   10.00
  -1   6  -8  293.27    8.60
  -1   6  -8  299.77   11.80
   1  -6   8  292.57   10.10
   1  -6   8  269.47   10.80
   1  -6   8  296.57   11.40
  -2   6  -8   35.10    3.70
  -2   6  -8   40.40    4.80
  -2   6  -8   37.40    3.60
   2  -6   8   32.40    5.50
   2  -6   8   38.30    4.60
   2  -6   8   39.20    5.20
  -3   6  -8    7.60    2.60
  -3   6  -8    5.50    2.30
  -3   6  -8    3.60    2.60
   3  -6   8    5.90    4.70
   3  -6   8    5.20    4.80
   3  -6   8    9.90    2.90
   3  -6   8    2.20    2.90
  -4   6  -8   -1.00    2.20
  -4   6  -8    2.20    2.80
   4  -6   8    1.70    4.00
   4  -6   8    2.20    3.60
   4  -6   8   10.00    6.10
  -5   6  -8   27.40    4.80
  -5   6  -8   31.80    4.10
   5  -6   8   36.40    7.00
   5  -6   8   35.90    6.90
   6   5  -8   22.70    6.70
  -6  -5   8   26.70    5.10
  -6  -5   8    9.30    5.50
   5   5  -8   89.89    9.00
  -5  -5   8   72.99    7.10
  -5  -5   8   61.59    7.10
   4   5  -8  170.78   10.80
  -4  -5   8  178.28    9.70
  -4  -5   8  161.28    9.20
   3   5  -8   14.70    5.00
   3   5  -8   16.60    3.00
   3   5  -8   14.70    2.80
  -3  -5   8   16.50    3.80
  -3  -5   8   16.60    2.80
  -3  -5   8   17.90    3.90
   2   5  -8  174.38    6.50
   2   5  -8  169.28   10.00
   2   5  -8  167.18    7.10
  -2  -5   8  163.68    7.50
  -2  -5   8  183.98    7.20
   1   5  -8   22.00    3.30
   1   5  -8   16.60    5.10
  -1  -5   8   18.60    3.30
  -1  -5   8   21.00    3.60
   0   5  -8  159.28    9.70
   0   5  -8  183.68    6.80
   0  -5   8  171.78    7.10
   0  -5   8  165.08    7.10
   0  -5   8  175.58    7.90
  -1   5  -8   46.90    4.20
  -1   5  -8   53.39    5.80
   1  -5   8   43.20    4.30
   1  -5   8   50.59    5.70
   1  -5   8   50.49    5.10
  -2   5  -8   91.29    6.90
  -2   5  -8   94.79    5.00
  -2   5  -8   96.59    5.20
   2  -5   8   83.39    7.10
   2  -5   8   93.99    7.70
   2  -5   8   96.59    5.90
   2  -5   8   85.59    5.20
  -3   5  -8  227.58    7.50
  -3   5  -8  211.88    7.70
  -3   5  -8  217.78    8.20
   3  -5   8  225.68    8.60
   3  -5   8  229.28   11.50
   3  -5   8  217.38   10.70
   3  -5   8  214.98    8.50
  -4   5  -8    1.40    1.90
  -4   5  -8    1.40    1.90
   4  -5   8    5.70    4.10
   4  -5   8    1.60    3.70
   4  -5   8    0.00    1.90
  -5   5  -8   27.30    3.60
  -5   5  -8   23.20    4.50
   5  -5   8   30.90    7.60
   5  -5   8   31.50    6.00
  -6   5  -8    5.40    2.60
  -6   5  -8    2.20    3.60
   6  -5   8    1.50    6.20
   6   4  -8   -2.50    4.90
  -6  -4   8    4.20    4.70
  -6  -4   8    1.30    3.10
   5   4  -8   59.59    7.50
  -5  -4   8   60.79    7.00
  -5  -4   8   57.99    6.90
   4   4  -8    2.90    1.80
   4   4  -8    4.90    3.10
  -4  -4   8    5.90    2.70
  -4  -4   8    4.50    3.50
   3   4  -8   33.20    4.60
   3   4  -8   46.90    3.80
   3   4  -8   37.00    3.30
  -3  -4   8   39.00    4.30
  -3  -4   8   37.00    4.30
  -3  -4   8   37.10    3.20
   2   4  -8    1.30    1.90
   2   4  -8    0.40    1.50
   2   4  -8    0.30    2.60
  -2  -4   8    2.10    2.30
  -2  -4   8    2.90    1.70
   1   4  -8  314.97    9.20
   1   4  -8  313.77    9.40
   1   4  -8  304.87   11.20
  -1  -4   8  323.27   11.00
  -1  -4   8  298.67    7.70
  -1  -4   8  305.17    9.40
   0   4  -8  758.42   17.60
   0   4  -8  772.92   20.40
   0  -4   8  731.13   17.30
   0  -4   8  755.02   19.50
   0  -4   8  748.63   17.90
  -1   4  -8   37.50    3.60
  -1   4  -8   39.30    5.10
   1  -4   8   31.20    3.80
   1  -4   8   43.00    5.30
   1  -4   8   36.30    3.50
   1  -4   8   43.00    4.40
  -2   4  -8  217.68    7.60
  -2   4  -8  194.98    7.50
  -2   4  -8  222.68    9.20
   2  -4   8  208.08    9.90
   2  -4   8  212.98    9.50
   2  -4   8  225.68    8.80
  -3   4  -8   61.29    4.90
  -3   4  -8   49.99    3.50
  -3   4  -8   59.89    4.20
   3  -4   8   50.69    6.20
   3  -4   8   59.29    6.90
   3  -4   8   53.99    4.80
  -4   4  -8   28.50    3.60
  -4   4  -8   20.50    2.20
  -4   4  -8   25.70    2.90
   4  -4   8   33.30    4.20
   4  -4   8   36.60    6.90
   4  -4   8   30.50    4.00
   4  -4   8   30.40    6.10
  -5   4  -8   -1.40    1.30
  -5   4  -8    0.90    2.90
   5  -4   8    4.10    4.50
   5  -4   8   -4.90    5.20
  -6   4  -8   11.30    4.30
  -6   4  -8    8.00    2.60
   6  -4   8    8.90    5.10
   6  -4   8   12.20    6.80
   6   3  -8   82.39    8.80
  -6  -3   8   74.59    7.60
  -6  -3   8   68.99    7.70
   5   3  -8    3.00    4.20
   5   3  -8    1.70    2.60
  -5  -3   8    5.50    4.00
  -5  -3   8    6.50    3.90
   4   3  -8   82.39    5.40
   4   3  -8   74.69    7.00
  -4  -3   8   74.19    6.60
  -4  -3   8   83.99    6.10
   3   3  -8  399.66   10.60
   3   3  -8  416.66   13.90
   3   3  -8  405.56   11.40
  -3  -3   8  406.96   13.30
  -3  -3   8  385.06   12.10
  -3  -3   8  415.66   10.30
   2   3  -8    7.80    3.50
   2   3  -8    9.40    2.70
   2   3  -8   11.10    1.60
   2   3  -8    8.40    2.30
  -2  -3   8    8.20    2.30
  -2  -3   8    9.80    2.20
   1   3  -8  384.96   10.00
   1   3  -8  368.76   10.30
   1   3  -8  381.26   12.50
  -1  -3   8  372.56   10.40
  -1  -3   8  372.76   11.30
   0   3  -8  175.88    7.30
   0   3  -8  181.18    6.00
   0   3  -8  177.98    8.90
   0  -3   8  159.48    7.90
   0  -3   8  164.98    5.80
  -1   3  -8  377.26   12.20
  -1   3  -8  368.76   10.10
   1  -3   8  372.56   12.20
   1  -3   8  349.77   10.80
   1  -3   8  367.86   11.30
  -2   3  -8  111.09    5.70
  -2   3  -8  106.19    5.00
   2  -3   8  101.89    5.80
   2  -3   8  108.09    5.80
   2  -3   8  108.79    8.00
  -3   3  -8  184.88    5.90
  -3   3  -8  175.78    7.60
  -3   3  -8  189.68    6.50
   3  -3   8  197.08   10.60
   3  -3   8  200.88    7.60
   3  -3   8  196.58    9.00
  -4   3  -8  294.07    8.50
  -4   3  -8  291.57   10.50
   4  -3   8  299.07   14.00
   4  -3   8  291.37   11.60
   4  -3   8  301.97   10.40
  -5   3  -8    3.60    2.60
  -5   3  -8    3.90    1.50
   5  -3   8   11.30    5.10
   5  -3   8    1.40    4.40
  -6   3  -8   23.30    3.20
  -6   3  -8   26.00    4.30
   6  -3   8   14.30    5.90
   7   2  -8   21.50    5.90
  -7  -2   8   20.60    6.10
   6   2  -8  144.49   11.40
  -6  -2   8  134.89   10.40
  -6  -2   8  119.99    9.50
   5   2  -8   34.90    5.20
   5   2  -8   25.30    3.70
  -5  -2   8   22.60    4.60
  -5  -2   8   25.50    3.00
  -5  -2   8   29.80    4.70
   4   2  -8   34.30    5.30
   4   2  -8   28.60    3.30
  -4  -2   8   34.80    3.20
  -4  -2   8   39.50    5.10
  -4  -2   8   34.70    4.50
   3   2  -8  123.29    7.40
   3   2  -8  129.89    6.10
   3   2  -8  119.59    4.80
  -3  -2   8  123.59    4.60
  -3  -2   8  114.79    6.20
  -3  -2   8  119.79    4.50
  -3  -2   8  126.89    7.00
   2   2  -8    1.50    1.60
   2   2  -8    1.60    2.30
   2   2  -8    0.30    1.70
   2   2  -8    0.40    2.80
  -2  -2   8    0.10    1.00
  -2  -2   8    0.00    1.60
  -2  -2   8   -1.70    1.60
   1   2  -8    0.90    1.60
   1   2  -8    3.40    1.90
   1   2  -8    2.90    2.40
   1   2  -8    4.70    3.00
  -1  -2   8    5.30    1.20
  -1  -2   8    2.10    2.70
  -1  -2   8    2.40    0.50
  -1  -2   8    0.90    2.10
   0   2  -8    6.90    3.40
   0   2  -8    4.00    1.50
   0   2  -8    3.00    2.00
   0  -2   8    6.50    2.60
   0  -2   8    3.70    2.20
   0  -2   8    3.60    3.10
  -1   2  -8 1530.85   30.60
  -1   2  -8 1528.95   32.50
   1  -2   8 1460.95   32.60
   1  -2   8 1500.85   32.20
   1  -2   8 1491.45   31.30
  -2   2  -8   43.80    3.40
  -2   2  -8   39.40    4.00
   2  -2   8   43.00    5.90
   2  -2   8   34.00    3.60
   2  -2   8   39.80    4.70
  -3   2  -8   44.90    4.30
  -3   2  -8   44.90    3.40
  -3   2  -8   48.40    2.70
   3  -2   8   46.50    4.20
   3  -2   8   51.19    6.70
   3  -2   8   39.80    4.40
  -4   2  -8   46.00    3.20
  -4   2  -8   37.50    4.50
   4  -2   8   40.20    4.90
   4  -2   8   42.30    7.20
   4  -2   8   46.50    4.30
  -5   2  -8   21.80    4.20
  -5   2  -8   23.30    2.70
   5  -2   8   17.80    5.40
   5  -2   8   13.00    5.20
  -6   2  -8    0.20    2.20
  -6   2  -8    6.10    3.70
   6  -2   8    7.80    7.40
   7   1  -8   44.00    7.00
  -7  -1   8   26.00    5.30
   6   1  -8   40.90    6.90
   6   1  -8   28.80    4.40
  -6  -1   8   28.90    5.00
  -6  -1   8   28.00    3.60
   5   1  -8   55.59    5.10
   5   1  -8   63.69    7.40
  -5  -1   8   54.89    6.40
  -5  -1   8   49.70    4.10
  -5  -1   8   59.89    6.00
   4   1  -8    2.10    2.50
   4   1  -8    1.60    2.60
   4   1  -8    0.40    2.40
  -4  -1   8   -0.40    2.50
  -4  -1   8    1.20    2.20
  -4  -1   8    0.60    1.30
   3   1  -8   46.90    3.70
   3   1  -8   53.09    4.00
   3   1  -8   49.00    3.10
   3   1  -8   49.40    5.00
  -3  -1   8   46.00    3.20
  -3  -1   8   42.70    3.80
  -3  -1   8   48.70    2.70
  -3  -1   8   53.49    4.80
   2   1  -8  400.06   10.10
   2   1  -8  390.46    9.70
   2   1  -8  390.16   11.00
   2   1  -8  390.86   12.40
  -2  -1   8  387.66    9.30
  -2  -1   8  394.46    9.60
  -2  -1   8  378.16   11.00
   1   1  -8    5.80    2.10
   1   1  -8    5.10    2.70
   1   1  -8    4.30    1.80
   1   1  -8    5.20    2.30
  -1  -1   8    6.10    2.10
  -1  -1   8    4.80    0.90
  -1  -1   8    7.00    2.70
  -1  -1   8    4.30    0.70
   0   1  -8  486.35   11.80
   0   1  -8  519.45   12.50
   0   1  -8  516.85   12.80
   0   1  -8  522.95   13.40
   0  -1   8  507.65   13.20
   0  -1   8  505.05   13.40
   0  -1   8  512.05   12.60
   0  -1   8  500.05    9.80
  -1   1  -8  240.98    8.40
  -1   1  -8  243.38    8.80
  -1   1  -8  246.08    7.20
   1  -1   8  242.18    8.90
   1  -1   8  253.57    8.00
   1  -1   8  233.68    8.70
  -2   1  -8  345.87    9.70
  -2   1  -8  323.97    7.50
  -2   1  -8  364.66    9.20
   2  -1   8  349.17   10.00
   2  -1   8  333.67   11.40
   2  -1   8  343.77   12.40
  -3   1  -8    1.50    1.00
  -3   1  -8    4.60    2.40
  -3   1  -8    2.70    1.80
   3  -1   8    0.90    4.70
   3  -1   8    2.90    2.20
   3  -1   8    4.90    3.00
  -4   1  -8   82.99    5.30
  -4   1  -8   90.99    3.80
   4  -1   8   80.39    5.00
   4  -1   8   90.19    7.90
   4  -1   8   77.79    6.60
  -5   1  -8  164.28    8.90
  -5   1  -8  183.88    6.20
   5  -1   8  168.08   10.90
   5  -1   8  196.88   13.40
  -6   1  -8    3.00    3.60
   6  -1   8   16.20    7.90
  -7   1  -8    2.90    4.40
   7  -1   8   -3.40    7.80
   7   0  -8   37.80    5.70
  -7   0   8    7.80    5.20
  -7   0   8   11.90    3.90
   6   0  -8   14.80    5.50
  -6   0   8   11.20    3.30
  -6   0   8    8.20    3.70
   5   0  -8  327.77   11.70
   5   0  -8  338.27   14.50
   5   0  -8  328.57   11.20
  -5   0   8  336.27   13.40
  -5   0   8  336.07   10.90
   4   0  -8   65.49    4.70
   4   0  -8   66.49    5.10
   4   0  -8   71.79    6.00
  -4   0   8   63.19    5.80
  -4   0   8   68.29    4.40
   3   0  -8    0.00    2.20
   3   0  -8    3.40    2.40
   3   0  -8    3.20    1.40
   3   0  -8    5.00    3.10
  -3   0   8    2.40    1.10
  -3   0   8    0.10    1.70
  -3   0   8    3.40    1.30
   2   0  -8  425.56   11.40
   2   0  -8  433.76   10.50
   2   0  -8  422.16   11.50
   2   0  -8  428.76   12.80
  -2   0   8  423.26   10.50
  -2   0   8  427.46   10.10
   1   0  -8   22.60    3.00
   1   0  -8   23.80    2.40
   1   0  -8   26.40    3.10
   1   0  -8   27.40    2.70
  -1   0   8   28.30    3.30
  -1   0   8   22.70    1.60
  -1   0   8   25.70    2.70
   0   0  -8  122.29    5.50
   0   0  -8  129.79    5.50
   0   0  -8  129.19    5.50
   0   0  -8  124.99    4.70
   0   0   8  128.89    6.10
   0   0   8  127.39    3.30
   0   0   8  124.69    5.20
   0   0   8  136.89    6.40
  -1   0  -8   24.00    3.10
  -1   0  -8   20.70    2.10
  -1   0  -8   20.60    3.00
  -1   0  -8   26.20    3.30
   1   0   8   21.10    3.70
   1   0   8   21.30    2.80
   1   0   8   21.80    3.60
  -2   0  -8  814.72   16.30
  -2   0  -8  827.72   18.10
  -2   0  -8  856.81   18.30
   2   0   8  858.21   20.80
   2   0   8  841.12   21.10
   2   0   8  801.22   17.20
   2   0   8  914.11   19.30
  -3   0  -8   14.60    3.10
  -3   0  -8   15.50    3.10
  -3   0  -8   14.20    1.40
  -3   0  -8   15.70    2.10
   3   0   8   14.50    3.70
   3   0   8   12.50    5.00
   3   0   8   13.50    2.60
   3   0   8   16.60    2.10
  -4   0  -8   33.00    4.60
  -4   0  -8   33.90    2.60
  -4   0  -8   38.50    3.90
  -4   0  -8   34.00    2.30
   4   0   8   36.50    5.70
   4   0   8   46.20    6.50
   4   0   8   37.70    3.60
  -5   0  -8   47.30    3.20
  -5   0  -8   43.20    5.40
   5   0   8   43.80    6.70
   5   0   8   47.60    6.10
  -6   0  -8   22.50    4.00
   6   0   8   18.90    8.10
  -7   0  -8    8.10    4.50
   7   0   8   17.30    9.10
   6  -1  -8   94.29    8.50
  -6   1   8   80.19    7.30
  -6   1   8   77.29    6.10
   5  -1  -8   72.49    6.20
   5  -1  -8   67.39    5.90
   5  -1  -8   83.49    8.40
  -5   1   8   75.79    5.30
  -5   1   8   78.69    7.00
   4  -1  -8   13.50    3.40
   4  -1  -8   10.20    3.20
   4  -1  -8   12.40    3.10
  -4   1   8   12.90    1.90
  -4   1   8   13.30    3.00
  -4   1   8   10.10    2.40
   3  -1  -8   23.00    2.40
   3  -1  -8   27.50    2.50
   3  -1  -8   28.70    4.10
   3  -1  -8   28.20    3.20
   3  -1  -8   24.10    3.00
  -3   1   8   32.90    2.50
  -3   1   8   32.00    3.60
  -3   1   8   23.50    1.90
  -3   1   8   22.90    2.50
   2  -1  -8   18.40    3.30
   2  -1  -8   19.10    1.90
   2  -1  -8   15.90    2.10
   2  -1  -8   13.70    2.90
   2  -1  -8   13.30    2.30
  -2   1   8   14.30    1.80
  -2   1   8   14.20    2.10
   1  -1  -8 1457.55   30.00
   1  -1  -8 1438.26   30.70
   1  -1  -8 1425.66   28.90
   1  -1  -8 1479.95   30.00
   1  -1  -8 1366.66   27.30
  -1   1   8 1411.56   29.90
  -1   1   8 1444.86   28.10
  -1   1   8 1471.55   29.20
  -1   1   8 1432.96   29.60
   0  -1  -8    9.70    2.60
   0  -1  -8   11.30    2.40
   0  -1  -8   10.90    1.70
   0  -1  -8   10.40    2.20
   0   1   8   13.50    2.30
   0   1   8   10.50    2.20
   0   1   8   12.20    3.00
  -1  -1  -8  197.08    6.50
  -1  -1  -8  192.18    5.10
  -1  -1  -8  206.98    7.00
  -1  -1  -8  202.68    7.40
  -1  -1  -8  185.68    6.00
   1   1   8  197.98    5.90
   1   1   8  189.58    6.60
   1   1   8  207.68    8.20
   1   1   8  191.68    7.50
  -2  -1  -8  417.16   10.90
  -2  -1  -8  435.56   10.50
  -2  -1  -8  416.26    8.20
  -2  -1  -8  433.56   10.10
   2   1   8  434.46   11.20
   2   1   8  414.86   10.10
   2   1   8  424.76   13.10
   2   1   8  425.16   13.30
  -3  -1  -8   61.59    2.20
  -3  -1  -8   63.59    3.50
  -3  -1  -8   68.29    5.20
   3   1   8   72.49    7.30
   3   1   8   70.19    6.70
   3   1   8   60.09    3.70
   3   1   8   60.69    3.70
  -4  -1  -8   20.20    4.20
  -4  -1  -8   20.80    1.90
  -4  -1  -8   26.90    3.50
  -4  -1  -8   18.70    2.00
   4   1   8   26.30    3.30
   4   1   8   22.10    4.50
   4   1   8   18.80    3.10
   4   1   8   21.30    6.10
  -5  -1  -8    2.30    2.20
  -5  -1  -8    5.80    4.40
  -5  -1  -8    6.20    1.50
   5   1   8   -2.10    5.90
   5   1   8    2.60    5.40
  -6  -1  -8   65.29    8.20
  -6  -1  -8   74.49    7.10
   6   1   8   71.39   10.70
  -7  -1  -8    6.40    4.30
   7   1   8    6.30    8.10
   6  -2  -8   31.20    5.60
   6  -2  -8   47.90    6.80
  -6   2   8   38.50    3.80
  -6   2   8   35.90    5.70
  -6   2   8   36.40    4.60
   5  -2  -8    2.10    2.90
   5  -2  -8   -0.70    3.40
  -5   2   8    3.10    2.00
  -5   2   8    3.70    2.50
  -5   2   8    4.00    3.30
   4  -2  -8  337.77   11.60
   4  -2  -8  332.87   11.90
  -4   2   8  336.87   10.10
  -4   2   8  340.87    9.20
  -4   2   8  324.87   11.80
   3  -2  -8  259.27    9.60
   3  -2  -8  257.47    7.40
   3  -2  -8  250.67    8.90
   3  -2  -8  252.47    7.90
  -3   2   8  260.27    7.10
  -3   2   8  246.78    9.20
  -3   2   8  259.27    7.80
   2  -2  -8   97.39    5.30
   2  -2  -8  101.19    6.10
   2  -2  -8   94.09    4.30
   2  -2  -8   92.49    4.30
  -2   2   8   92.79    5.10
  -2   2   8   99.59    4.20
  -2   2   8   91.09    4.00
  -2   2   8   96.49    3.30
   1  -2  -8  203.68    7.30
   1  -2  -8  223.18    6.70
   1  -2  -8  204.18    7.70
   1  -2  -8  218.58    6.40
   1  -2  -8  208.88    8.00
  -1   2   8  209.28    7.10
  -1   2   8  217.78    5.00
  -1   2   8  209.18    5.80
  -1   2   8  191.88    6.30
  -1   2   8  211.38    6.70
   0  -2  -8    8.40    2.00
   0  -2  -8   10.20    2.90
   0  -2  -8   10.70    1.90
   0  -2  -8    6.10    1.50
   0   2   8   13.60    2.00
   0   2   8    6.60    2.60
   0   2   8    8.50    2.80
   0   2   8    7.50    1.70
  -1  -2  -8  216.18    6.10
  -1  -2  -8  211.38    7.80
  -1  -2  -8  211.08    6.60
  -1  -2  -8  215.18    7.00
  -1  -2  -8  210.28    6.20
   1   2   8  207.88    7.80
   1   2   8  213.68    7.00
   1   2   8  218.18    8.50
   1   2   8  216.88    6.70
  -2  -2  -8   28.90    2.20
  -2  -2  -8   30.70    3.00
  -2  -2  -8   34.60    2.90
  -2  -2  -8   35.60    3.40
  -2  -2  -8   33.30    4.10
   2   2   8   29.50    4.80
   2   2   8   29.40    2.80
   2   2   8   33.60    3.30
   2   2   8   30.80    5.10
  -3  -2  -8  287.27    7.80
  -3  -2  -8  308.67   10.40
   3   2   8  282.87   12.00
   3   2   8  279.27    8.50
   3   2   8  272.27   11.20
   3   2   8  297.17    8.90
  -4  -2  -8    5.30    1.70
  -4  -2  -8    8.50    3.70
  -4  -2  -8    1.80    2.70
   4   2   8    4.60    1.80
   4   2   8    3.10    2.50
   4   2   8    7.30    5.10
   4   2   8    7.00    5.00
  -5  -2  -8   31.60    5.80
  -5  -2  -8   31.60    4.70
   5   2   8   32.30    5.60
   5   2   8   36.40    7.40
  -6  -2  -8   48.10    7.60
  -6  -2  -8   40.80    5.00
   6   2   8   52.79    9.50
  -7  -2  -8    1.60    6.00
  -7  -2  -8    9.40    3.60
   7   2   8   14.50    9.00
   6  -3  -8   28.10    4.80
  -6   3   8   27.50    3.90
  -6   3   8   24.70    5.00
  -6   3   8   33.50    4.00
   5  -3  -8   46.30    6.00
   5  -3  -8   50.49    5.50
  -5   3   8   53.69    5.10
  -5   3   8   52.19    5.20
  -5   3   8   49.10    4.10
   4  -3  -8  186.08    9.40
   4  -3  -8  195.28    8.80
   4  -3  -8  189.38    8.20
  -4   3   8  194.88    8.80
  -4   3   8  188.98    6.70
  -4   3   8  204.88    7.80
   3  -3  -8    4.80    2.60
   3  -3  -8    1.20    3.00
   3  -3  -8   11.30    2.90
   3  -3  -8    6.40    1.80
  -3   3   8    7.30    2.50
  -3   3   8    0.30    1.60
  -3   3   8    6.30    1.60
  -3   3   8    4.70    1.30
   2  -3  -8   19.20    3.60
   2  -3  -8   22.60    2.60
   2  -3  -8   24.50    3.30
   2  -3  -8   17.00    2.90
   2  -3  -8   21.20    3.00
  -2   3   8   23.20    2.50
  -2   3   8   20.20    1.80
  -2   3   8   21.30    2.50
  -2   3   8   27.00    3.00
   1  -3  -8   28.70    3.80
   1  -3  -8   30.80    3.50
   1  -3  -8   32.10    3.00
   1  -3  -8   29.50    2.90
   1  -3  -8   31.40    3.00
  -1   3   8   31.30    3.10
  -1   3   8   31.80    1.80
  -1   3   8   30.20    2.40
  -1   3   8   27.90    2.90
   0  -3  -8  677.03   16.20
   0  -3  -8  688.93   16.00
   0  -3  -8  706.53   15.90
   0  -3  -8  696.43   17.10
   0  -3  -8  708.43   16.40
   0   3   8  713.53   16.00
   0   3   8  687.73   15.90
   0   3   8  692.33   13.30
   0   3   8  702.13   16.30
   0   3   8  687.83   15.90
  -1  -3  -8  199.88    6.40
  -1  -3  -8  187.28    6.30
  -1  -3  -8  186.48    5.70
  -1  -3  -8  189.28    6.50
  -1  -3  -8  193.38    7.20
   1   3   8  193.98    6.80
   1   3   8  198.58    6.80
   1   3   8  190.78    7.40
   1   3   8  194.28    8.30
  -2  -3  -8   93.29    5.30
  -2  -3  -8   96.09    2.60
  -2  -3  -8  102.09    5.10
  -2  -3  -8   86.79    5.30
  -2  -3  -8  102.19    4.60
   2   3   8   97.99    7.40
   2   3   8  104.49    7.50
   2   3   8  100.89    4.80
   2   3   8   97.59    4.60
  -3  -3  -8  194.28    8.50
  -3  -3  -8  175.08    5.70
   3   3   8  183.98    9.10
   3   3   8  180.58    6.60
   3   3   8  195.68   10.30
   3   3   8  186.38    7.00
  -4  -3  -8    7.40    2.30
  -4  -3  -8    8.80    3.70
  -4  -3  -8    6.00    1.50
   4   3   8    9.50    4.30
   4   3   8    7.30    3.10
   4   3   8    6.00    1.90
   4   3   8   11.20    5.00
  -5  -3  -8   85.09    6.60
  -5  -3  -8   97.89    8.30
   5   3   8   70.69    8.20
   5   3   8   80.09    5.80
   5   3   8   94.29   10.00
  -6  -3  -8    1.20    3.50
  -6  -3  -8   -5.80    5.00
   6   3   8    5.00    7.60
  -7  -3  -8   27.60    6.30
  -7  -3  -8   20.60    4.20
   7   3   8   35.50    8.40
   6  -4  -8   10.00    5.10
  -6   4   8    1.90    3.50
  -6   4   8    1.90    3.20
  -6   4   8    1.10    2.50
   5  -4  -8   91.89    8.00
  -5   4   8   94.69    6.90
  -5   4   8   80.39    5.40
  -5   4   8   75.29    5.20
   4  -4  -8    4.30    3.90
   4  -4  -8    3.10    2.80
   4  -4  -8    1.90    3.30
  -4   4   8    7.20    2.10
  -4   4   8    3.10    1.50
  -4   4   8    2.40    2.60
   3  -4  -8  269.37    9.70
   3  -4  -8  277.67    8.40
   3  -4  -8  267.57   10.30
   3  -4  -8  281.17   10.10
  -3   4   8  249.68    8.60
  -3   4   8  272.07    9.20
  -3   4   8  263.57    7.70
   2  -4  -8    6.10    2.60
   2  -4  -8    7.50    2.20
   2  -4  -8    8.00    2.30
   2  -4  -8    9.50    2.80
  -2   4   8    6.80    2.00
  -2   4   8    8.90    1.40
  -2   4   8    7.60    1.90
  -2   4   8    6.00    1.50
   1  -4  -8   78.49    5.80
   1  -4  -8   74.99    4.30
   1  -4  -8   79.49    4.00
   1  -4  -8   76.89    5.10
   1  -4  -8   78.19    4.50
  -1   4   8   78.99    2.80
  -1   4   8   80.09    2.80
  -1   4   8   77.59    4.10
  -1   4   8   78.09    4.40
  -1   4   8   77.49    4.40
   0  -4  -8  209.08    7.10
   0  -4  -8  202.28    7.80
   0  -4  -8  206.28    7.40
   0  -4  -8  216.58    7.10
   0   4   8  215.68    7.10
   0   4   8  217.18    7.60
   0   4   8  219.68    7.30
   0   4   8  213.08    7.10
   0   4   8  208.98    4.80
  -1  -4  -8   19.10    3.70
  -1  -4  -8   17.20    2.60
  -1  -4  -8   15.10    1.80
  -1  -4  -8   16.50    2.10
  -1  -4  -8   19.60    3.60
   1   4   8   18.10    3.00
   1   4   8   14.60    3.30
   1   4   8   16.00    3.60
   1   4   8   15.60    4.00
   1   4   8   15.70    0.60
  -2  -4  -8  240.28    7.60
  -2  -4  -8  255.47    9.30
  -2  -4  -8  239.98    7.50
  -2  -4  -8  239.88    9.30
   2   4   8  253.37    8.90
   2   4   8  240.88    9.70
   2   4   8  249.48    8.30
   2   4   8  259.87   10.40
  -3  -4  -8   14.30    2.20
  -3  -4  -8   20.90    4.10
   3   4   8   19.00    3.70
   3   4   8   20.60    5.20
   3   4   8   12.90    4.60
   3   4   8   13.70    2.40
  -4  -4  -8  137.69    4.90
  -4  -4  -8  153.28    9.10
  -4  -4  -8  134.89    6.60
   4   4   8  135.89    7.00
   4   4   8  138.59    6.50
   4   4   8  136.89   10.20
   4   4   8  142.49   10.60
  -5  -4  -8   11.10    3.50
  -5  -4  -8   13.00    5.00
   5   4   8    3.30    4.80
   5   4   8   10.20    4.40
   5   4   8    9.30    3.80
  -6  -4  -8   56.49    5.60
  -6  -4  -8   39.80    7.60
   6   4   8   60.19    8.70
  -7  -4  -8   21.70    7.80
  -7  -4  -8    9.80    3.30
   7   4   8   16.80    9.30
   6  -5  -8  163.58   10.60
  -6   5   8  144.09    7.00
  -6   5   8  142.49    8.70
   5  -5  -8  118.99    8.70
  -5   5   8  131.79    7.60
  -5   5   8  136.29    6.70
   4  -5  -8   84.39    6.90
   4  -5  -8   83.49    7.80
   4  -5  -8   61.89    6.30
  -4   5   8   76.99    5.50
  -4   5   8   74.99    4.20
  -4   5   8   71.09    5.40
   3  -5  -8  138.89    7.70
   3  -5  -8  127.99    7.10
   3  -5  -8  140.19    7.10
   3  -5  -8  129.29    5.90
  -3   5   8  134.89    6.20
  -3   5   8  140.19    5.10
  -3   5   8  138.69    6.30
  -3   5   8  126.59    5.20
   2  -5  -8   44.90    5.00
   2  -5  -8   35.30    4.00
   2  -5  -8   40.30    3.60
   2  -5  -8   51.69    5.50
  -2   5   8   39.00    2.60
  -2   5   8   33.80    3.20
  -2   5   8   32.70    3.00
  -2   5   8   43.80    3.50
   1  -5  -8  147.89    7.30
   1  -5  -8  159.68    6.70
   1  -5  -8  157.18    6.30
   1  -5  -8  157.08    7.90
   1  -5  -8  152.38    5.90
  -1   5   8  156.18    4.60
  -1   5   8  153.88    6.70
  -1   5   8  157.88    5.40
  -1   5   8  157.18    6.30
   0  -5  -8   63.49    4.30
   0  -5  -8   66.99    4.30
   0  -5  -8   54.99    5.40
   0  -5  -8   57.29    4.50
   0   5   8   65.19    2.30
   0   5   8   61.49    4.80
   0   5   8   58.99    3.80
   0   5   8   62.89    4.80
   0   5   8   72.49    4.70
  -1  -5  -8  268.67    9.50
  -1  -5  -8  279.47    8.60
  -1  -5  -8  295.67    9.80
  -1  -5  -8  280.67    8.20
   1   5   8  282.27    9.40
   1   5   8  264.57    8.90
   1   5   8  276.37    9.50
   1   5   8  277.97   10.10
  -2  -5  -8  291.07   10.70
  -2  -5  -8  298.87    9.00
  -2  -5  -8  298.87   10.40
  -2  -5  -8  295.27    8.40
   2   5   8  294.97    9.60
   2   5   8  296.47   11.50
   2   5   8  293.97    9.20
   2   5   8  299.57   11.50
  -3  -5  -8   26.50    2.90
  -3  -5  -8   27.20    4.20
  -3  -5  -8   28.30    4.90
   3   5   8   31.90    5.00
   3   5   8   24.00    3.40
   3   5   8   28.30    5.50
   3   5   8   31.30    4.50
  -4  -5  -8  141.99    5.50
  -4  -5  -8  155.08    9.80
  -4  -5  -8  140.09    7.10
   4   5   8  144.39   10.80
   4   5   8  152.98    7.00
   4   5   8  145.89    7.90
   4   5   8  160.18   10.80
  -5  -5  -8   15.00    3.50
  -5  -5  -8   12.00    5.30
   5   5   8   10.80    7.00
   5   5   8    9.60    4.30
   5   5   8   16.80    6.20
  -6  -5  -8   81.49   10.00
  -6  -5  -8   60.79    6.10
   6   5   8   64.19   10.80
   6   5   8   65.99    6.80
  -7  -5  -8    1.70    3.60
  -7  -5  -8    6.60    6.80
   7   5   8    6.00    8.10
   5  -6  -8    7.70    5.30
  -5   6   8    4.30    3.00
  -5   6   8    1.60    1.80
   4  -6  -8   16.60    5.40
   4  -6  -8   13.60    4.90
  -4   6   8   17.70    3.50
  -4   6   8   13.70    2.80
   3  -6  -8   19.70    3.90
   3  -6  -8   22.50    3.30
   3  -6  -8   31.80    5.40
   3  -6  -8   17.80    3.90
  -3   6   8   25.10    2.90
  -3   6   8   27.50    3.70
   2  -6  -8   23.90    3.70
   2  -6  -8   26.80    4.90
   2  -6  -8   19.90    4.50
   2  -6  -8   23.70    3.00
  -2   6   8   21.20    2.30
  -2   6   8   27.90    3.30
   1  -6  -8    3.80    2.60
   1  -6  -8    2.70    2.30
   1  -6  -8    1.80    2.20
   1  -6  -8    2.60    2.50
  -1   6   8    3.60    2.80
  -1   6   8    4.30    1.30
  -1   6   8    3.10    0.90
  -1   6   8    2.40    1.20
  -1   6   8    5.30    2.50
   0  -6  -8   14.60    4.00
   0  -6  -8   18.30    3.50
   0  -6  -8   14.00    2.90
   0  -6  -8   16.70    2.60
   0   6   8   18.90    2.40
   0   6   8   22.90    3.20
   0   6   8   15.70    2.80
   0   6   8   17.30    3.20
   0   6   8   18.10    1.60
  -1  -6  -8   85.79    4.60
  -1  -6  -8   78.19    6.40
  -1  -6  -8   86.09    4.00
  -1  -6  -8   95.19    6.80
   1   6   8   80.99    5.60
   1   6   8   83.79    5.30
   1   6   8   87.39    6.40
   1   6   8   80.59    5.30
  -2  -6  -8   17.50    4.20
  -2  -6  -8   14.60    2.20
  -2  -6  -8   17.70    2.90
   2   6   8   15.40    3.30
   2   6   8   15.40    2.80
   2   6   8   16.10    3.60
   2   6   8   17.60    4.20
  -3  -6  -8  194.18   10.20
  -3  -6  -8  179.88    8.80
  -3  -6  -8  181.58    6.90
   3   6   8  184.58   10.60
   3   6   8  179.68    7.70
   3   6   8  174.68    8.50
   3   6   8  165.98   10.00
  -4  -6  -8   -0.80    4.40
  -4  -6  -8    0.00    1.70
  -4  -6  -8    3.10    1.80
   4   6   8    0.20    5.00
   4   6   8    0.20    4.70
   4   6   8    4.70    4.20
   4   6   8   -2.20    2.50
  -5  -6  -8   34.80    4.40
  -5  -6  -8   32.10    6.90
   5   6   8   43.40    6.00
   5   6   8   34.70    8.10
  -6  -6  -8   11.50    6.20
  -6  -6  -8    6.00    2.50
   6   6   8   -8.10    7.30
   6   6   8    0.60    4.70
   5  -7  -8  165.98   12.00
   5  -7  -8  153.08   12.00
  -5   7   8  153.88    8.90
  -5   7   8  147.89    7.00
   4  -7  -8  103.19    9.40
   4  -7  -8  109.29    9.30
  -4   7   8  104.59    7.00
  -4   7   8  103.39    5.70
   3  -7  -8    5.40    2.20
   3  -7  -8    6.50    4.50
   3  -7  -8   12.60    5.10
   3  -7  -8    5.50    2.50
  -3   7   8    7.50    2.50
  -3   7   8    7.50    2.10
  -3   7   8    7.50    2.80
   2  -7  -8  162.58    7.90
   2  -7  -8  165.88    9.70
   2  -7  -8  153.48    7.30
   2  -7  -8  158.08    8.50
  -2   7   8  157.18    5.50
  -2   7   8  169.98    6.90
   1  -7  -8    4.50    2.70
   1  -7  -8    8.00    3.10
   1  -7  -8    8.60    2.60
   1  -7  -8    3.30    2.80
  -1   7   8    3.30    2.70
  -1   7   8    4.40    1.10
  -1   7   8    6.40    3.30
   0  -7  -8  166.18    6.90
   0  -7  -8  159.88    6.60
   0  -7  -8  162.78    8.80
   0  -7  -8  179.88    9.10
   0   7   8  153.88    6.70
   0   7   8  162.88    5.00
   0   7   8  166.18    7.70
  -1  -7  -8  167.48    8.40
  -1  -7  -8  171.88    7.30
  -1  -7  -8  172.98    8.80
  -1  -7  -8  174.78    6.20
   1   7   8  174.38    8.30
   1   7   8  166.58    7.40
   1   7   8  168.88    7.60
   1   7   8  169.98    7.50
  -2  -7  -8  131.29    6.40
  -2  -7  -8  132.69    8.00
  -2  -7  -8  126.19    8.30
   2   7   8  137.09    7.00
   2   7   8  117.59    8.10
   2   7   8  134.89    8.10
   2   7   8  138.09    7.10
  -3  -7  -8  110.09    9.00
  -3  -7  -8  102.89    5.70
  -3  -7  -8   94.19    6.30
   3   7   8   92.79    5.70
   3   7   8  100.49    6.50
   3   7   8   86.09    7.00
  -4  -7  -8   47.00    3.90
  -4  -7  -8   51.59    7.80
  -4  -7  -8   49.60    4.10
   4   7   8   46.50    5.20
   4   7   8   42.90    4.40
   4   7   8   52.99    6.40
   4   7   8   53.29    8.00
  -5  -7  -8   43.70    8.20
   5   7   8   30.80    4.90
   5   7   8   37.00    8.50
  -6  -7  -8    7.50    5.30
  -6  -7  -8   -0.50    5.80
   6   7   8    7.40    8.00
   6   7   8    0.90    5.10
   5  -8  -8   97.99   10.40
   5  -8  -8   79.89    8.70
  -5   8   8   71.49    6.50
  -5   8   8   88.69    5.70
   4  -8  -8   18.00    6.40
   4  -8  -8    6.50    4.20
  -4   8   8    9.10    3.60
  -4   8   8   10.30    2.80
   3  -8  -8   49.60    5.20
   3  -8  -8   52.69    6.40
   3  -8  -8   53.79    5.30
   3  -8  -8   51.19    7.40
  -3   8   8   47.00    4.80
  -3   8   8   62.49    5.20
  -3   8   8   46.70    4.00
   2  -8  -8   54.79    6.00
   2  -8  -8   50.59    4.80
   2  -8  -8   53.99    6.90
   2  -8  -8   57.59    5.00
  -2   8   8   60.19    3.90
  -2   8   8   52.09    4.60
   1  -8  -8   13.20    3.40
   1  -8  -8   20.90    4.20
   1  -8  -8   12.10    3.80
   1  -8  -8   18.90    3.20
  -1   8   8   11.80    3.40
  -1   8   8   18.00    2.20
  -1   8   8   20.60    4.10
   0  -8  -8   88.79    6.80
   0  -8  -8   86.19    5.30
   0  -8  -8   86.39    5.10
   0  -8  -8   83.49    7.00
   0   8   8   86.59    5.60
   0   8   8   79.39    6.40
   0   8   8   82.29    3.60
  -1  -8  -8    4.80    2.80
  -1  -8  -8    2.50    3.90
  -1  -8  -8   -0.30    1.50
  -1  -8  -8    0.60    3.70
   1   8   8   -0.20    2.40
   1   8   8    1.10    2.90
   1   8   8    2.10    2.30
   1   8   8    4.10    2.90
  -2  -8  -8  146.79    8.40
  -2  -8  -8  153.18    7.20
  -2  -8  -8  145.79    8.60
   2   8   8  123.69    7.50
   2   8   8  130.79    8.50
   2   8   8  138.59    8.60
   2   8   8  136.09    8.10
  -3  -8  -8   -9.00    3.10
  -3  -8  -8    2.10    4.70
  -3  -8  -8   -0.50    2.40
  -3  -8  -8    0.80    1.90
   3   8   8    5.80    4.50
   3   8   8   -0.30    2.20
   3   8   8   -1.60    2.90
  -4  -8  -8   57.79    8.40
  -4  -8  -8   55.29    4.40
   4   8   8   43.80    4.70
   4   8   8   38.80    5.70
   4   8   8   44.30    6.50
  -5  -8  -8    6.60    6.50
   5   8   8    8.20    5.40
   5   8   8    6.80    6.80
  -6  -8  -8   14.10    5.70
   6   8   8   14.30    5.90
   6   8   8   18.00    6.30
   4  -9  -8  119.99    9.90
   4  -9  -8  111.79   10.40
  -4   9   8  107.49    5.80
  -4   9   8  114.89    8.10
   3  -9  -8   65.99    8.60
   3  -9  -8   65.39    8.20
   3  -9  -8   68.29    5.90
  -3   9   8   68.39    5.80
  -3   9   8   73.79    5.10
   2  -9  -8   -1.40    5.00
   2  -9  -8    2.00    4.70
   2  -9  -8    3.70    2.90
   2  -9  -8   -2.20    3.00
  -2   9   8    0.90    2.90
  -2   9   8   -0.90    1.20
   1  -9  -8  136.29    9.80
   1  -9  -8  139.09    7.90
   1  -9  -8  133.19    7.00
   1  -9  -8  134.69    9.60
  -1   9   8  130.69    5.10
  -1   9   8  137.89    7.90
  -1   9   8  119.59    6.70
   0  -9  -8   27.50    4.90
   0  -9  -8   29.50    5.70
   0  -9  -8   33.20    4.60
   0  -9  -8   31.60    3.50
   0   9   8   33.70    5.10
   0   9   8   32.20    4.70
   0   9   8   27.00    2.50
  -1  -9  -8  172.08    9.80
  -1  -9  -8  169.88    9.30
  -1  -9  -8  180.28    8.50
   1   9   8  180.68    8.30
   1   9   8  188.08    9.60
  -2  -9  -8   80.59    6.20
  -2  -9  -8   77.59    6.70
  -2  -9  -8   68.49    7.40
   2   9   8   83.59    7.00
   2   9   8   68.69    6.60
   2   9   8   78.69    6.70
  -3  -9  -8    4.10    3.90
  -3  -9  -8   13.90    3.50
   3   9   8   12.40    5.10
   3   9   8    5.80    3.60
   3   9   8    8.70    4.90
  -4  -9  -8   22.60    6.00
  -4  -9  -8   23.70    3.60
   4   9   8   25.00    4.70
   4   9   8   28.00    6.20
  -5  -9  -8   -4.40    6.10
   5   9   8    9.60    5.80
   3 -10  -8   10.40    6.40
   3 -10  -8   -1.70    5.40
  -3  10   8   11.40    4.00
  -3  10   8    5.70    2.70
   2 -10  -8   36.80    6.90
   2 -10  -8   31.10    7.20
   2 -10  -8   38.70    5.30
  -2  10   8   31.70    3.60
  -2  10   8   37.40    4.80
   1 -10  -8   78.89    6.20
   1 -10  -8   90.29    8.30
   1 -10  -8   79.19    5.90
   1 -10  -8   92.89    8.60
  -1  10   8   76.19    6.70
  -1  10   8   93.39    4.90
   0 -10  -8   47.10    7.30
   0 -10  -8   52.59    7.00
   0 -10  -8   54.89    5.50
   0  10   8   64.49    6.30
   0  10   8   48.30    3.50
   0  10   8   58.79    5.60
  -1 -10  -8   42.70    6.10
  -1 -10  -8   46.10    6.10
  -1 -10  -8   48.90    5.10
   1  10   8   52.69    5.90
   1  10   8   41.80    5.20
  -2 -10  -8   -0.20    3.50
  -2 -10  -8   -4.30    3.20
  -2 -10  -8   -2.50    3.90
   2  10   8    6.20    5.30
   2  10   8   -0.20    2.50
  -3 -10  -8   45.80    5.90
  -3 -10  -8   44.00    5.00
   3  10   8   40.20    5.70
   3  10   8   40.20    5.20
   3  10   8   36.90    6.30
  -4 -10  -8   -1.40    3.40
  -4 -10  -8   -3.60    6.60
   4  10   8   -3.60    3.70
   4  10   8    4.30    5.40
  -5 -10  -8   17.70    8.00
   5  10   8   24.20    6.80
   2 -11  -8   29.70    7.30
   2 -11  -8   34.10    5.60
   2 -11  -8   44.30    7.80
  -2  11   8   34.30    3.90
  -2  11   8   44.70    5.30
   1 -11  -8    0.60    5.50
   1 -11  -8   11.50    4.20
   1 -11  -8    2.00    3.80
  -1  11   8    5.60    4.10
  -1  11   8   14.10    4.40
  -1  11   8    9.30    2.50
   0 -11  -8   81.99    7.50
   0 -11  -8   77.59    8.10
   0 -11  -8   60.19    8.50
   0  11   8   75.49    7.10
   0  11   8   73.09    7.20
  -1 -11  -8    1.90    3.40
  -1 -11  -8    4.10    5.70
  -1 -11  -8    1.10    3.70
   1  11   8   -0.30    4.10
   1  11   8   -3.00    4.60
  -2 -11  -8   58.39    6.60
  -2 -11  -8   53.79    7.00
  -2 -11  -8   70.39    6.80
   2  11   8   46.30    5.70
   2  11   8   48.90    7.30
  -3 -11  -8   47.40    5.40
   3  11   8   36.30    5.20
   3  11   8   33.20    5.90
  -4 -11  -8    6.30    3.10
  -4 -11  -8    2.30    6.70
   4  11   8    3.90    5.60
   4  11   8    1.70    4.60
   1 -12  -8  105.49    8.90
   1 -12  -8   72.29    9.30
   1 -12  -8   90.99    8.60
  -1  12   8  135.19    8.20
  -1  12   8   79.29    7.40
   0 -12  -8   29.20    5.90
   0 -12  -8   34.00    7.60
   0 -12  -8   31.30    6.60
   0  12   8   27.40    5.80
   0  12   8   33.40    5.90
  -1 -12  -8    9.40    3.70
  -1 -12  -8   11.20    5.30
  -1 -12  -8   12.90    6.60
   1  12   8   13.50    4.20
   1  12   8   10.80    5.30
  -2 -12  -8   68.89    7.10
  -2 -12  -8   48.30    8.20
   2  12   8   49.00    6.90
   2  12   8   57.59    8.00
  -3 -12  -8   -3.40    3.50
   3  12   8    4.00    4.80
   3  12   8   -4.70    3.80
   2  11  -9   -1.20    5.40
   2  11  -9    2.80    4.40
  -2 -11   9    4.90    3.40
   1  11  -9   28.20    5.00
   1  11  -9   16.30    6.50
  -1 -11   9   30.40    6.00
   0  11  -9   12.00    4.60
   0  11  -9   13.10    4.10
   0 -11   9    8.00    5.10
   3  10  -9    2.60    4.90
   3  10  -9   -3.60    5.90
   3  10  -9   -6.80    3.80
  -3 -10   9    2.50    4.70
   2  10  -9    2.10    3.10
   2  10  -9    7.20    6.00
  -2 -10   9    0.80    3.00
   1  10  -9    3.70    3.90
   1  10  -9    2.50    4.30
  -1 -10   9    4.30    4.40
   0  10  -9   21.30    5.10
   0  10  -9   13.10    4.80
   0 -10   9   15.40    5.30
  -1  10  -9   37.70    5.80
  -1  10  -9   31.50    7.00
   1 -10   9   45.30    6.40
   1 -10   9   45.70    6.80
  -2  10  -9    1.80    3.80
   2 -10   9    0.70    5.60
   2 -10   9   -8.90    4.10
   4   9  -9    8.90    5.50
   4   9  -9   -1.40    7.50
  -4  -9   9   10.20    4.40
   3   9  -9    3.30    4.80
   3   9  -9    9.40    7.40
   3   9  -9    1.90    4.10
  -3  -9   9    1.30    3.60
  -3  -9   9    3.00    3.50
   2   9  -9    9.60    6.60
   2   9  -9   10.20    4.50
   2   9  -9   10.50    4.50
  -2  -9   9   16.70    3.80
  -2  -9   9   13.90    3.90
   1   9  -9   -3.30    2.60
   1   9  -9    1.90    5.60
  -1  -9   9   -2.10    2.60
   0   9  -9   84.99    8.10
   0   9  -9   81.49    6.60
   0  -9   9   86.29    7.20
   0  -9   9   93.69    7.30
  -1   9  -9   28.30    4.40
  -1   9  -9   23.30    6.10
   1  -9   9   24.90    4.70
   1  -9   9   35.80    5.80
   1  -9   9   18.40    5.50
  -2   9  -9   20.40    4.60
   2  -9   9   23.60    5.40
   2  -9   9   23.60    5.50
   2  -9   9   16.10    4.90
  -3   9  -9   13.40    3.50
  -3   9  -9   13.50    3.80
   3  -9   9    9.10    4.90
   3  -9   9   21.30    6.00
   3  -9   9   34.20    5.80
   5   8  -9    6.00    7.60
   5   8  -9   17.50    6.30
  -5  -8   9   11.70    3.90
   4   8  -9   11.40    4.30
   4   8  -9    9.90    5.70
  -4  -8   9    5.40    3.10
   3   8  -9   23.70    8.00
   3   8  -9   32.50    6.10
   3   8  -9   31.10    4.30
  -3  -8   9   26.80    6.20
  -3  -8   9   29.40    5.00
  -3  -8   9   25.40    4.20
   2   8  -9   22.60    4.90
   2   8  -9   18.60    7.20
   2   8  -9   17.90    4.40
  -2  -8   9   11.10    3.60
  -2  -8   9   14.50    4.20
   1   8  -9    1.60    3.50
   1   8  -9    5.90    5.40
  -1  -8   9   -0.50    3.50
   0   8  -9   57.59    7.70
   0   8  -9   69.49    6.40
   0  -8   9   64.89    6.50
   0  -8   9   64.19    6.40
  -1   8  -9    2.70    3.80
  -1   8  -9    6.50    4.90
   1  -8   9    4.90    2.90
   1  -8   9    7.40    4.40
   1  -8   9    1.80    4.20
  -2   8  -9  101.99    9.50
  -2   8  -9  113.99    7.70
   2  -8   9  109.79    9.70
   2  -8   9  105.19    7.90
   2  -8   9  115.69    8.60
  -3   8  -9    3.40    2.60
  -3   8  -9    1.80    3.00
   3  -8   9   -8.80    4.90
   3  -8   9    3.10    3.30
   3  -8   9    3.40    4.10
  -4   8  -9   73.49    5.70
   4  -8   9   58.79    9.30
   5   7  -9    1.40    5.00
   5   7  -9    6.90    4.00
  -5  -7   9    3.10    4.20
   4   7  -9    4.40    4.80
   4   7  -9    4.10    5.00
  -4  -7   9   -1.70    2.60
   3   7  -9    9.00    3.50
   3   7  -9   19.70    5.00
   3   7  -9   20.30    7.30
  -3  -7   9    9.20    3.90
  -3  -7   9   11.80    4.30
  -3  -7   9   12.20    3.20
   2   7  -9   -3.20    5.70
   2   7  -9    3.00    2.50
   2   7  -9    0.70    2.10
  -2  -7   9    3.00    3.20
  -2  -7   9   -2.00    2.60
   1   7  -9    7.90    3.40
   1   7  -9    4.70    5.70
   1   7  -9   13.20    3.30
  -1  -7   9    9.30    3.30
  -1  -7   9   11.00    3.60
   0   7  -9   13.90    3.70
   0   7  -9   17.50    5.50
   0  -7   9   13.70    3.60
   0  -7   9   13.00    3.40
   0  -7   9    9.60    3.70
  -1   7  -9  176.58    8.50
  -1   7  -9  167.68    9.30
   1  -7   9  168.38    9.50
   1  -7   9  179.78    9.20
   1  -7   9  175.68    9.90
  -2   7  -9   17.90    4.10
  -2   7  -9   18.90    5.00
   2  -7   9   30.30    5.90
   2  -7   9   20.50    5.70
   2  -7   9   21.90    4.50
  -3   7  -9   12.40    2.90
  -3   7  -9   17.70    3.60
   3  -7   9   15.40    4.40
   3  -7   9   14.00    6.10
   3  -7   9   17.40    4.40
  -4   7  -9    7.00    2.30
   4  -7   9   13.20    5.50
   4  -7   9   14.90    7.10
   6   6  -9   42.60    7.30
   6   6  -9   27.70    7.80
  -6  -6   9   39.00    7.30
   5   6  -9   -4.70    4.10
  -5  -6   9    4.90    4.50
   4   6  -9   39.10    6.40
  -4  -6   9   40.50    5.80
  -4  -6   9   29.80    5.40
   3   6  -9   78.39    8.60
   3   6  -9   72.99    5.50
   3   6  -9   68.79    5.40
  -3  -6   9   74.09    6.50
  -3  -6   9   74.99    5.30
  -3  -6   9   73.69    6.80
   2   6  -9   50.59    4.80
   2   6  -9   55.69    7.70
  -2  -6   9   57.39    5.10
   1   6  -9  118.19    6.60
   1   6  -9  122.59    8.70
  -1  -6   9  112.19    7.50
  -1  -6   9  129.49    7.10
   0   6  -9    0.80    1.80
   0   6  -9    0.20    2.70
   0   6  -9   -1.60    4.60
   0  -6   9    1.30    1.90
   0  -6   9   -3.60    2.30
   0  -6   9   -0.10    2.50
  -1   6  -9  232.88    9.10
  -1   6  -9  218.48   10.00
  -1   6  -9  208.98    7.50
   1  -6   9  240.78    9.60
   1  -6   9  226.58   10.00
   1  -6   9  231.18   10.10
  -2   6  -9    5.10    4.00
  -2   6  -9    7.60    2.40
  -2   6  -9   11.50    3.30
   2  -6   9    8.30    3.50
   2  -6   9   15.00    5.00
   2  -6   9    5.50    3.30
  -3   6  -9   66.19    5.50
  -3   6  -9   77.59    5.50
  -3   6  -9   71.29    4.80
   3  -6   9   62.59    7.40
   3  -6   9   83.99    8.50
   3  -6   9   71.89    6.10
  -4   6  -9    1.10    2.20
  -4   6  -9    2.80    2.40
   4  -6   9    1.40    5.90
   4  -6   9    8.50    5.60
   4  -6   9   -1.60    3.30
  -5   6  -9   85.99    5.80
   5  -6   9   84.19    9.20
   5  -6   9   67.89    8.70
   6   5  -9    6.90    6.00
  -6  -5   9    5.90    4.90
   5   5  -9  106.49    9.10
  -5  -5   9   95.29    8.30
   4   5  -9   37.50    5.80
  -4  -5   9   44.10    6.00
  -4  -5   9   37.30    5.20
   3   5  -9   31.30    3.70
   3   5  -9   34.50    6.30
   3   5  -9   27.80    3.70
  -3  -5   9   30.40    3.40
  -3  -5   9   36.50    4.90
  -3  -5   9   30.10    4.60
   2   5  -9  102.19    9.00
   2   5  -9   99.49    6.10
   2   5  -9   91.29    5.40
  -2  -5   9  102.39    5.90
  -2  -5   9   91.79    6.10
   1   5  -9   -2.20    4.70
   1   5  -9    0.10    2.40
  -1  -5   9    0.40    2.50
  -1  -5   9   -2.70    2.10
   0   5  -9  112.99    5.50
   0   5  -9  124.39    9.40
   0  -5   9  106.89    6.60
   0  -5   9  115.49    5.90
   0  -5   9  121.69    6.40
  -1   5  -9   28.90    3.80
  -1   5  -9   24.90    5.00
   1  -5   9   27.00    4.20
   1  -5   9   27.50    5.20
   1  -5   9   28.00    3.60
  -2   5  -9  213.58    8.30
  -2   5  -9  206.88    9.30
  -2   5  -9  204.68    7.60
   2  -5   9  206.58    8.80
   2  -5   9  232.48    9.20
   2  -5   9  201.58    9.70
   2  -5   9  220.08   10.50
  -3   5  -9   12.20    3.00
  -3   5  -9   19.60    2.60
  -3   5  -9   20.10    3.60
   3  -5   9   20.20    5.60
   3  -5   9   17.30    3.70
   3  -5   9   13.80    3.70
   3  -5   9   15.80    4.30
  -4   5  -9   16.70    3.80
  -4   5  -9   10.30    2.60
   4  -5   9    9.70    5.80
   4  -5   9   13.40    3.80
   4  -5   9   30.00    6.70
  -5   5  -9    5.70    3.50
  -5   5  -9    8.30    2.60
   5  -5   9    9.50    6.60
   5  -5   9    3.30    4.60
   6   4  -9    5.20    5.60
  -6  -4   9    2.60    3.60
   5   4  -9  119.29    9.20
  -5  -4   9  128.09    8.70
   4   4  -9    2.30    2.60
   4   4  -9   -0.60    4.10
  -4  -4   9    0.50    3.30
  -4  -4   9    7.60    3.30
   3   4  -9  142.29    9.30
   3   4  -9  141.59    6.10
   3   4  -9  137.29    6.60
  -3  -4   9  150.48    7.70
  -3  -4   9  142.39    5.80
  -3  -4   9  137.49    6.90
   2   4  -9  297.47    9.70
   2   4  -9  295.17    9.20
   2   4  -9  286.87   12.00
  -2  -4   9  278.67    9.30
  -2  -4   9  301.77    9.50
   1   4  -9  370.76   12.90
   1   4  -9  364.56   10.40
   1   4  -9  374.46   11.00
  -1  -4   9  390.96   11.20
  -1  -4   9  367.36   12.40
   0   4  -9  368.06   10.70
   0   4  -9  376.16   13.70
   0  -4   9  358.76   10.40
   0  -4   9  388.96   11.40
   0  -4   9  371.56   12.60
  -1   4  -9    2.00    2.80
  -1   4  -9    6.20    2.00
   1  -4   9    2.70    2.00
   1  -4   9   11.00    3.00
   1  -4   9    3.50    2.00
   1  -4   9    6.30    3.00
  -2   4  -9  384.26   11.00
  -2   4  -9  361.36   10.90
  -2   4  -9  384.46   12.80
   2  -4   9  385.56   12.00
   2  -4   9  360.66   12.90
   2  -4   9  376.26   13.00
  -3   4  -9    7.30    2.80
  -3   4  -9   10.50    2.70
  -3   4  -9    9.60    2.00
   3  -4   9    4.30    4.20
   3  -4   9    5.70    2.60
   3  -4   9   12.30    5.60
  -4   4  -9   13.00    2.60
  -4   4  -9   18.90    2.30
  -4   4  -9   18.40    3.90
   4  -4   9   14.90    6.50
   4  -4   9   19.30    3.80
   4  -4   9   12.10    3.30
   4  -4   9    5.90    5.40
  -5   4  -9    0.00    1.90
  -5   4  -9    3.90    3.30
   5  -4   9   -4.70    4.10
   5  -4   9    0.80    5.70
  -6   4  -9   36.70    5.90
   6  -4   9   46.70    8.90
   6  -4   9   40.60    8.70
   6   3  -9   32.50    5.80
  -6  -3   9   35.60    6.60
   5   3  -9   42.60    5.90
   5   3  -9   25.20    4.60
  -5  -3   9   34.10    5.30
  -5  -3   9   26.60    5.00
   4   3  -9  125.29    6.70
   4   3  -9  127.29    9.30
  -4  -3   9  123.49    8.50
  -4  -3   9  117.99    7.00
   3   3  -9  258.47    9.10
   3   3  -9  270.17   10.80
   3   3  -9  274.87    8.40
  -3  -3   9  278.97    8.00
  -3  -3   9  276.27    9.60
  -3  -3   9  261.27   10.70
   2   3  -9   15.00    4.20
   2   3  -9   14.40    3.10
   2   3  -9   10.10    2.50
  -2  -3   9    9.90    3.50
  -2  -3   9   11.40    2.10
  -2  -3   9   16.30    2.60
   1   3  -9  197.48    7.00
   1   3  -9  221.18    9.70
   1   3  -9  208.98    7.40
  -1  -3   9  172.18    4.80
  -1  -3   9  200.48    6.00
  -1  -3   9  203.98    8.10
  -1  -3   9  218.08    7.30
   0   3  -9    8.40    4.30
   0   3  -9   10.80    3.40
   0   3  -9    3.60    2.30
   0  -3   9    6.30    2.80
   0  -3   9    6.00    3.70
   0  -3   9    5.80    1.90
  -1   3  -9  155.28    5.90
  -1   3  -9  162.08    8.80
   1  -3   9  147.79    6.80
   1  -3   9  151.78    8.40
   1  -3   9  145.99    6.90
  -2   3  -9   47.40    3.90
  -2   3  -9   49.00    4.80
   2  -3   9   36.30    4.10
   2  -3   9   48.70    6.20
   2  -3   9   44.80    4.30
  -3   3  -9  111.79    4.50
  -3   3  -9  115.09    5.50
  -3   3  -9  100.69    6.20
   3  -3   9  129.59    9.70
   3  -3   9  102.59    7.50
   3  -3   9  121.99    6.70
  -4   3  -9   21.10    2.80
  -4   3  -9   26.60    2.70
  -4   3  -9   26.10    3.80
   4  -3   9   26.30    5.60
   4  -3   9   24.70    3.50
   4  -3   9   32.00    5.20
  -5   3  -9    4.30    2.50
  -5   3  -9    2.40    1.80
   5  -3   9   -1.30    4.20
   5  -3   9   -3.20    4.50
  -6   3  -9   26.70    4.50
   6  -3   9   15.40    6.00
   6   2  -9   56.39    8.10
  -6  -2   9   39.40    6.80
   5   2  -9    3.60    2.90
   5   2  -9    0.60    3.20
  -5  -2   9    3.20    2.40
  -5  -2   9   -1.80    3.00
  -5  -2   9    6.30    4.20
   4   2  -9  310.27   13.00
   4   2  -9  280.97   10.10
  -4  -2   9  294.87   12.30
  -4  -2   9  284.07    8.60
  -4  -2   9  273.97   10.30
   3   2  -9    4.80    2.00
   3   2  -9    3.40    1.90
   3   2  -9    6.00    3.30
   3   2  -9    1.60    2.00
  -3  -2   9    3.40    1.60
  -3  -2   9    1.50    1.80
  -3  -2   9    3.50    2.00
  -3  -2   9    3.70    1.60
   2   2  -9  269.57    8.90
   2   2  -9  278.57    8.10
   2   2  -9  265.67    7.60
   2   2  -9  259.57   10.40
  -2  -2   9  259.67    9.10
  -2  -2   9  265.27    8.10
  -2  -2   9  265.87    6.90
  -2  -2   9  259.57    7.50
   1   2  -9   16.80    2.60
   1   2  -9   24.00    4.10
   1   2  -9   22.90    3.40
   1   2  -9   26.00    2.80
  -1  -2   9   25.00    4.00
  -1  -2   9   22.60    2.80
  -1  -2   9   20.00    0.80
  -1  -2   9   19.70    1.40
   0   2  -9  626.64   14.80
   0   2  -9  648.24   15.70
   0   2  -9  628.14   16.70
   0  -2   9  635.44   16.90
   0  -2   9  627.54   16.30
   0  -2   9  634.44   15.70
  -1   2  -9  609.44   16.50
  -1   2  -9  594.14   14.30
   1  -2   9  594.64   15.10
   1  -2   9  566.14   16.00
   1  -2   9  605.44   15.80
  -2   2  -9    1.60    2.70
  -2   2  -9    0.10    2.00
   2  -2   9    3.40    2.50
   2  -2   9   -2.10    2.20
   2  -2   9   -0.90    4.50
  -3   2  -9  238.48    6.70
  -3   2  -9  250.37    7.80
  -3   2  -9  251.17    9.40
   3  -2   9  252.47   12.10
   3  -2   9  255.07   10.70
   3  -2   9  263.07    9.10
  -4   2  -9   27.50    2.70
  -4   2  -9   32.10    2.70
  -4   2  -9   25.40    4.10
   4  -2   9   27.90    5.30
   4  -2   9   28.50    5.60
   4  -2   9   28.10    3.80
  -5   2  -9   21.90    4.50
   5  -2   9   12.00    7.40
   5  -2   9   23.80    5.80
  -6   2  -9    3.40    3.60
   6  -2   9   12.40    7.60
   6   1  -9   11.30    5.40
  -6  -1   9    8.40    3.20
  -6  -1   9    5.70    3.50
   5   1  -9  172.08   11.10
   5   1  -9  163.08    8.20
  -5  -1   9  165.38   10.20
  -5  -1   9  158.48    7.20
   4   1  -9   52.39    4.40
   4   1  -9   49.80    4.80
   4   1  -9   50.89    6.30
  -4  -1   9   59.69    5.40
  -4  -1   9   60.19    6.20
  -4  -1   9   57.29    4.10
   3   1  -9  369.46   13.20
   3   1  -9  378.76    9.90
   3   1  -9  375.66   11.50
   3   1  -9  383.26   10.50
  -3  -1   9  365.86    9.90
  -3  -1   9  380.86   12.40
  -3  -1   9  365.86   10.50
   2   1  -9  340.27    9.40
   2   1  -9  321.27    9.00
   2   1  -9  336.27   11.50
   2   1  -9  318.37    9.90
  -2  -1   9  308.97    7.90
  -2  -1   9  336.57   10.40
  -2  -1   9  342.87    8.30
   1   1  -9   41.00    3.50
   1   1  -9   46.70    3.60
   1   1  -9   40.80    4.40
   1   1  -9   41.70    3.30
  -1  -1   9   45.50    4.40
  -1  -1   9   44.70    3.80
  -1  -1   9   36.80    2.00
   0   1  -9  757.22   18.60
   0   1  -9  747.63   17.70
   0   1  -9  759.12   17.40
   0   1  -9  765.82   17.10
   0  -1   9  775.02   19.00
   0  -1   9  730.03   14.40
   0  -1   9  793.32   17.80
   0  -1   9  774.02   18.70
  -1   1  -9  118.69    5.10
  -1   1  -9  127.69    7.00
  -1   1  -9  126.19    6.60
   1  -1   9  121.09    6.80
   1  -1   9  116.79    5.20
   1  -1   9  117.69    7.80
  -2   1  -9  260.27    8.60
  -2   1  -9  255.57    8.00
   2  -1   9  261.97   11.40
   2  -1   9  295.87    9.20
   2  -1   9  250.67    9.50
  -3   1  -9   79.69    4.30
  -3   1  -9   76.09    3.00
  -3   1  -9   77.39    5.50
   3  -1   9   83.69    6.90
   3  -1   9   76.19    6.10
   3  -1   9   90.69    5.40
  -4   1  -9   83.09    5.60
  -4   1  -9   83.89    4.20
  -4   1  -9   85.19    3.60
   4  -1   9   91.69    9.00
   4  -1   9   83.19    5.50
   4  -1   9   83.59    6.90
  -5   1  -9  109.99    7.90
   5  -1   9  119.59    8.70
   5  -1   9  113.79   10.00
  -6   1  -9    9.80    4.20
   6  -1   9    3.70    5.60
   6   0  -9   49.80    8.00
  -6   0   9   49.40    6.20
  -6   0   9   38.90    4.20
   5   0  -9  237.78   12.70
   5   0  -9  231.98   10.00
  -5   0   9  226.98   11.40
  -5   0   9  245.28    9.10
   4   0  -9   11.20    4.00
   4   0  -9   10.90    3.00
   4   0  -9    7.70    2.30
  -4   0   9    7.40    3.50
  -4   0   9    5.90    1.70
   3   0  -9  134.19    7.20
   3   0  -9  136.19    6.40
   3   0  -9  135.49    6.30
   3   0  -9  128.69    5.10
  -3   0   9  126.79    4.50
  -3   0   9  128.09    7.20
  -3   0   9  134.99    5.30
   2   0  -9  106.89    4.60
   2   0  -9  104.69    5.30
   2   0  -9  101.89    5.90
   2   0  -9  118.69    5.70
  -2   0   9  106.29    5.00
  -2   0   9  108.39    4.10
  -2   0   9  107.49    4.90
   1   0  -9   95.59    5.90
   1   0  -9   96.39    5.30
   1   0  -9   98.59    4.40
   1   0  -9  102.09    5.30
  -1   0   9   97.99    3.30
  -1   0   9   90.89    5.40
  -1   0   9   94.59    4.90
   0   0  -9    6.50    2.60
   0   0  -9   10.90    2.20
   0   0  -9   10.40    2.10
   0   0  -9    7.70    2.70
   0   0   9    9.30    0.90
   0   0   9    5.20    3.20
   0   0   9   10.20    2.50
   0   0   9    9.50    2.50
  -1   0  -9  185.78    7.30
  -1   0  -9  185.08    7.30
  -1   0  -9  185.28    7.40
  -1   0  -9  173.78    6.10
   1   0   9  186.98    8.80
   1   0   9  168.48    7.30
   1   0   9  189.68    6.90
  -2   0  -9  636.44   14.70
  -2   0  -9  651.33   15.30
  -2   0  -9  622.64   12.50
   2   0   9  620.44   13.70
   2   0   9  631.44   17.40
   2   0   9  640.54   15.70
   2   0   9  642.84   17.60
  -3   0  -9    7.30    1.10
  -3   0  -9    7.60    2.10
   3   0   9    8.10    1.50
   3   0   9    9.10    5.10
   3   0   9   10.30    3.50
   3   0   9   11.40    2.80
  -4   0  -9  131.89    4.40
  -4   0  -9  141.39    7.10
  -4   0  -9  127.79    4.70
   4   0   9  140.59    9.80
   4   0   9  145.09    9.70
   4   0   9  135.89    6.50
  -5   0  -9    8.60    3.70
   5   0   9   16.80    6.00
   5   0   9   11.00    7.20
  -6   0  -9   20.90    4.20
   6   0   9   16.40    8.50
   6  -1  -9  101.79   10.40
  -6   1   9   82.99    7.60
  -6   1   9   76.69    6.40
   5  -1  -9   15.40    3.80
   5  -1  -9   20.60    5.40
   5  -1  -9   14.20    3.90
  -5   1   9   23.60    4.80
  -5   1   9   19.30    3.10
   4  -1  -9  177.38    8.20
   4  -1  -9  162.38    7.90
   4  -1  -9  157.38    9.60
  -4   1   9  164.08    6.50
  -4   1   9  168.18    8.70
   3  -1  -9    1.20    2.50
   3  -1  -9    6.70    2.90
   3  -1  -9    5.20    1.80
   3  -1  -9    3.10    2.20
  -3   1   9    1.20    1.60
  -3   1   9    7.90    2.30
   2  -1  -9  269.17    8.90
   2  -1  -9  273.97    7.90
   2  -1  -9  255.07    9.10
   2  -1  -9  268.27   10.10
  -2   1   9  265.77    7.80
  -2   1   9  271.07    7.40
   1  -1  -9  305.97   10.00
   1  -1  -9  299.77    8.40
   1  -1  -9  296.57    9.40
   1  -1  -9  286.47    9.30
  -1   1   9  292.47    7.30
  -1   1   9  303.57    9.20
  -1   1   9  300.67    8.70
  -1   1   9  294.87    9.20
   0  -1  -9  164.08    5.80
   0  -1  -9  163.98    6.50
   0  -1  -9  149.29    6.20
   0  -1  -9  162.48    7.00
   0   1   9  147.69    4.20
   0   1   9  165.98    7.20
   0   1   9  160.98    6.20
   0   1   9  150.98    6.40
  -1  -1  -9  566.44   13.50
  -1  -1  -9  582.14   14.10
  -1  -1  -9  541.35   13.10
  -1  -1  -9  555.74   14.50
   1   1   9  543.35   12.90
   1   1   9  552.94   15.00
   1   1   9  562.44   13.70
   1   1   9  548.65   15.10
  -2  -1  -9  305.57    8.30
  -2  -1  -9  297.87    8.50
  -2  -1  -9  321.77    9.90
  -2  -1  -9  310.17    8.60
   2   1   9  299.37    8.10
   2   1   9  306.97    9.50
   2   1   9  315.57   10.80
   2   1   9  310.37   12.00
  -3  -1  -9  295.57    9.80
  -3  -1  -9  302.07    8.30
   3   1   9  295.87   11.50
   3   1   9  295.77    8.10
   3   1   9  304.87    9.50
   3   1   9  293.37   12.70
  -4  -1  -9    1.00    2.20
  -4  -1  -9    5.70    2.00
  -4  -1  -9    4.20    2.20
   4   1   9    4.10    5.50
   4   1   9    2.40    2.40
   4   1   9   -5.00    4.50
  -5  -1  -9   65.79    7.00
  -5  -1  -9   71.39    6.20
   5   1   9   61.09    8.00
   5   1   9   79.79    9.80
  -6  -1  -9   73.19    7.20
   6   1   9   63.89   10.50
  -7  -1  -9   10.60    4.70
   7   1   9    6.70    8.50
   6  -2  -9   27.30    6.70
  -6   2   9   15.40    4.70
  -6   2   9   14.20    3.00
   5  -2  -9   49.20    5.90
   5  -2  -9   76.09    7.90
   5  -2  -9   45.40    5.30
  -5   2   9   57.89    3.90
  -5   2   9   68.49    6.30
  -5   2   9   57.09    5.00
   4  -2  -9  281.67   10.50
   4  -2  -9  289.87   11.00
  -4   2   9  266.57    8.20
  -4   2   9  298.17    9.60
  -4   2   9  281.67   11.10
   3  -2  -9    9.40    2.10
   3  -2  -9    9.60    2.90
   3  -2  -9   12.50    2.50
   3  -2  -9   11.30    3.40
  -3   2   9   10.20    1.70
  -3   2   9   10.50    2.20
  -3   2   9    8.60    2.80
  -3   2   9    8.10    1.80
   2  -2  -9   57.99    5.30
   2  -2  -9   57.99    4.70
   2  -2  -9   57.49    4.90
   2  -2  -9   60.59    3.40
   2  -2  -9   56.19    3.80
  -2   2   9   56.09    2.70
  -2   2   9   60.19    3.80
  -2   2   9   53.09    3.30
   1  -2  -9  153.18    6.50
   1  -2  -9  154.98    5.50
   1  -2  -9  149.88    7.10
   1  -2  -9  146.29    6.70
   1  -2  -9  152.48    5.40
  -1   2   9  151.68    5.90
  -1   2   9  153.98    6.40
  -1   2   9  156.58    5.90
  -1   2   9  146.89    4.80
   0  -2  -9   17.30    2.90
   0  -2  -9   19.30    2.90
   0  -2  -9   20.40    2.40
   0  -2  -9   16.80    2.60
   0  -2  -9   19.00    1.40
   0   2   9   22.70    3.00
   0   2   9   20.40    2.80
   0   2   9   16.60    2.70
   0   2   9   19.90    2.50
  -1  -2  -9    3.30    1.40
  -1  -2  -9    7.20    1.90
  -1  -2  -9    6.70    3.10
  -1  -2  -9    4.70    1.90
  -1  -2  -9    6.30    1.80
   1   2   9    5.30    3.70
   1   2   9    7.50    2.30
   1   2   9    3.30    2.30
   1   2   9    8.20    3.80
  -2  -2  -9   64.89    4.70
  -2  -2  -9   72.29    3.50
  -2  -2  -9   66.39    4.10
  -2  -2  -9   68.39    4.00
  -2  -2  -9   68.49    5.10
   2   2   9   60.69    3.90
   2   2   9   70.09    6.50
   2   2   9   69.59    4.30
   2   2   9   84.59    7.00
  -3  -2  -9  464.45   11.50
  -3  -2  -9  470.95   13.70
   3   2   9  459.55   15.00
   3   2   9  457.55   11.90
   3   2   9  480.75   12.70
   3   2   9  472.95   16.30
  -4  -2  -9   10.00    3.30
  -4  -2  -9    6.70    1.80
  -4  -2  -9    2.60    3.30
   4   2   9    1.20    5.70
   4   2   9    5.80    2.70
   4   2   9    5.40    5.10
   4   2   9    6.30    2.50
  -5  -2  -9   50.79    5.70
  -5  -2  -9   59.99    7.20
   5   2   9   44.50    8.60
   5   2   9   34.90    6.10
  -6  -2  -9   19.20    6.20
  -6  -2  -9   24.80    4.20
   6   2   9   20.00    8.80
  -7  -2  -9    5.30    6.20
  -7  -2  -9   17.40    4.10
   7   2   9    7.40    6.60
   6  -3  -9    5.60    4.70
   6  -3  -9   16.80    5.20
  -6   3   9    1.00    3.00
  -6   3   9    1.80    2.70
  -6   3   9    0.50    2.30
   5  -3  -9  134.69    9.30
  -5   3   9  129.59    8.40
  -5   3   9  129.79    6.10
  -5   3   9  140.79    7.40
   4  -3  -9  157.88    8.10
   4  -3  -9  143.19    8.00
  -4   3   9  144.29    5.50
  -4   3   9  143.79    7.40
  -4   3   9  143.29    6.40
   3  -3  -9  167.48    6.20
   3  -3  -9  178.08    8.10
   3  -3  -9  179.58    7.00
   3  -3  -9  147.29    7.50
  -3   3   9  181.58    5.80
  -3   3   9  191.18    8.00
  -3   3   9  166.28    6.30
  -3   3   9  165.58    5.40
   2  -3  -9    1.90    1.80
   2  -3  -9    7.30    2.70
   2  -3  -9    1.60    2.10
   2  -3  -9   -0.90    3.00
  -2   3   9    2.30    1.20
  -2   3   9    2.40    1.90
  -2   3   9    3.30    1.10
  -2   3   9    5.60    2.10
   1  -3  -9  118.69    6.90
   1  -3  -9  121.79    5.40
   1  -3  -9  115.59    4.90
   1  -3  -9  119.79    5.90
  -1   3   9  110.59    4.50
  -1   3   9  119.69    5.60
  -1   3   9  116.19    3.40
  -1   3   9  117.99    5.30
   0  -3  -9  654.13   15.50
   0  -3  -9  657.13   16.70
   0  -3  -9  635.84   15.40
   0  -3  -9  633.64   15.50
   0  -3  -9  621.14   15.00
   0   3   9  658.53   16.10
   0   3   9  648.64   15.40
   0   3   9  655.93   15.40
   0   3   9  632.54   15.20
  -1  -3  -9   14.10    1.90
  -1  -3  -9   20.60    3.10
  -1  -3  -9   15.80    2.20
  -1  -3  -9   22.90    2.60
  -1  -3  -9   20.70    3.00
   1   3   9   11.70    2.80
   1   3   9   15.90    3.90
   1   3   9   15.50    4.00
   1   3   9   12.30    2.30
  -2  -3  -9  464.35   12.90
  -2  -3  -9  484.25   12.20
  -2  -3  -9  475.05   10.30
  -2  -3  -9  507.85   14.20
  -2  -3  -9  489.35   12.70
   2   3   9  499.25   12.90
   2   3   9  490.35   15.40
   2   3   9  502.85   14.90
   2   3   9  486.85   12.60
  -3  -3  -9  162.78    7.80
  -3  -3  -9  158.58    5.80
   3   3   9  164.68    6.80
   3   3   9  159.38    8.80
   3   3   9  156.18    6.90
   3   3   9  155.68    9.00
  -4  -3  -9   77.39    5.30
  -4  -3  -9   73.39    3.70
  -4  -3  -9   75.69    6.50
   4   3   9   65.19    5.10
   4   3   9   64.49    4.90
   4   3   9   71.09    7.10
   4   3   9   65.19    8.20
  -5  -3  -9    5.70    2.50
  -5  -3  -9    4.80    4.40
   5   3   9   -2.30    6.20
   5   3   9   -1.90    2.90
   5   3   9   -1.40    5.20
  -6  -3  -9   22.70    5.30
  -6  -3  -9   15.40    4.30
   6   3   9   15.00    6.40
  -7  -3  -9   34.70    5.10
  -7  -3  -9   37.20    8.00
   7   3   9   45.30   10.90
   6  -4  -9    4.30    3.70
  -6   4   9    2.30    3.10
  -6   4   9    1.20    2.60
  -6   4   9    2.60    2.60
   5  -4  -9   74.79    7.70
  -5   4   9   67.19    5.80
  -5   4   9   78.39    6.60
  -5   4   9   73.99    5.10
   4  -4  -9   34.30    5.30
   4  -4  -9   28.00    4.40
  -4   4   9   23.10    3.90
  -4   4   9   29.80    3.80
  -4   4   9   31.90    3.20
   3  -4  -9  294.07   11.40
   3  -4  -9  283.97   10.00
   3  -4  -9  271.27    8.60
   3  -4  -9  266.87   10.30
  -3   4   9  272.97    7.90
  -3   4   9  272.77    8.80
  -3   4   9  262.87    9.50
   2  -4  -9  109.79    4.90
   2  -4  -9  116.19    7.40
   2  -4  -9  102.39    5.70
   2  -4  -9  113.89    6.20
  -2   4   9  117.09    5.10
  -2   4   9  105.69    5.30
  -2   4   9  119.79    4.10
  -2   4   9  108.29    5.10
   1  -4  -9   31.90    3.60
   1  -4  -9   36.90    3.40
   1  -4  -9   36.80    3.90
   1  -4  -9   33.30    4.50
  -1   4   9   31.80    3.00
  -1   4   9   31.60    3.20
  -1   4   9   35.40    1.90
   0  -4  -9  364.36   11.90
   0  -4  -9  382.86   11.30
   0  -4  -9  373.96   10.40
   0  -4  -9  370.86   10.60
   0   4   9  370.36    7.60
   0   4   9  373.16   10.50
   0   4   9  371.46   10.50
   0   4   9  378.36   11.00
   0   4   9  370.86   10.60
  -1  -4  -9   51.99    5.00
  -1  -4  -9   46.60    3.10
  -1  -4  -9   45.80    3.60
  -1  -4  -9   42.60    3.60
   1   4   9   63.89    4.90
   1   4   9   41.30    4.30
   1   4   9   49.20    5.00
   1   4   9   52.99    3.70
  -2  -4  -9    9.20    3.60
  -2  -4  -9    3.70    2.00
  -2  -4  -9    5.20    2.80
  -2  -4  -9    3.70    2.50
   2   4   9    5.30    4.40
   2   4   9    6.90    3.20
   2   4   9    5.70    2.60
   2   4   9    9.70    3.40
  -3  -4  -9    1.30    1.90
  -3  -4  -9    1.20    2.90
   3   4   9    0.30    2.30
   3   4   9    0.90    2.40
   3   4   9    3.90    3.30
   3   4   9    2.80    3.40
  -4  -4  -9  137.69    5.50
  -4  -4  -9  141.19    7.00
  -4  -4  -9  133.59    8.90
   4   4   9  133.29   10.60
   4   4   9  132.99    6.70
   4   4   9  135.99    7.30
   4   4   9  153.48   11.30
  -5  -4  -9    2.50    4.70
  -5  -4  -9    1.90    2.30
   5   4   9    2.70    3.60
   5   4   9    3.30    6.80
   5   4   9   -2.40    3.70
  -6  -4  -9   25.90    4.90
  -6  -4  -9   30.40    7.00
   6   4   9   41.00    9.60
  -7  -4  -9   19.80    7.10
  -7  -4  -9    9.20    3.40
   6  -5  -9   97.39    8.80
  -6   5   9  120.99    6.90
  -6   5   9  114.89    8.00
   5  -5  -9    4.30    3.60
  -5   5   9    3.70    1.90
  -5   5   9    3.40    3.10
   4  -5  -9  177.48    9.20
   4  -5  -9  164.38    9.20
   4  -5  -9  162.48   10.20
  -4   5   9  158.48    7.60
  -4   5   9  159.08    7.80
  -4   5   9  157.98    6.50
   3  -5  -9  142.59    7.90
   3  -5  -9  133.69    6.10
   3  -5  -9  146.99    7.70
   3  -5  -9  135.89    7.90
  -3   5   9  128.99    6.20
  -3   5   9  142.79    5.50
  -3   5   9  126.39    6.20
   2  -5  -9   18.60    4.30
   2  -5  -9   22.90    3.10
   2  -5  -9   23.90    3.20
   2  -5  -9   21.10    4.00
  -2   5   9   19.70    2.80
  -2   5   9   19.60    2.90
  -2   5   9   26.30    3.10
  -2   5   9   23.40    2.10
   1  -5  -9    0.70    3.20
   1  -5  -9    6.80    2.40
   1  -5  -9    5.80    2.40
   1  -5  -9    2.60    1.70
  -1   5   9    3.60    1.00
  -1   5   9    4.90    2.80
  -1   5   9    2.50    2.30
  -1   5   9    5.90    1.80
   0  -5  -9  170.88    6.30
   0  -5  -9  158.38    7.50
   0  -5  -9  165.08    6.30
   0  -5  -9  153.48    8.10
   0   5   9  158.98    6.70
   0   5   9  162.38    7.00
   0   5   9  162.68    6.90
   0   5   9  148.19    5.90
   0   5   9  151.88    4.00
  -1  -5  -9  323.37   10.90
  -1  -5  -9  339.87    9.50
  -1  -5  -9  323.57    8.70
  -1  -5  -9  327.97   10.90
  -1  -5  -9  329.87    9.90
   1   5   9  334.97   10.80
   1   5   9  332.97   10.50
   1   5   9  350.46   11.10
   1   5   9  339.67   10.40
  -2  -5  -9   -4.50    3.10
  -2  -5  -9   -1.20    2.00
  -2  -5  -9    3.00    2.80
  -2  -5  -9    2.10    2.00
   2   5   9    0.30    2.40
   2   5   9    2.70    3.40
   2   5   9    2.50    3.80
   2   5   9    2.70    4.10
  -3  -5  -9   98.69    5.10
  -3  -5  -9   94.59    7.20
  -3  -5  -9  101.79    7.40
   3   5   9   89.09    6.60
   3   5   9  105.89    8.70
   3   5   9   93.59    5.20
   3   5   9   97.49    8.10
  -4  -5  -9   75.99    4.50
  -4  -5  -9   68.09    5.10
  -4  -5  -9   67.09    7.40
   4   5   9   75.79    8.50
   4   5   9   72.49    7.80
   4   5   9   80.59    5.60
   4   5   9   79.99    6.30
  -5  -5  -9   17.30    5.70
  -5  -5  -9   19.10    4.00
   5   5   9   17.70    7.50
   5   5   9   17.10    3.80
  -6  -5  -9   12.40    6.10
  -6  -5  -9    6.20    2.80
   6   5   9    4.30    4.70
   6   5   9   13.10    8.50
   5  -6  -9   25.60    6.60
  -5   6   9   26.60    4.40
  -5   6   9   34.90    4.20
   4  -6  -9   44.90    5.60
   4  -6  -9   63.89    7.40
  -4   6   9   64.39    5.60
  -4   6   9   55.99    3.90
   3  -6  -9   10.20    3.50
   3  -6  -9   11.40    3.40
   3  -6  -9   10.00    2.70
   3  -6  -9    6.50    3.10
  -3   6   9    8.00    2.00
  -3   6   9    9.10    2.10
  -3   6   9   11.30    2.50
   2  -6  -9  313.17   11.30
   2  -6  -9  321.67   10.90
   2  -6  -9  303.77   10.10
   2  -6  -9  322.37   12.70
  -2   6   9  327.07    9.80
  -2   6   9  314.97    8.50
  -2   6   9  322.87    9.70
   1  -6  -9    9.30    3.00
   1  -6  -9   14.40    3.90
   1  -6  -9   17.70    3.10
   1  -6  -9   15.60    2.60
  -1   6   9   21.30    3.90
  -1   6   9   15.80    2.60
  -1   6   9   15.20    1.70
  -1   6   9   13.40    2.00
   0  -6  -9  196.58    8.30
   0  -6  -9  214.98    9.50
   0  -6  -9  190.68    7.30
   0  -6  -9  200.88    7.30
   0   6   9  178.68    6.50
   0   6   9  190.18    7.40
   0   6   9  205.08    8.20
   0   6   9  199.78    7.50
   0   6   9  197.68    5.10
  -1  -6  -9  144.99    7.20
  -1  -6  -9  128.79    5.60
  -1  -6  -9  128.49    7.80
  -1  -6  -9  130.99    6.20
   1   6   9  121.89    7.40
   1   6   9  132.09    6.60
   1   6   9  128.79    6.30
   1   6   9  122.29    6.80
  -2  -6  -9    9.40    3.10
  -2  -6  -9    8.20    2.20
  -2  -6  -9    4.00    2.40
   2   6   9    7.60    2.90
   2   6   9    6.40    3.10
   2   6   9    6.50    4.30
   2   6   9    5.70    3.90
  -3  -6  -9   64.19    6.10
  -3  -6  -9   62.79    4.60
  -3  -6  -9   61.89    6.80
   3   6   9   66.29    5.40
   3   6   9   53.09    6.00
   3   6   9   57.59    6.40
   3   6   9   60.09    4.60
  -4  -6  -9    1.10    2.70
  -4  -6  -9    0.40    3.00
  -4  -6  -9   -0.10    1.90
   4   6   9    0.20    2.10
   4   6   9    5.90    5.70
   4   6   9    4.30    3.10
   4   6   9   -2.60    3.40
  -5  -6  -9   42.70    4.60
  -5  -6  -9   51.29    8.20
   5   6   9   45.60    6.20
   5   6   9   63.59    9.90
  -6  -6  -9   -0.70    3.30
  -6  -6  -9    1.00    5.50
   6   6   9   11.90    8.30
   6   6   9    9.30    5.10
   5  -7  -9  112.29   10.40
  -5   7   9  126.39    6.80
  -5   7   9  128.89    8.30
   4  -7  -9   86.29    8.40
   4  -7  -9   81.39    7.80
  -4   7   9   88.29    6.60
  -4   7   9   73.69    5.10
   3  -7  -9  131.19    9.40
   3  -7  -9  129.49    7.90
   3  -7  -9  129.29    9.90
   3  -7  -9  136.39    7.00
  -3   7   9  136.39    6.00
  -3   7   9  142.19    6.80
  -3   7   9  132.39    5.70
   2  -7  -9  169.48    9.90
   2  -7  -9  194.68    8.70
   2  -7  -9  164.08   10.20
   2  -7  -9  189.58    8.00
  -2   7   9  178.88    7.40
  -2   7   9  194.18    6.30
   1  -7  -9   14.40    2.70
   1  -7  -9   14.40    4.60
   1  -7  -9    8.00    3.10
   1  -7  -9   11.60    3.00
  -1   7   9    9.60    1.60
  -1   7   9   10.60    3.20
  -1   7   9   16.10    3.10
   0  -7  -9    8.40    2.50
   0  -7  -9    2.70    2.60
   0  -7  -9    6.20    3.10
   0  -7  -9    4.30    2.70
   0   7   9    3.90    2.30
   0   7   9    4.70    1.10
   0   7   9    6.20    3.10
   0   7   9    4.90    2.60
  -1  -7  -9   -0.40    2.40
  -1  -7  -9    0.70    2.60
  -1  -7  -9   -0.30    1.80
  -1  -7  -9    2.70    3.80
   1   7   9   -1.00    2.70
   1   7   9    1.90    3.40
   1   7   9   -3.50    3.10
   1   7   9    0.20    1.90
  -2  -7  -9  144.89    7.80
  -2  -7  -9  135.79    6.70
   2   7   9  125.79    7.20
   2   7   9  142.19    7.40
   2   7   9  146.69    8.10
   2   7   9  131.59    8.50
  -3  -7  -9   33.20    3.90
  -3  -7  -9   38.90    5.30
  -3  -7  -9   35.90    6.40
   3   7   9   37.00    4.70
   3   7   9   31.50    5.20
   3   7   9   33.10    4.40
   3   7   9   43.50    6.60
  -4  -7  -9   19.50    3.50
  -4  -7  -9   25.90    6.20
  -4  -7  -9   25.10    3.30
   4   7   9   28.40    7.00
   4   7   9   13.30    3.90
   4   7   9   12.10    6.10
   4   7   9   13.90    5.10
  -5  -7  -9   26.70    4.20
  -5  -7  -9   33.10    7.40
   5   7   9   38.50    8.40
   5   7   9   36.10    5.40
  -6  -7  -9    4.70    6.20
  -6  -7  -9    1.50    3.90
   6   7   9   -0.50    5.10
   6   7   9    3.10    7.80
   4  -8  -9    5.50    5.30
   4  -8  -9    3.30    5.60
  -4   8   9    3.10    2.40
  -4   8   9    5.50    2.50
   3  -8  -9   38.20    4.70
   3  -8  -9   32.70    6.40
   3  -8  -9   32.90    6.40
  -3   8   9   38.90    3.70
  -3   8   9   31.60    4.50
   2  -8  -9   26.60    5.90
   2  -8  -9   36.30    4.60
   2  -8  -9   32.10    6.10
   2  -8  -9   21.30    3.90
  -2   8   9   26.70    2.60
  -2   8   9   30.10    4.00
   1  -8  -9   30.70    4.80
   1  -8  -9   32.90    4.00
   1  -8  -9   26.20    5.30
   1  -8  -9   32.40    4.00
  -1   8   9   42.40    5.10
  -1   8   9   31.00    2.70
  -1   8   9   31.90    3.90
   0  -8  -9    1.80    2.70
   0  -8  -9    0.70    1.40
   0  -8  -9   -2.30    3.90
   0  -8  -9   -0.60    3.90
   0   8   9    3.30    3.40
   0   8   9   -2.10    3.00
  -1  -8  -9   71.79    6.50
  -1  -8  -9   73.89    6.90
  -1  -8  -9   71.49    5.60
  -1  -8  -9   61.09    4.20
   1   8   9   64.59    5.50
   1   8   9   73.39    6.50
   1   8   9   73.59    6.00
  -2  -8  -9   50.99    4.90
  -2  -8  -9   45.70    6.30
  -2  -8  -9   51.49    6.00
   2   8   9   47.00    5.20
   2   8   9   50.89    5.40
   2   8   9   36.60    4.50
   2   8   9   51.39    6.00
  -3  -8  -9    6.10    3.00
  -3  -8  -9   -0.50    3.60
  -3  -8  -9    4.10    4.90
   3   8   9   -2.60    4.40
   3   8   9   -0.20    3.20
   3   8   9    6.90    4.70
   3   8   9   -1.60    4.50
  -4  -8  -9   23.80    6.80
  -4  -8  -9   24.40    3.40
   4   8   9   23.10    5.90
   4   8   9   17.40    5.00
   4   8   9   30.80    4.90
   4   8   9   27.40    5.70
  -5  -8  -9    1.10    6.10
   5   8   9   -3.30    5.00
   5   8   9    2.20    6.60
  -6  -8  -9   29.30    8.20
   6   8   9   17.00    5.00
   6   8   9   34.70    9.50
   4  -9  -9  161.28   12.70
   4  -9  -9  157.68   12.20
  -4   9   9  161.78    9.40
   3  -9  -9   59.19    8.20
   3  -9  -9   55.69    7.00
  -3   9   9   52.69    5.70
  -3   9   9   54.99    4.60
   2  -9  -9   36.70    6.80
   2  -9  -9   34.70    4.40
   2  -9  -9   39.00    7.00
   2  -9  -9   32.70    4.60
  -2   9   9   37.10    3.40
  -2   9   9   29.30    4.40
   1  -9  -9   81.79    6.70
   1  -9  -9   70.89    7.10
   1  -9  -9   95.19    7.70
   1  -9  -9   73.99    5.90
  -1   9   9   69.19    4.00
  -1   9   9   86.99    6.70
  -1   9   9   84.69    6.90
   0  -9  -9    0.10    2.10
   0  -9  -9   -2.40    4.30
   0  -9  -9    3.50    4.60
   0  -9  -9    0.20    2.90
   0   9   9    3.90    2.80
   0   9   9    3.40    3.50
  -1  -9  -9   38.40    4.90
  -1  -9  -9   39.70    6.30
  -1  -9  -9   39.60    6.00
   1   9   9   44.80    5.30
   1   9   9   42.20    5.30
  -2  -9  -9    0.60    4.20
  -2  -9  -9    9.10    4.80
  -2  -9  -9    6.20    3.40
   2   9   9   -0.30    4.00
   2   9   9    3.80    3.70
   2   9   9    0.60    4.60
  -3  -9  -9   20.90    6.70
  -3  -9  -9   26.50    4.10
  -3  -9  -9   29.90    5.40
   3   9   9   26.50    6.00
   3   9   9   34.90    5.30
   3   9   9   20.40    4.70
   3   9   9   30.70    6.20
  -4  -9  -9   28.10    4.00
  -4  -9  -9   24.70    6.00
   4   9   9   38.00    6.60
   4   9   9   30.40    7.30
   4   9   9   34.40    5.30
  -5  -9  -9   23.40    7.90
   5   9   9   36.70    8.40
   5   9   9   16.00    4.70
   3 -10  -9    3.30    4.40
   3 -10  -9   -1.90    5.80
  -3  10   9   -1.40    3.30
  -3  10   9    5.20    2.00
   2 -10  -9    6.30    4.00
   2 -10  -9    7.90    4.30
   2 -10  -9    6.20    4.20
  -2  10   9   10.20    2.50
  -2  10   9    1.80    3.30
   1 -10  -9    6.90    5.40
   1 -10  -9    0.70    5.20
   1 -10  -9    5.50    2.80
  -1  10   9    5.40    3.90
  -1  10   9   -1.70    3.60
   0 -10  -9   36.70    6.90
   0 -10  -9   23.00    5.90
   0 -10  -9   28.60    4.30
   0  10   9   30.40    5.40
   0  10   9   38.60    5.60
  -1 -10  -9    1.00    2.40
  -1 -10  -9   -0.70    5.10
  -1 -10  -9   -5.00    4.60
   1  10   9    6.40    4.70
   1  10   9   -0.90    3.80
  -2 -10  -9    9.90    3.70
  -2 -10  -9   12.60    4.90
  -2 -10  -9    7.80    5.30
   2  10   9    4.80    3.10
   2  10   9    1.90    3.50
  -3 -10  -9   60.69    9.50
  -3 -10  -9   40.70    4.50
  -3 -10  -9   29.30    5.50
   3  10   9   31.50    6.10
   3  10   9   31.50    6.70
   3  10   9   38.80    5.20
  -4 -10  -9    0.10    2.80
  -4 -10  -9   -2.30    4.80
   4  10   9   -7.80    3.60
   4  10   9    1.60    4.00
   4  10   9    6.10    5.60
  -5 -10  -9   18.20    8.20
   5  10   9   18.70    6.50
   5  10   9   31.20    6.60
   2 -11  -9   56.99    7.30
   2 -11  -9   77.69    9.50
   2 -11  -9   64.99    6.90
  -2  11   9   65.99    6.30
   1 -11  -9   10.90    5.80
   1 -11  -9    7.30    4.50
   1 -11  -9   12.50    3.70
  -1  11   9   12.80    3.70
  -1  11   9   13.40    4.60
   0 -11  -9   41.00    5.30
   0 -11  -9   48.00    6.80
   0 -11  -9   39.20    6.80
   0  11   9   44.90    6.30
   0  11   9   40.90    6.20
  -1 -11  -9    7.50    5.70
  -1 -11  -9    1.20    3.90
  -1 -11  -9    8.30    3.90
   1  11   9    1.20    3.30
   1  11   9    5.80    4.40
  -2 -11  -9   35.00    4.70
  -2 -11  -9   34.30    5.10
  -2 -11  -9   34.40    6.10
   2  11   9   29.60    4.90
   2  11   9   30.00    5.40
  -3 -11  -9   25.10    4.70
   3  11   9   25.70    6.70
   3  11   9   21.40    4.60
  -4 -11  -9    9.50    3.50
  -4 -11  -9   18.50    8.20
   4  11   9   17.90    6.30
   4  11   9   13.60    5.20
   1 -12  -9    6.50    4.70
   1 -12  -9    7.20    4.60
   1 -12  -9   -2.90    5.30
  -1  12   9    2.80    4.30
   0 -12  -9   12.20    4.60
   0 -12  -9    1.20    5.70
   0 -12  -9    3.60    5.30
   0  12   9    8.20    4.70
   0  12   9    9.50    4.70
  -1 -12  -9   10.30    6.50
  -1 -12  -9    6.90    5.20
  -1 -12  -9   10.30    4.70
   1  12   9   12.30    5.40
   1  12   9    4.30    4.80
  -2 -12  -9   17.20    4.00
  -2 -12  -9   10.40    5.10
   2  12   9   12.30    5.90
   2  12   9   21.50    4.60
  -3 -12  -9    5.80    2.90
   3  12   9    5.10    3.60
   3  12   9   12.50    6.20
   3  10 -10    1.50    4.60
   3  10 -10    0.00    4.20
  -3 -10  10   -0.10    3.60
   2  10 -10   42.40    7.10
   2  10 -10   44.60    6.40
  -2 -10  10   39.20    5.90
   1  10 -10    8.60    6.00
   1  10 -10    1.10    4.60
  -1 -10  10    8.80    4.70
   0  10 -10   51.69    6.10
   0  10 -10   50.19    7.70
   0 -10  10   44.60    6.90
  -1  10 -10   20.00    5.10
  -1  10 -10   26.00    5.50
   1 -10  10   20.90    5.80
   4   9 -10   15.30    8.30
   4   9 -10   16.60    5.90
  -4  -9  10    1.30    4.10
   3   9 -10   -2.10    7.10
   3   9 -10    8.50    3.80
   3   9 -10    9.30    3.40
  -3  -9  10    8.60    3.90
  -3  -9  10    5.90    4.00
   2   9 -10   27.90    5.30
   2   9 -10   21.80    7.50
  -2  -9  10   23.40    5.00
  -2  -9  10   19.40    4.40
   1   9 -10    3.80    5.70
   1   9 -10   -0.10    4.00
  -1  -9  10    2.90    4.10
   0   9 -10   16.70    6.20
   0   9 -10   26.30    5.40
   0  -9  10   24.40    5.60
   0  -9  10   27.00    5.60
  -1   9 -10   -0.80    4.20
  -1   9 -10    5.50    5.20
   1  -9  10   10.00    3.60
   1  -9  10    9.60    3.70
  -2   9 -10   17.50    3.60
   2  -9  10   18.90    5.50
   2  -9  10   26.90    6.60
   2  -9  10   23.30    5.50
  -3   9 -10    3.70    2.30
  -3   9 -10   -0.50    3.30
   3  -9  10    8.70    4.90
   3  -9  10    7.30    4.90
   3  -9  10   12.80    3.80
   4   8 -10    8.80    6.00
   4   8 -10   21.90    6.00
  -4  -8  10    6.80    4.60
   3   8 -10   34.30    8.90
   3   8 -10   34.30    6.00
   3   8 -10   37.50    5.40
  -3  -8  10   31.50    4.50
  -3  -8  10   32.20    5.40
   2   8 -10    1.40    4.90
   2   8 -10   -4.20    2.50
   2   8 -10    3.50    4.10
  -2  -8  10   -0.90    2.90
  -2  -8  10    1.30    3.70
   1   8 -10   37.50    6.20
   1   8 -10   43.90    5.80
  -1  -8  10   41.80    5.20
   0   8 -10    4.80    5.40
   0   8 -10   -2.20    3.50
   0  -8  10    1.20    3.70
   0  -8  10    4.40    4.40
  -1   8 -10   67.79    8.30
  -1   8 -10   68.69    6.50
   1  -8  10   59.09    7.80
   1  -8  10   79.59    8.00
   1  -8  10   90.39    7.90
  -2   8 -10   35.50    5.20
  -2   8 -10   26.20    6.10
   2  -8  10   32.40    5.00
   2  -8  10   34.80    5.40
   2  -8  10   30.30    6.40
  -3   8 -10    7.70    3.40
  -3   8 -10    5.60    2.80
   3  -8  10    3.60    3.20
   3  -8  10    5.90    4.90
   3  -8  10   12.90    6.30
   5   7 -10    6.70    5.00
   5   7 -10   -7.10    7.00
  -5  -7  10    3.10    4.40
   4   7 -10   78.19    8.00
   4   7 -10   46.50    9.20
  -4  -7  10   65.29    7.50
   3   7 -10   30.00    4.70
   3   7 -10   24.60    5.20
   3   7 -10   17.10    6.10
  -3  -7  10   24.10    4.90
  -3  -7  10   11.20    3.30
   2   7 -10   34.20    4.70
   2   7 -10   30.70    7.90
   2   7 -10   41.30    5.30
  -2  -7  10   45.80    5.40
  -2  -7  10   38.60    4.70
   1   7 -10   21.30    4.10
   1   7 -10   15.30    6.50
   1   7 -10   15.00    3.40
  -1  -7  10   21.30    4.50
  -1  -7  10   20.40    4.80
   0   7 -10   11.40    3.80
   0   7 -10    8.90    5.50
   0  -7  10    9.50    3.90
   0  -7  10    9.40    3.50
  -1   7 -10  107.19    9.40
  -1   7 -10  119.19    7.60
   1  -7  10  120.59    9.00
   1  -7  10  104.59    8.20
   1  -7  10  103.99    8.00
  -2   7 -10   26.70    5.50
  -2   7 -10   19.30    4.40
   2  -7  10   25.90    4.30
   2  -7  10   26.60    5.80
   2  -7  10   21.70    5.80
  -3   7 -10   16.20    3.20
  -3   7 -10   22.80    4.00
   3  -7  10   25.20    6.70
   3  -7  10   16.60    5.90
   3  -7  10   15.10    4.70
  -4   7 -10    3.30    2.60
   4  -7  10   11.30    4.30
   4  -7  10   20.40    7.20
   5   6 -10   28.60    7.70
  -5  -6  10   45.90    6.80
   4   6 -10   39.80    8.30
  -4  -6  10   50.39    6.90
   3   6 -10    6.70    3.30
   3   6 -10    8.60    4.90
   3   6 -10    3.50    4.50
  -3  -6  10    9.40    4.00
  -3  -6  10    9.40    3.00
   2   6 -10   64.29    4.90
   2   6 -10   65.99    8.50
  -2  -6  10   71.39    5.90
   1   6 -10    2.60    4.10
   1   6 -10   -0.50    2.90
  -1  -6  10    5.10    2.80
  -1  -6  10    6.90    3.50
   0   6 -10   47.70    6.10
   0   6 -10   40.60    4.70
   0  -6  10   44.00    5.20
   0  -6  10   38.40    4.90
  -1   6 -10   21.40    2.70
  -1   6 -10   22.20    5.20
  -1   6 -10   30.20    3.80
   1  -6  10   23.70    4.20
   1  -6  10   16.50    4.10
   1  -6  10   30.10    4.80
  -2   6 -10   33.00    3.50
  -2   6 -10   33.20    5.50
  -2   6 -10   38.20    4.60
   2  -6  10   36.90    5.10
   2  -6  10   34.00    5.10
   2  -6  10   45.70    5.80
  -3   6 -10   91.79    6.40
  -3   6 -10   92.59    5.40
  -3   6 -10   86.29    6.30
   3  -6  10  101.69    9.20
   3  -6  10  107.29   10.70
   3  -6  10   94.49    7.50
   3  -6  10  109.39    9.50
  -4   6 -10   -1.80    2.80
  -4   6 -10    1.40    2.20
   4  -6  10   -0.20    3.40
   4  -6  10    4.90    6.00
   4  -6  10    6.20    5.50
   5  -6  10   62.69    8.50
   5  -6  10   66.59    9.00
   6   5 -10   -7.10    5.70
  -6  -5  10    3.60    5.30
   5   5 -10  109.79   10.60
  -5  -5  10   89.09    8.70
   4   5 -10    0.40    5.20
  -4  -5  10    3.40    2.80
   3   5 -10   18.30    4.70
   3   5 -10   15.20    3.20
   3   5 -10   18.40    3.60
  -3  -5  10   21.60    3.30
  -3  -5  10   23.10    3.90
   2   5 -10   17.80    3.30
   2   5 -10   20.90    3.90
   2   5 -10   17.60    5.80
  -2  -5  10   22.70    3.80
   1   5 -10   38.50    4.30
   1   5 -10   37.60    6.60
   1   5 -10   44.50    4.90
  -1  -5  10   48.00    4.40
  -1  -5  10   45.20    5.70
   0   5 -10    3.20    5.10
   0   5 -10    0.60    2.60
   0  -5  10    6.70    3.10
   0  -5  10    1.20    2.50
   0  -5  10    5.80    2.40
  -1   5 -10    0.80    4.20
  -1   5 -10    2.80    2.90
   1  -5  10    1.00    3.00
   1  -5  10   -0.80    3.90
   1  -5  10    0.00    2.80
  -2   5 -10  166.28    9.50
  -2   5 -10  156.48    6.90
  -2   5 -10  185.78    7.80
   2  -5  10  182.28   10.50
   2  -5  10  173.08    8.60
   2  -5  10  201.78   10.10
   2  -5  10  169.28    7.80
  -3   5 -10   43.20    4.60
  -3   5 -10   48.10    3.30
  -3   5 -10   53.69    4.70
   3  -5  10   47.20    5.20
   3  -5  10   35.70    5.50
   3  -5  10   43.60    6.00
   3  -5  10   48.00    5.00
  -4   5 -10   21.20    3.50
  -4   5 -10    6.80    3.70
  -4   5 -10   22.80    2.70
   4  -5  10   29.10    4.30
   4  -5  10    9.70    6.10
   4  -5  10   21.50    6.70
  -5   5 -10    6.90    3.80
   5  -5  10   19.50    6.80
   5  -5  10    1.60    6.20
   6   4 -10   22.00    6.90
  -6  -4  10   15.20    5.70
   5   4 -10   39.40    7.20
  -5  -4  10   41.60    5.80
   4   4 -10   52.09    7.40
   4   4 -10   42.40    4.60
  -4  -4  10   55.99    6.80
   3   4 -10   29.20    3.80
   3   4 -10   33.90    3.80
   3   4 -10   24.00    4.70
  -3  -4  10   26.40    3.30
  -3  -4  10   32.20    5.00
   2   4 -10   13.90    2.80
   2   4 -10   13.70    2.50
   2   4 -10   15.10    4.80
  -2  -4  10   10.30    3.00
   1   4 -10   61.49    7.10
   1   4 -10   61.99    4.90
   1   4 -10   61.99    4.80
  -1  -4  10   54.29    4.20
  -1  -4  10   61.39    5.90
   0   4 -10   28.70    4.80
   0   4 -10   25.90    3.10
   0  -4  10   20.90    2.90
   0  -4  10   21.00    3.10
   0  -4  10   22.80    4.00
  -1   4 -10   10.10    4.50
  -1   4 -10   13.40    2.90
   1  -4  10    8.80    4.10
   1  -4  10   11.00    3.10
   1  -4  10   13.80    3.30
  -2   4 -10  136.49    7.30
  -2   4 -10  124.69    6.40
   2  -4  10  131.99    7.80
   2  -4  10  129.79    8.10
   2  -4  10  133.69    8.20
  -3   4 -10   45.20    4.20
  -3   4 -10   41.20    3.20
  -3   4 -10   39.70    4.70
  -3   4 -10   49.40    5.50
   3  -4  10   42.10    7.10
   3  -4  10   38.40    6.00
   3  -4  10   48.00    5.00
  -4   4 -10   93.49    4.80
  -4   4 -10   98.79    6.40
   4  -4  10   98.29    7.80
   4  -4  10   96.09    9.90
   4  -4  10   91.89    9.00
   4  -4  10   94.79    6.70
  -5   4 -10   -5.00    2.90
   5  -4  10   -8.00    5.40
   5  -4  10   -2.00    6.70
   6   3 -10   35.70    6.40
  -6  -3  10   26.70    6.70
   5   3 -10    1.90    5.00
  -5  -3  10    1.00    2.70
   4   3 -10  207.08   11.70
   4   3 -10  194.48    8.50
  -4  -3  10  216.58   11.10
   3   3 -10   22.30    3.20
   3   3 -10   17.90    3.00
   3   3 -10   19.30    3.90
  -3  -3  10   19.00    4.10
  -3  -3  10   27.60    3.10
   2   3 -10    1.80    2.70
   2   3 -10    5.30    1.90
   2   3 -10    2.10    3.80
  -2  -3  10    2.80    2.20
  -2  -3  10    2.20    2.30
   1   3 -10   13.30    2.70
   1   3 -10    8.30    3.30
   1   3 -10   12.60    4.50
  -1  -3  10   15.40    3.10
  -1  -3  10   13.50    3.20
   0   3 -10   52.49    3.70
   0   3 -10   59.69    6.50
   0   3 -10   49.70    4.90
   0  -3  10   51.09    3.50
   0  -3  10   48.80    4.60
   0  -3  10   49.20    4.90
  -1   3 -10   81.59    7.60
  -1   3 -10   88.69    5.10
   1  -3  10   78.39    5.60
   1  -3  10   83.69    6.20
   1  -3  10   74.69    6.00
  -2   3 -10    5.80    3.30
  -2   3 -10    7.50    2.10
   2  -3  10    9.70    4.80
   2  -3  10    8.30    3.20
   2  -3  10    4.40    2.60
  -3   3 -10  279.57    9.00
  -3   3 -10  282.37   10.70
  -3   3 -10  279.07    7.70
  -3   3 -10  291.97   10.60
   3  -3  10  278.27   10.80
   3  -3  10  291.97   13.60
   3  -3  10  282.77   10.60
  -4   3 -10   11.80    3.10
  -4   3 -10    6.90    2.20
  -4   3 -10   13.40    2.10
   4  -3  10   16.20    5.20
   4  -3  10    7.90    3.50
   4  -3  10    5.70    2.60
  -5   3 -10   31.50    5.10
   5  -3  10   32.70    8.20
   5  -3  10   20.50    4.50
  -6   3 -10    2.30    2.80
   6  -3  10   19.00    8.40
   6   2 -10   30.60    7.20
  -6  -2  10   16.10    5.50
   5   2 -10   12.80    3.70
   5   2 -10   19.70    4.70
  -5  -2  10   17.20    5.10
  -5  -2  10    6.40    2.70
   4   2 -10  262.37   12.60
   4   2 -10  278.07   10.30
  -4  -2  10  265.47   12.30
  -4  -2  10  269.77    8.60
   3   2 -10   12.70    4.10
   3   2 -10   13.60    2.50
   3   2 -10   11.80    3.10
  -3  -2  10   11.20    2.60
  -3  -2  10   14.20    2.10
  -3  -2  10    9.60    2.80
   2   2 -10   74.49    6.50
   2   2 -10   68.29    4.00
   2   2 -10   69.69    4.60
   2   2 -10   68.09    4.30
  -2  -2  10   70.79    4.40
  -2  -2  10   69.29    5.70
  -2  -2  10   70.99    3.10
   1   2 -10  348.57   11.70
   1   2 -10  356.36   10.00
   1   2 -10  338.77   10.60
   1   2 -10  358.16    9.80
  -1  -2  10  359.76   11.70
  -1  -2  10  350.26   10.70
   0   2 -10  217.28    9.50
   0   2 -10  202.78    8.30
   0   2 -10  197.68    6.90
   0  -2  10  198.78    7.80
   0  -2  10  192.28    7.80
   0  -2  10  193.58    8.20
  -1   2 -10  323.07    9.50
  -1   2 -10  316.47   11.70
   1  -2  10  311.27   10.60
   1  -2  10  314.17   10.20
   1  -2  10  315.07   11.90
  -2   2 -10    6.90    2.50
  -2   2 -10    5.00    2.90
   2  -2  10    6.80    4.80
   2  -2  10   -0.70    1.70
   2  -2  10    5.00    2.70
  -3   2 -10  187.58    8.40
  -3   2 -10  180.58    6.80
  -3   2 -10  182.68    7.80
   3  -2  10  184.58    7.60
   3  -2  10  174.38    8.70
   3  -2  10  169.18    9.80
  -4   2 -10    6.30    3.40
  -4   2 -10    5.90    2.50
   4  -2  10   -2.00    6.00
   4  -2  10    3.50    3.00
   4  -2  10    6.60    4.60
  -5   2 -10   38.60    5.00
   5  -2  10   27.20    6.10
   5  -2  10   35.50    8.50
  -6   2 -10    0.20    2.60
   6  -2  10   -4.80    7.00
   6   1 -10   11.80    4.40
  -6  -1  10   10.10    3.50
  -6  -1  10    6.90    5.00
   5   1 -10   46.10    5.30
   5   1 -10   58.89    7.80
  -5  -1  10   53.69    6.10
  -5  -1  10   47.20    4.50
   4   1 -10   23.10    5.30
   4   1 -10   19.90    3.90
  -4  -1  10   18.00    2.80
  -4  -1  10   15.60    3.70
   3   1 -10  189.28    8.20
   3   1 -10  189.48    9.90
   3   1 -10  180.88    7.00
   3   1 -10  181.58    6.60
  -3  -1  10  204.48    9.40
  -3  -1  10  182.88    6.30
  -3  -1  10  191.68    6.30
   2   1 -10  153.18    6.10
   2   1 -10  145.69    7.90
   2   1 -10  139.29    5.70
   2   1 -10  148.29    6.90
  -2  -1  10  142.59    4.80
  -2  -1  10  156.68    7.10
   1   1 -10   45.70    3.20
   1   1 -10   44.90    3.80
   1   1 -10   48.60    4.00
   1   1 -10   46.70    4.90
  -1  -1  10   43.80    2.20
  -1  -1  10   44.40    3.60
  -1  -1  10   49.20    4.90
   0   1 -10   94.89    4.80
   0   1 -10   97.39    6.10
   0   1 -10   86.39    5.40
   0   1 -10   98.39    5.70
   0  -1  10   96.59    6.70
   0  -1  10   95.59    5.50
   0  -1  10  100.69    5.40
   0  -1  10   93.09    2.30
  -1   1 -10   66.99    4.30
  -1   1 -10   61.69    5.10
  -1   1 -10   65.49    6.30
   1  -1  10   59.79    5.40
   1  -1  10   69.29    6.60
   1  -1  10   58.29    4.70
  -2   1 -10   82.59    4.80
  -2   1 -10   85.59    5.50
  -2   1 -10   81.59    2.70
   2  -1  10   85.29    5.50
   2  -1  10   82.19    6.60
   2  -1  10   77.69    7.50
  -3   1 -10   21.60    1.80
  -3   1 -10   22.10    3.00
  -3   1 -10   16.50    2.80
   3  -1  10   21.30    5.90
   3  -1  10   14.20    2.60
   3  -1  10   18.90    5.00
  -4   1 -10  121.29    7.10
   4  -1  10  127.09    9.60
   4  -1  10  135.59    9.60
   4  -1  10  128.79    6.90
  -5   1 -10    0.40    3.40
   5  -1  10   -1.80    5.10
   5  -1  10   -3.50    6.90
  -6   1 -10    3.20    3.20
   6  -1  10   10.50    8.20
   6   0 -10  115.09   10.90
  -6   0  10   94.89    8.50
  -6   0  10   99.89    6.80
   5   0 -10   75.99    7.90
   5   0 -10   58.99    5.40
  -5   0  10   75.89    5.60
  -5   0  10   68.99    7.30
   4   0 -10   50.59    6.60
   4   0 -10   41.00    4.30
   4   0 -10   42.90    4.40
  -4   0  10   49.40    5.80
  -4   0  10   44.20    3.90
   3   0 -10  382.66   10.50
   3   0 -10  392.66   12.40
   3   0 -10  425.06   14.40
   3   0 -10  397.56   11.80
  -3   0  10  405.36   13.20
  -3   0  10  404.46   10.50
   2   0 -10    4.90    2.60
   2   0 -10    4.60    2.70
   2   0 -10    4.00    1.90
   2   0 -10    4.60    3.20
  -2   0  10    6.80    2.30
  -2   0  10    4.00    1.40
  -2   0  10    3.00    2.30
   1   0 -10  395.96   12.10
   1   0 -10  391.66   10.40
   1   0 -10  392.96   11.10
   1   0 -10  387.56   11.00
  -1   0  10  385.56   10.60
  -1   0  10  376.06    8.80
  -1   0  10  387.26   11.60
   0   0 -10  168.18    6.60
   0   0 -10  162.48    7.20
   0   0 -10  167.58    6.10
   0   0 -10  165.58    7.00
   0   0  10  168.08    7.80
   0   0  10  159.88    4.10
   0   0  10  159.48    6.70
   0   0  10  169.78    7.10
  -1   0 -10  521.25   14.00
  -1   0 -10  523.55   12.80
  -1   0 -10  519.35   13.90
   1   0  10  556.24   13.90
   1   0  10  496.15   10.00
   1   0  10  514.75   14.80
   1   0  10  502.25   14.70
  -2   0 -10  274.67    6.10
  -2   0 -10  291.67    9.10
  -2   0 -10  296.37    8.50
   2   0  10  296.27   12.10
   2   0  10  296.37    9.60
   2   0  10  296.67   10.60
  -3   0 -10    3.90    2.10
  -3   0 -10    3.60    1.90
   3   0  10   -2.30    3.60
   3   0  10    3.70    2.00
   3   0  10    1.50    3.10
  -4   0 -10  128.89    7.20
   4   0  10  130.19    6.80
   4   0  10  127.69   10.00
   4   0  10  146.39   11.60
  -5   0 -10    5.30    3.70
   5   0  10    4.30    5.20
   5   0  10    1.80    5.60
  -6   0 -10   12.70    3.70
   6   0  10   19.30    8.70
   6  -1 -10   67.89    9.00
  -6   1  10   51.29    5.00
  -6   1  10   38.50    5.80
   5  -1 -10   21.20    5.90
   5  -1 -10   10.50    4.20
   5  -1 -10   13.10    4.10
  -5   1  10   16.60    3.50
  -5   1  10   13.20    4.50
   4  -1 -10  157.08    8.00
   4  -1 -10  154.38    9.80
   4  -1 -10  135.19    7.60
  -4   1  10  145.39    6.50
  -4   1  10  146.09    8.60
   3  -1 -10  160.38    9.00
   3  -1 -10  150.18    7.50
   3  -1 -10  169.88    7.80
   3  -1 -10  152.98    5.90
  -3   1  10  153.58    6.00
  -3   1  10  168.18    7.80
   2  -1 -10  444.66   12.80
   2  -1 -10  459.85   11.60
   2  -1 -10  428.66   12.50
   2  -1 -10  449.76   13.70
  -2   1  10  449.26   11.60
  -2   1  10  433.56   11.80
  -2   1  10  442.96   10.90
   1  -1 -10  376.36   11.30
   1  -1 -10  380.26   11.60
   1  -1 -10  378.16   10.10
   1  -1 -10  365.06   10.90
  -1   1  10  368.96    8.90
  -1   1  10  382.56   11.50
  -1   1  10  388.96   11.10
  -1   1  10  375.06   10.40
   0  -1 -10   47.50    4.60
   0  -1 -10   56.39    4.40
   0  -1 -10   49.70    4.40
   0  -1 -10   50.09    3.30
   0   1  10   63.89    5.30
   0   1  10   53.69    4.30
   0   1  10   51.19    2.20
   0   1  10   55.99    4.50
  -1  -1 -10  260.97    8.50
  -1  -1 -10  260.07    8.00
  -1  -1 -10  266.57    8.60
  -1  -1 -10  273.37    9.50
   1   1  10  256.07   10.50
   1   1  10  261.77    8.70
   1   1  10  248.98    9.30
  -2  -1 -10    5.00    2.20
  -2  -1 -10    6.10    3.20
  -2  -1 -10    4.90    2.20
  -2  -1 -10    3.80    1.50
   2   1  10    1.90    3.00
   2   1  10    7.30    2.00
   2   1  10   -0.10    4.50
   2   1  10   10.50    2.80
  -3  -1 -10  163.58    6.90
  -3  -1 -10  171.58    6.20
   3   1  10  162.88    8.90
   3   1  10  167.48    6.80
   3   1  10  157.78   10.50
   3   1  10  157.98    5.60
  -4  -1 -10   40.40    4.50
  -4  -1 -10   28.30    4.40
  -4  -1 -10   34.40    3.20
   4   1  10   31.70    7.40
   4   1  10   39.00    4.30
   4   1  10   23.40    6.10
  -5  -1 -10   40.80    5.00
  -5  -1 -10   39.60    5.30
   5   1  10   24.40    6.20
   5   1  10   31.40    7.00
  -6  -1 -10   20.60    5.10
   6   1  10   17.70    8.90
   6  -2 -10   23.50    6.50
  -6   2  10   15.10    3.90
  -6   2  10   16.00    5.00
   5  -2 -10  104.79    9.90
   5  -2 -10   75.49    7.00
  -5   2  10   86.29    6.90
  -5   2  10   79.59    5.30
   4  -2 -10  275.27   11.20
   4  -2 -10  274.37   10.60
   4  -2 -10  285.17   13.20
  -4   2  10  287.67    8.50
  -4   2  10  296.77   11.30
  -4   2  10  293.47    9.70
   3  -2 -10   49.60    3.90
   3  -2 -10   50.49    5.20
   3  -2 -10   42.20    4.50
   3  -2 -10   46.10    5.60
  -3   2  10   42.10    2.90
  -3   2  10   41.80    3.60
  -3   2  10   49.90    5.00
   2  -2 -10  435.16   13.10
   2  -2 -10  410.56   13.30
   2  -2 -10  431.36   12.50
   2  -2 -10  420.16   11.20
  -2   2  10  445.66   11.40
  -2   2  10  428.26   10.80
   1  -2 -10    3.00    2.60
   1  -2 -10    0.80    2.30
   1  -2 -10    0.90    1.30
   1  -2 -10   -1.20    2.00
  -1   2  10    0.10    2.30
  -1   2  10   -1.00    2.10
  -1   2  10   -0.10    1.00
  -1   2  10    2.10    1.60
   0  -2 -10  251.17    8.20
   0  -2 -10  256.77    9.40
   0  -2 -10  250.07    8.50
   0  -2 -10  252.27    8.00
   0   2  10  263.87    9.10
   0   2  10  257.17    8.50
   0   2  10  251.77    9.30
  -1  -2 -10   65.99    4.10
  -1  -2 -10   66.19    5.30
  -1  -2 -10   67.29    2.80
  -1  -2 -10   72.29    5.10
  -1  -2 -10   73.79    4.30
   1   2  10   79.19    6.40
   1   2  10   65.39    4.20
   1   2  10   64.29    4.60
   1   2  10   67.89    5.80
  -2  -2 -10  249.88    7.70
  -2  -2 -10  235.18    7.20
  -2  -2 -10  249.88    8.90
  -2  -2 -10  241.98    7.60
  -2  -2 -10  238.38    9.30
   2   2  10  238.48    8.10
   2   2  10  251.87   10.30
   2   2  10  229.78    9.70
   2   2  10  231.28    7.20
  -3  -2 -10  249.38    7.80
  -3  -2 -10  245.78    9.00
   3   2  10  257.67    8.00
   3   2  10  247.98   12.30
   3   2  10  251.47   11.10
   3   2  10  237.18    8.70
  -4  -2 -10   -3.30    3.00
  -4  -2 -10    6.30    3.30
  -4  -2 -10    0.40    1.80
   4   2  10    2.40    2.50
   4   2  10    3.50    4.30
   4   2  10    1.40    5.00
   4   2  10    2.70    2.60
  -5  -2 -10   54.59    6.30
  -5  -2 -10   47.60    6.30
   5   2  10   46.60    7.60
   5   2  10   48.40    6.70
  -6  -2 -10    2.00    2.90
  -6  -2 -10   -5.00    4.50
   6   2  10    6.00    8.20
   6  -3 -10    7.80    4.80
  -6   3  10    7.40    3.40
  -6   3  10   -0.90    3.10
   5  -3 -10   58.69    6.70
   5  -3 -10   91.39    9.90
  -5   3  10   68.49    5.60
  -5   3  10   65.19    4.80
  -5   3  10   54.79    6.10
   4  -3 -10   -2.20    2.90
   4  -3 -10   -2.90    3.60
  -4   3  10    0.40    2.10
  -4   3  10    0.50    2.80
  -4   3  10    1.50    1.30
   3  -3 -10  360.96   10.60
   3  -3 -10  388.16   13.30
   3  -3 -10  388.06   12.70
  -3   3  10  383.96    9.70
  -3   3  10  374.86   12.10
  -3   3  10  405.36   11.10
   2  -3 -10   22.70    3.10
   2  -3 -10   30.60    3.20
   2  -3 -10   31.10    3.30
   2  -3 -10   26.60    4.40
  -2   3  10   25.00    2.40
  -2   3  10   26.40    2.00
  -2   3  10   28.10    3.10
  -2   3  10   27.20    3.50
   1  -3 -10  283.97   10.50
   1  -3 -10  322.77    9.30
   1  -3 -10  288.47    9.90
   1  -3 -10  292.47    9.00
   1  -3 -10  293.87    9.80
  -1   3  10  311.87    8.20
  -1   3  10  295.87    8.70
  -1   3  10  318.07    9.40
  -1   3  10  312.37    9.70
   0  -3 -10  209.88    8.30
   0  -3 -10  204.48    7.10
   0  -3 -10  210.48    7.50
   0  -3 -10  218.58    8.00
   0   3  10  222.08    8.00
   0   3  10  211.38    7.90
   0   3  10  228.78    7.90
   0   3  10  214.98    7.40
  -1  -3 -10  145.09    6.40
  -1  -3 -10  139.69    5.40
  -1  -3 -10  153.88    6.90
  -1  -3 -10  139.19    5.20
  -1  -3 -10  147.69    5.60
   1   3  10  136.99    6.20
   1   3  10  144.39    8.00
   1   3  10  148.49    8.10
   1   3  10  134.49    6.10
  -2  -3 -10  234.28    9.70
  -2  -3 -10  244.48    8.20
  -2  -3 -10  239.38    8.60
  -2  -3 -10  262.27    8.20
   2   3  10  254.87    8.80
   2   3  10  250.27   11.20
   2   3  10  252.07   10.20
   2   3  10  250.07    8.40
  -3  -3 -10   38.30    3.40
  -3  -3 -10   39.70    4.60
   3   3  10   44.70    4.30
   3   3  10   43.10    4.40
   3   3  10   38.20    6.50
   3   3  10   37.00    6.70
  -4  -3 -10  122.99    6.90
  -4  -3 -10  124.99    5.00
  -4  -3 -10  109.29    7.70
   4   3  10  123.89    9.10
   4   3  10  108.99    5.80
   4   3  10  117.09    6.50
   4   3  10  131.59   11.20
  -5  -3 -10   27.60    4.80
  -5  -3 -10   24.60    5.60
   5   3  10   17.40    6.50
  -6  -3 -10   26.90    5.20
  -6  -3 -10   25.90    6.80
   6   3  10   35.00   10.00
   6  -4 -10    3.40    3.70
  -6   4  10    7.00    2.80
  -6   4  10    3.70    2.80
   5  -4 -10   35.40    5.40
  -5   4  10   37.70    3.90
  -5   4  10   36.00    4.70
  -5   4  10   36.20    5.00
   4  -4 -10  142.39    9.50
   4  -4 -10  138.79    8.40
  -4   4  10  146.19    5.90
  -4   4  10  146.89    7.40
  -4   4  10  146.39    7.20
   3  -4 -10  261.97   11.20
   3  -4 -10  243.58    9.10
   3  -4 -10  243.48    8.30
   3  -4 -10  235.78   10.10
  -3   4  10  253.27    9.50
  -3   4  10  255.27    8.70
  -3   4  10  240.48    7.30
   2  -4 -10   74.79    6.40
   2  -4 -10   64.09    4.30
   2  -4 -10   62.49    5.20
   2  -4 -10   58.69    4.80
  -2   4  10   60.79    3.00
  -2   4  10   61.99    4.30
  -2   4  10   62.79    4.50
  -2   4  10   64.39    4.00
   1  -4 -10   63.29    4.40
   1  -4 -10   65.99    5.90
   1  -4 -10   68.29    5.20
   1  -4 -10   72.09    5.00
  -1   4  10   73.19    4.70
  -1   4  10   72.89    3.60
  -1   4  10   68.29    4.60
   0  -4 -10    1.60    2.40
   0  -4 -10    1.90    3.30
   0  -4 -10    1.00    1.50
   0  -4 -10    3.60    2.00
   0  -4 -10    0.90    1.80
   0   4  10    0.80    2.40
   0   4  10    0.70    1.90
   0   4  10    3.90    1.80
   0   4  10    1.10    2.50
  -1  -4 -10  241.68    7.30
  -1  -4 -10  251.87    8.20
  -1  -4 -10  254.57    8.40
  -1  -4 -10  249.88    9.80
   1   4  10  237.88    9.60
   1   4  10  250.27   10.00
   1   4  10  239.38    8.10
   1   4  10  249.78    8.60
  -2  -4 -10    6.50    2.80
  -2  -4 -10    6.20    2.30
  -2  -4 -10    7.70    2.70
  -2  -4 -10    7.60    3.70
   2   4  10    3.80    3.10
   2   4  10    7.30    4.60
   2   4  10    4.50    2.80
   2   4  10    3.30    3.30
  -3  -4 -10   56.59    4.20
  -3  -4 -10   58.79    5.60
   3   4  10   56.39    4.80
   3   4  10   50.19    6.20
   3   4  10   55.39    5.20
   3   4  10   65.39    7.50
  -4  -4 -10  203.08    8.80
  -4  -4 -10  181.68    9.10
   4   4  10  179.18    7.60
   4   4  10  199.08    8.70
   4   4  10  203.88   13.10
   4   4  10  204.88   12.80
  -5  -4 -10    5.50    4.80
  -5  -4 -10    4.20    2.50
   5   4  10    5.30    7.00
   5   4  10    5.20    3.90
  -6  -4 -10   20.70    4.90
  -6  -4 -10   17.50    6.30
   6   4  10   25.10    9.70
   5  -5 -10    8.70    4.00
  -5   5  10    7.70    2.70
  -5   5  10   12.90    2.90
   4  -5 -10  156.88   10.50
  -4   5  10  167.88    6.60
  -4   5  10  156.18    7.80
   3  -5 -10   20.00    5.00
   3  -5 -10   21.50    4.10
   3  -5 -10   22.80    3.40
   3  -5 -10   17.40    3.90
  -3   5  10   19.50    3.20
  -3   5  10   22.20    2.50
  -3   5  10   22.90    2.90
  -3   5  10   20.30    2.80
   2  -5 -10  263.27    9.70
   2  -5 -10  263.07   11.30
   2  -5 -10  273.47    9.90
   2  -5 -10  253.47    8.60
  -2   5  10  292.87    8.90
  -2   5  10  268.27    8.80
  -2   5  10  258.77    7.20
  -2   5  10  253.07    8.30
   1  -5 -10   39.80    4.50
   1  -5 -10   31.60    4.90
   1  -5 -10   34.80    4.00
   1  -5 -10   38.70    3.90
  -1   5  10   42.00    3.50
  -1   5  10   35.60    2.00
  -1   5  10   33.00    3.80
   0  -5 -10  224.48    9.20
   0  -5 -10  230.08    8.20
   0  -5 -10  221.88    7.90
   0  -5 -10  237.18    9.20
   0   5  10  230.08    8.50
   0   5  10  235.08    8.50
   0   5  10  219.58    7.50
   0   5  10  233.88    8.20
  -1  -5 -10  206.58    7.50
  -1  -5 -10  207.68    6.70
  -1  -5 -10  213.88    7.80
  -1  -5 -10  203.38    9.40
   1   5  10  219.68    9.40
   1   5  10  221.78    8.50
   1   5  10  224.88    8.30
   1   5  10  216.48    8.90
  -2  -5 -10   41.20    4.00
  -2  -5 -10   42.50    4.90
  -2  -5 -10   39.30    4.60
  -2  -5 -10   35.90    3.50
   2   5  10   35.20    4.80
   2   5  10   43.90    4.90
   2   5  10   40.30    4.00
   2   5  10   35.40    5.70
  -3  -5 -10  161.68    8.80
  -3  -5 -10  174.98    6.90
  -3  -5 -10  169.78    8.20
   3   5  10  171.48    8.50
   3   5  10  173.88   10.00
   3   5  10  169.78    7.80
   3   5  10  165.98    9.60
  -4  -5 -10   39.00    5.90
  -4  -5 -10   48.10    4.80
  -4  -5 -10   47.10    3.90
   4   5  10   41.60    7.70
   4   5  10   38.00    7.30
   4   5  10   39.80    4.60
   4   5  10   45.60    5.50
  -5  -5 -10   81.29    8.60
  -5  -5 -10   74.19    6.50
   5   5  10   52.99    9.50
   5   5  10   76.49    6.80
  -6  -5 -10   -3.60    4.80
  -6  -5 -10    3.50    2.70
   6   5  10   -3.60    5.80
   5  -6 -10    8.40    4.40
  -5   6  10   12.60    3.10
  -5   6  10   14.20    2.60
   4  -6 -10   46.80    7.10
  -4   6  10   43.10    4.40
  -4   6  10   52.99    4.20
   3  -6 -10   10.00    3.70
   3  -6 -10    8.40    3.60
   3  -6 -10   10.20    4.20
   3  -6 -10   16.10    3.20
  -3   6  10   10.10    2.30
  -3   6  10   13.20    3.00
  -3   6  10   11.20    2.20
   2  -6 -10  207.58   10.80
   2  -6 -10  193.18    8.00
   2  -6 -10  210.58    9.50
   2  -6 -10  214.38    9.20
  -2   6  10  204.88    6.30
  -2   6  10  208.68    7.90
  -2   6  10  206.08    7.70
   1  -6 -10    3.40    3.80
   1  -6 -10   -4.60    3.10
   1  -6 -10    1.90    2.40
   1  -6 -10    1.60    2.50
  -1   6  10    2.50    1.40
  -1   6  10    2.50    3.10
  -1   6  10    2.70    1.20
  -1   6  10    1.70    2.60
   0  -6 -10    2.40    2.50
   0  -6 -10    1.80    2.80
   0  -6 -10   -0.50    2.40
   0  -6 -10   -0.70    2.20
   0   6  10    3.50    2.60
   0   6  10    5.80    2.40
   0   6  10    4.20    2.80
  -1  -6 -10   36.90    3.50
  -1  -6 -10   36.30    4.00
  -1  -6 -10   33.90    4.30
  -1  -6 -10   30.10    4.70
  -1  -6 -10   35.50    2.90
   1   6  10   31.50    4.10
   1   6  10   27.60    4.50
   1   6  10   31.90    4.70
   1   6  10   25.10    4.10
  -2  -6 -10   70.59    6.40
  -2  -6 -10   61.99    6.00
  -2  -6 -10   70.19    5.10
   2   6  10   64.59    6.50
   2   6  10   82.59    6.50
   2   6  10   63.09    6.00
   2   6  10   67.89    4.90
  -3  -6 -10    9.50    2.80
  -3  -6 -10   12.00    4.30
  -3  -6 -10   14.00    4.50
   3   6  10    4.70    5.00
   3   6  10    7.10    3.30
   3   6  10   11.30    4.50
   3   6  10   14.10    5.40
  -4  -6 -10   13.70    5.30
  -4  -6 -10   14.50    3.60
  -4  -6 -10   15.00    2.80
   4   6  10   19.20    5.50
   4   6  10   22.00    5.10
   4   6  10   14.00    4.70
   4   6  10   14.80    3.80
  -5  -6 -10   59.39    8.40
  -5  -6 -10   49.70    5.40
   5   6  10   52.59    9.30
   5   6  10   46.70    6.30
  -6  -6 -10    0.40    5.60
  -6  -6 -10    4.20    3.70
   6   6  10   -4.80    5.30
   6   6  10    2.30    4.90
   5  -7 -10   78.79    9.30
  -5   7  10   72.59    5.60
  -5   7  10   86.79    7.40
   4  -7 -10    4.90    4.10
   4  -7 -10   -0.20    3.60
  -4   7  10    8.30    2.60
  -4   7  10    7.10    2.60
   3  -7 -10  160.58    7.30
   3  -7 -10  160.28   10.90
   3  -7 -10  157.78    9.90
  -3   7  10  154.38    7.80
  -3   7  10  157.78    6.30
   2  -7 -10   34.80    5.50
   2  -7 -10   36.90    4.40
   2  -7 -10   34.80    5.90
   2  -7 -10   33.40    4.50
  -2   7  10   34.70    4.00
  -2   7  10   37.90    3.70
  -2   7  10   30.00    2.70
   1  -7 -10  125.69    7.50
   1  -7 -10  107.19    6.40
   1  -7 -10  123.89    8.90
   1  -7 -10  115.69    6.70
  -1   7  10   93.59    4.50
  -1   7  10  121.69    6.80
  -1   7  10  137.59    6.90
   0  -7 -10    8.30    4.30
   0  -7 -10    6.20    2.80
   0  -7 -10    0.30    2.30
   0  -7 -10    3.90    2.80
   0   7  10    2.90    2.50
   0   7  10    0.60    3.20
   0   7  10    2.80    2.90
  -1  -7 -10   90.69    5.10
  -1  -7 -10   91.19    7.50
  -1  -7 -10   99.79    6.00
  -1  -7 -10  104.59    8.10
   1   7  10  104.39    7.00
   1   7  10   90.19    6.70
   1   7  10   90.49    7.00
   1   7  10  100.19    6.50
  -2  -7 -10  171.28    7.70
  -2  -7 -10  174.08    9.50
   2   7  10  167.78    8.10
   2   7  10  155.78    9.30
   2   7  10  168.88    9.90
   2   7  10  185.48    8.70
  -3  -7 -10   24.10    3.60
  -3  -7 -10   20.10    5.00
  -3  -7 -10   27.50    5.60
   3   7  10   19.20    4.80
   3   7  10   30.20    5.50
   3   7  10   23.20    5.90
   3   7  10   28.20    4.60
  -4  -7 -10   41.70    4.90
  -4  -7 -10   35.20    6.70
  -4  -7 -10   40.60    3.90
   4   7  10   29.30    7.20
   4   7  10   33.60    6.00
   4   7  10   32.70    6.40
   4   7  10   38.20    5.20
  -5  -7 -10    9.20    6.00
  -5  -7 -10    7.50    3.50
   5   7  10   10.00    7.40
   5   7  10   15.60    5.50
  -6  -7 -10   30.90    7.70
  -6  -7 -10    7.50    4.30
   6   7  10   22.50    6.80
   6   7  10   28.00    6.10
   4  -8 -10   30.20    7.00
   4  -8 -10   29.10    6.30
  -4   8  10   27.20    3.70
  -4   8  10   33.80    5.00
   3  -8 -10  122.59    9.90
   3  -8 -10  110.59   10.10
   3  -8 -10   88.79    6.90
  -3   8  10  110.99    7.10
  -3   8  10   99.99    5.30
   2  -8 -10   28.10    4.60
   2  -8 -10   23.60    5.50
   2  -8 -10   26.50    6.30
   2  -8 -10   15.60    3.70
  -2   8  10   20.10    3.60
  -2   8  10   31.50    4.10
  -2   8  10   15.00    2.40
   1  -8 -10  125.89    9.50
   1  -8 -10  112.79    6.30
   1  -8 -10  117.49    8.90
   1  -8 -10  119.59    7.20
  -1   8  10  123.49    7.80
  -1   8  10  110.99    7.20
   0  -8 -10    0.60    2.80
   0  -8 -10    6.40    2.60
   0  -8 -10    1.50    3.10
   0  -8 -10    9.30    4.40
   0   8  10    1.60    3.40
   0   8  10    5.80    3.70
  -1  -8 -10   49.70    5.00
  -1  -8 -10   59.49    6.60
  -1  -8 -10   43.60    6.10
   1   8  10   55.09    5.90
   1   8  10   52.19    5.00
  -2  -8 -10   25.90    4.20
  -2  -8 -10   31.30    4.70
   2   8  10   22.90    4.20
   2   8  10   19.70    4.40
   2   8  10   39.20    5.90
   2   8  10   25.00    4.90
  -3  -8 -10   24.80    5.30
  -3  -8 -10   32.40    6.70
  -3  -8 -10   37.50    4.00
   3   8  10   27.10    6.30
   3   8  10   24.30    4.50
   3   8  10   29.20    6.50
   3   8  10   18.80    5.50
  -4  -8 -10   10.50    6.00
  -4  -8 -10   10.60    3.10
  -4  -8 -10   12.40    5.50
   4   8  10   11.90    6.30
   4   8  10    8.60    5.50
   4   8  10    5.60    4.10
  -5  -8 -10   -4.40    5.20
   5   8  10    0.90    7.00
   5   8  10    0.50    5.10
   3  -9 -10   -0.90    4.00
   3  -9 -10   -2.10    3.80
  -3   9  10   -1.50    2.90
  -3   9  10    0.40    2.10
   2  -9 -10   60.19    6.00
   2  -9 -10   60.49    7.10
   2  -9 -10   52.79    6.50
  -2   9  10   52.79    5.30
  -2   9  10   65.49    5.70
   1  -9 -10   83.49    7.00
   1  -9 -10   75.09    8.10
   1  -9 -10   69.79    7.90
   1  -9 -10   70.49    5.30
  -1   9  10   83.79    6.80
  -1   9  10   86.89    7.50
   0  -9 -10   37.40    6.30
   0  -9 -10   41.40    5.00
   0  -9 -10   46.50    5.90
   0   9  10   40.30    5.50
   0   9  10   47.80    6.00
  -1  -9 -10    9.30    4.00
  -1  -9 -10    1.90    4.60
  -1  -9 -10    8.50    3.60
   1   9  10    4.80    4.30
   1   9  10    9.00    4.10
  -2  -9 -10   18.90    5.40
  -2  -9 -10   28.40    4.00
   2   9  10   23.90    5.50
   2   9  10   29.20    5.00
  -3  -9 -10   33.10    7.10
  -3  -9 -10   29.00    4.40
  -3  -9 -10   29.10    5.70
   3   9  10   28.50    6.30
   3   9  10   27.50    6.60
   3   9  10   30.10    6.30
   3   9  10   39.40    5.60
  -4  -9 -10    1.40    2.70
  -4  -9 -10    1.70    4.30
   4   9  10    3.90    4.20
   4   9  10   -1.00    3.80
   4   9  10    4.00    4.40
  -5  -9 -10   10.70    6.80
   5   9  10    1.60    5.50
   5   9  10   17.20    7.40
   3 -10 -10    9.90    6.10
   3 -10 -10   20.30    6.90
  -3  10  10   16.80    4.20
   2 -10 -10   80.09    9.20
   2 -10 -10   70.69    6.80
   2 -10 -10   57.79    7.90
  -2  10  10   68.59    6.20
  -2  10  10   59.19    5.60
   1 -10 -10   12.60    4.70
   1 -10 -10    8.80    4.40
   1 -10 -10   18.00    3.70
  -1  10  10   15.60    4.80
  -1  10  10   15.90    4.60
   0 -10 -10   57.69    6.90
   0 -10 -10   63.99    7.60
   0 -10 -10   67.39    6.10
   0  10  10   60.09    6.90
   0  10  10   67.19    6.90
  -1 -10 -10    1.70    3.50
  -1 -10 -10    5.50    5.00
  -1 -10 -10   10.60    5.40
   1  10  10    6.50    4.70
   1  10  10    3.90    4.30
  -2 -10 -10    8.80    5.10
  -2 -10 -10   12.90    5.80
  -2 -10 -10   23.70    4.50
   2  10  10   19.50    4.20
   2  10  10   10.40    5.40
  -3 -10 -10   13.10    4.00
  -3 -10 -10   11.30    4.00
  -3 -10 -10   24.10    7.40
   3  10  10   12.00    3.70
   3  10  10   12.90    5.80
  -4 -10 -10    3.20    2.90
  -4 -10 -10   18.40    5.90
   4  10  10    0.10    5.70
   4  10  10    1.30    4.20
   4  10  10    2.40    6.00
   2 -11 -10   19.20    6.70
   2 -11 -10   22.90    5.00
   2 -11 -10   12.70    6.30
  -2  11  10   23.80    4.50
  -2  11  10   17.70    4.30
   1 -11 -10   36.30    5.00
   1 -11 -10   51.79    8.10
   1 -11 -10   41.50    7.40
  -1  11  10   40.30    5.60
  -1  11  10   38.90    5.30
   0 -11 -10    7.50    3.30
   0 -11 -10    7.80    4.10
   0 -11 -10    8.50    5.90
   0  11  10   15.10    5.00
   0  11  10   17.30    4.00
  -1 -11 -10    7.80    5.90
  -1 -11 -10   13.10    4.50
  -1 -11 -10   13.30    5.50
   1  11  10   10.10    4.60
   1  11  10    2.10    4.80
  -2 -11 -10    5.50    4.00
  -2 -11 -10    7.30    4.40
  -2 -11 -10    5.20    5.10
   2  11  10   11.90    4.00
   2  11  10    1.30    5.10
  -3 -11 -10    6.50    2.90
  -3 -11 -10    6.10    4.80
   3  11  10    2.90    4.70
   3  11  10    7.40    4.30
  -4 -11 -10   18.10    3.80
   4  11  10    8.10    6.00
   4  11  10    2.70    4.80
   0 -12 -10   -4.70    5.00
   0 -12 -10    6.70    3.40
   0 -12 -10    0.60    6.00
   0  12  10    8.40    5.00
   0  12  10   15.00    4.80
  -1 -12 -10   24.10    5.40
  -1 -12 -10    7.40    6.20
  -1 -12 -10   21.30    6.10
   1  12  10   20.60    4.70
   1  12  10    7.00    5.00
  -2 -12 -10    1.90    4.10
  -2 -12 -10   -0.60    4.00
   2  12  10    1.70    3.40
   2  12  10    3.10    3.90
   2  10 -11   18.40    5.80
   2  10 -11   18.60    5.60
  -2 -10  11   19.30    5.30
   1  10 -11   -0.40    4.40
   1  10 -11    5.20    6.00
  -1 -10  11    5.50    4.80
   0  10 -11   12.70    5.00
   0  10 -11   12.70    6.60
   0 -10  11    9.70    5.40
  -1  10 -11    7.80    4.80
   1 -10  11    3.40    4.90
   3   9 -11   23.70    5.30
   3   9 -11   28.50    9.00
   3   9 -11   32.50    6.00
  -3  -9  11   25.20    4.80
  -3  -9  11   24.40    5.40
   2   9 -11   -0.90    4.10
   2   9 -11   10.40    7.20
  -2  -9  11    1.80    2.60
  -2  -9  11    1.20    3.90
   1   9 -11   33.60    7.40
   1   9 -11   30.10    5.70
  -1  -9  11   27.70    5.80
   0   9 -11   18.40    6.40
   0   9 -11   17.30    5.10
   0  -9  11   28.10    6.00
   0  -9  11   19.60    4.50
  -1   9 -11   14.10    4.80
  -1   9 -11   11.00    4.40
   1  -9  11   16.20    4.20
   1  -9  11    5.90    4.70
   2  -9  11   59.09    7.60
   2  -9  11   66.09    7.90
   4   8 -11   42.90    9.80
   4   8 -11   41.90    6.70
  -4  -8  11   34.80    6.10
   3   8 -11   46.80    6.70
   3   8 -11   29.00    9.10
   3   8 -11   48.40    6.30
  -3  -8  11   43.10    5.20
  -3  -8  11   35.90    5.80
   2   8 -11    5.80    5.60
   2   8 -11    2.10    4.00
   2   8 -11    2.50    3.70
  -2  -8  11   11.10    4.30
  -2  -8  11   10.70    3.90
   1   8 -11   62.29    7.70
   1   8 -11   60.39    6.00
  -1  -8  11   71.49    7.10
   0   8 -11   16.30    6.10
   0   8 -11    8.00    3.20
   0  -8  11   15.90    5.20
   0  -8  11    5.50    4.40
  -1   8 -11   60.99    5.90
  -1   8 -11   49.50    7.60
   1  -8  11   54.69    6.20
   1  -8  11   65.39    7.70
  -2   8 -11   24.70    6.00
  -2   8 -11   12.40    4.30
   2  -8  11   14.30    5.80
   2  -8  11   18.00    5.20
   2  -8  11   16.90    5.60
  -3   8 -11   41.60    4.60
  -3   8 -11   39.60    5.00
   3  -8  11   43.70    7.30
   3  -8  11   50.29    7.00
   3  -8  11   58.29    8.60
   5   7 -11    9.20    5.40
   5   7 -11   -6.60    7.20
  -5  -7  11    0.10    4.80
   4   7 -11   63.29   10.30
   4   7 -11   65.29    7.70
  -4  -7  11   53.49    7.20
   3   7 -11    5.00    7.60
   3   7 -11    5.00    3.00
  -3  -7  11    8.60    4.30
  -3  -7  11    6.00    3.30
   2   7 -11   11.50    4.10
   2   7 -11   10.00    4.10
   2   7 -11    6.10    7.10
  -2  -7  11   13.30    4.30
  -2  -7  11    5.50    3.90
   1   7 -11   23.60    7.50
   1   7 -11   22.60    3.90
  -1  -7  11   17.00    4.90
  -1  -7  11   18.90    3.70
   0   7 -11   19.70    6.50
   0   7 -11   13.90    4.30
   0  -7  11   16.10    4.50
   0  -7  11   22.00    4.50
  -1   7 -11   24.00    4.90
  -1   7 -11   31.10    6.30
   1  -7  11   27.50    5.30
   1  -7  11   37.30    6.30
  -2   7 -11    6.60    4.80
  -2   7 -11    2.50    2.90
   2  -7  11    4.20    4.70
   2  -7  11   -1.50    3.70
   2  -7  11    2.00    3.50
  -3   7 -11   29.60    3.70
  -3   7 -11   39.20    4.90
   3  -7  11   34.90    5.70
   3  -7  11   36.40    6.00
   3  -7  11   50.39    8.00
   4  -7  11    7.40    5.60
   4  -7  11    9.30    6.60
   5   6 -11    7.90    7.20
  -5  -6  11   12.90    5.50
   4   6 -11   11.50    7.40
  -4  -6  11   30.20    5.30
   3   6 -11   77.69    9.80
   3   6 -11   83.99    5.70
  -3  -6  11   79.89    6.10
  -3  -6  11   84.69    7.80
   2   6 -11   88.59    6.70
   2   6 -11  109.89    9.60
  -2  -6  11   86.59    6.80
   1   6 -11    3.80    2.50
   1   6 -11    0.20    4.20
  -1  -6  11    3.90    3.60
  -1  -6  11    1.80    2.90
   0   6 -11  120.79    8.80
   0   6 -11  116.49    7.30
   0  -6  11  137.19    7.30
   0  -6  11  119.89    7.80
  -1   6 -11    6.00    4.70
  -1   6 -11    5.00    3.50
   1  -6  11   -0.80    3.10
   1  -6  11    2.80    3.40
   1  -6  11    4.70    4.50
  -2   6 -11   80.39    5.80
  -2   6 -11   86.19    8.10
  -2   6 -11   86.69    6.90
   2  -6  11   78.49    7.00
   2  -6  11   66.89    7.40
   2  -6  11   99.79    9.30
  -3   6 -11   15.50    3.60
  -3   6 -11   10.70    3.70
  -3   6 -11   13.60    2.70
   3  -6  11   13.40    5.90
   3  -6  11    9.30    3.30
   3  -6  11   14.90    5.70
  -4   6 -11   34.90    5.20
   4  -6  11   50.79    8.00
   4  -6  11   46.30    7.00
   4  -6  11   42.90    6.00
   5   5 -11   30.40    6.50
  -5  -5  11   41.80    6.90
   4   5 -11    0.90    4.10
  -4  -5  11    1.90    3.90
   3   5 -11  117.39    7.50
   3   5 -11  124.89    6.80
   3   5 -11  128.99   10.80
  -3  -5  11  135.49    9.00
  -3  -5  11  125.59    6.60
   2   5 -11   65.29    5.30
   2   5 -11   70.39    5.60
   2   5 -11   69.79    7.50
  -2  -5  11   69.49    5.70
   1   5 -11   28.50    6.80
   1   5 -11   28.90    4.10
   1   5 -11   30.80    4.60
  -1  -5  11   30.60    4.40
  -1  -5  11   39.40    5.60
   0   5 -11    9.90    2.70
   0   5 -11   15.30    5.90
   0  -5  11   10.70    3.50
   0  -5  11   11.80    2.90
  -1   5 -11   97.79    8.30
  -1   5 -11   71.79    5.20
   1  -5  11   81.19    6.50
   1  -5  11   71.09    5.90
   1  -5  11   89.29    8.20
  -2   5 -11   72.99    5.80
  -2   5 -11   70.49    5.50
  -2   5 -11   68.39    6.30
   2  -5  11   80.39    6.50
   2  -5  11   74.99    7.20
   2  -5  11   81.59    7.40
   2  -5  11   80.89    6.80
  -3   5 -11    0.80    2.00
  -3   5 -11    0.60    2.90
  -3   5 -11    0.20    1.80
   3  -5  11   -4.00    5.30
   3  -5  11   -1.40    3.40
   3  -5  11    0.30    4.60
   3  -5  11    6.30    2.60
  -4   5 -11   29.30    4.20
   4  -5  11   29.10    6.00
   4  -5  11   39.40    7.60
   4  -5  11   28.70    5.10
  -5   5 -11   11.30    3.50
   5  -5  11    5.20    6.50
   5  -5  11    7.90    6.70
   6   4 -11   30.80    8.00
  -6  -4  11   28.50    7.00
   5   4 -11   11.00    6.50
  -5  -4  11   27.00    6.10
   4   4 -11   46.80    5.00
   4   4 -11   66.79    7.40
  -4  -4  11   59.09    6.60
   3   4 -11  118.29    9.90
   3   4 -11  111.09    6.10
   3   4 -11  110.69    7.00
  -3  -4  11  135.69    8.00
  -3  -4  11  121.09    6.00
   2   4 -11  152.38   10.40
   2   4 -11  139.19    6.70
   2   4 -11  138.89    7.60
  -2  -4  11  139.39    8.50
  -2  -4  11  138.29    7.00
   1   4 -11  235.48    9.70
   1   4 -11  241.48   12.00
   1   4 -11  230.38    8.70
  -1  -4  11  228.68    9.00
  -1  -4  11  221.38   10.30
   0   4 -11    7.10    3.00
   0   4 -11   11.50    5.40
   0  -4  11   14.80    3.40
   0  -4  11    9.90    4.20
  -1   4 -11  154.58    7.10
  -1   4 -11  150.38    9.50
   1  -4  11  148.89    7.50
   1  -4  11  149.59    8.30
   1  -4  11  150.58    7.50
  -2   4 -11   43.90    5.60
  -2   4 -11   38.90    4.00
   2  -4  11   29.50    5.90
   2  -4  11   41.80    5.30
   2  -4  11   36.30    4.90
  -3   4 -11   40.30    5.20
  -3   4 -11   37.60    3.00
  -3   4 -11   41.30    5.00
  -3   4 -11   35.10    4.10
   3  -4  11   39.40    7.00
   3  -4  11   39.70    4.80
   3  -4  11   36.20    5.90
  -4   4 -11   20.40    3.80
  -4   4 -11   12.40    3.40
   4  -4  11   22.70    7.20
   4  -4  11   21.70    5.20
   4  -4  11   25.00    5.10
   4  -4  11   22.10    4.40
  -5   4 -11    8.00    3.10
   5  -4  11    0.30    6.90
   5  -4  11    7.50    6.30
   6   3 -11   20.50    6.60
  -6  -3  11   28.10    6.70
   5   3 -11    8.70    5.70
  -5  -3  11   -1.90    4.10
   4   3 -11  162.78    7.60
   4   3 -11  172.78   11.60
  -4  -3  11  186.68   10.10
   3   3 -11    2.50    2.30
   3   3 -11    4.90    4.40
   3   3 -11    3.90    3.10
  -3  -3  11    5.60    2.40
  -3  -3  11    1.50    3.20
   2   3 -11  175.58   10.10
   2   3 -11  177.08    7.00
   2   3 -11  175.28    7.90
  -2  -3  11  198.88    7.70
  -2  -3  11  189.58    9.30
   1   3 -11   77.29    7.20
   1   3 -11   73.19    5.00
   1   3 -11   70.39    5.20
  -1  -3  11   69.69    5.50
  -1  -3  11   65.39    5.20
   0   3 -11   33.90    5.90
   0   3 -11   31.60    3.40
   0   3 -11   34.00    4.60
   0  -3  11   33.10    4.20
   0  -3  11   34.50    5.40
   0  -3  11   29.90    3.10
  -1   3 -11    0.60    2.40
  -1   3 -11    4.50    4.50
   1  -3  11    1.20    2.90
   1  -3  11    4.50    3.10
   1  -3  11    9.70    3.40
  -2   3 -11   70.09    6.10
  -2   3 -11   62.59    5.10
   2  -3  11   69.79    5.10
   2  -3  11   67.29    7.30
   2  -3  11   63.89    5.60
  -3   3 -11   99.09    5.90
  -3   3 -11  104.69    7.10
  -3   3 -11  111.39    7.00
   3  -3  11   77.89    6.60
   3  -3  11  113.49    6.50
   3  -3  11  126.49   10.30
  -4   3 -11   18.90    4.30
  -4   3 -11   12.40    3.30
   4  -3  11   23.60    3.80
   4  -3  11   24.40    5.90
   4  -3  11    7.70    4.60
  -5   3 -11   18.60    4.90
   5  -3  11   23.20    7.90
   6   2 -11    9.10    5.80
  -6  -2  11    0.30    3.30
   5   2 -11   30.60    4.80
   5   2 -11   49.30    6.80
  -5  -2  11   30.90    6.00
   4   2 -11   83.29    5.80
   4   2 -11  105.09    9.30
  -4  -2  11   82.69    4.80
  -4  -2  11   92.79    7.80
   3   2 -11  163.88    6.70
   3   2 -11  162.58   10.00
   3   2 -11  163.18    7.40
  -3  -2  11  162.48    5.70
  -3  -2  11  161.58    9.10
  -3  -2  11  167.58    6.20
   2   2 -11   25.40    2.90
   2   2 -11   20.00    3.20
   2   2 -11   24.70    4.20
   2   2 -11   23.60    3.20
  -2  -2  11   23.60    2.10
  -2  -2  11   33.40    4.60
  -2  -2  11   32.60    3.60
   1   2 -11  129.39    5.70
   1   2 -11  140.29    8.30
   1   2 -11  130.49    5.90
   1   2 -11  125.69    6.20
  -1  -2  11  112.89    7.10
  -1  -2  11  131.99    6.70
   0   2 -11  155.38    6.50
   0   2 -11  147.99    8.70
   0   2 -11  149.88    7.50
   0  -2  11  144.39    7.60
   0  -2  11  160.78    6.90
   0  -2  11  156.28    8.30
  -1   2 -11   17.40    3.10
  -1   2 -11   20.80    4.80
   1  -2  11   11.20    2.60
   1  -2  11   18.20    3.40
   1  -2  11   17.30    4.70
  -2   2 -11   71.89    6.10
  -2   2 -11   86.09    4.70
   2  -2  11   78.89    6.60
   2  -2  11   74.59    5.80
   2  -2  11   81.99    7.00
  -3   2 -11   64.69    5.40
  -3   2 -11   88.29    5.20
  -3   2 -11   72.69    5.50
   3  -2  11   71.59    8.30
   3  -2  11   78.09    7.20
   3  -2  11   75.19    6.00
  -4   2 -11   15.10    2.70
  -4   2 -11   13.30    3.90
   4  -2  11   14.20    3.80
   4  -2  11   16.00    5.10
   4  -2  11   24.30    7.50
  -5   2 -11   16.90    4.00
   5  -2  11   35.70    7.20
  -6   2 -11   -0.60    4.00
   6  -2  11   12.10    6.60
   6   1 -11    6.80    4.40
  -6  -1  11    0.30    2.10
  -6  -1  11    3.10    4.70
   5   1 -11   74.19    8.90
  -5  -1  11   51.59    4.40
  -5  -1  11   54.19    7.10
   4   1 -11   46.80    7.00
   4   1 -11   38.30    4.90
  -4  -1  11   41.30    3.80
  -4  -1  11   56.09    6.70
   3   1 -11  424.86   15.20
   3   1 -11  431.36   11.60
   3   1 -11  415.66   12.90
  -3  -1  11  403.16   14.10
  -3  -1  11  411.96   10.90
   2   1 -11   -2.30    1.80
   2   1 -11    1.60    2.40
   2   1 -11    0.00    1.40
   2   1 -11    0.70    2.30
  -2  -1  11    2.50    2.10
  -2  -1  11    1.50    1.40
   1   1 -11   89.09    5.20
   1   1 -11   93.39    4.90
   1   1 -11   91.49    5.30
   1   1 -11   88.59    6.70
  -1  -1  11   85.59    6.20
  -1  -1  11   81.89    2.90
  -1  -1  11   87.89    5.50
   0   1 -11   50.39    3.90
   0   1 -11   52.29    3.60
   0   1 -11   38.20    3.80
   0   1 -11   44.60    5.00
   0  -1  11   42.10    4.20
   0  -1  11   46.20    4.90
   0  -1  11   50.19    5.00
  -1   1 -11  102.99    7.40
  -1   1 -11  107.79    6.90
  -1   1 -11  102.89    5.30
   1  -1  11  119.89    6.20
   1  -1  11  111.79    7.20
   1  -1  11  100.29    7.80
  -2   1 -11    4.40    3.00
  -2   1 -11    1.80    2.40
   2  -1  11    1.40    2.70
   2  -1  11   -1.00    4.70
   2  -1  11    5.10    2.80
  -3   1 -11    5.40    2.60
  -3   1 -11    8.30    2.50
   3  -1  11    3.50    3.30
   3  -1  11    8.00    3.20
   3  -1  11   11.60    4.70
  -4   1 -11  211.38   10.10
   4  -1  11  196.38   13.50
   4  -1  11  201.38   11.40
   4  -1  11  220.38    9.20
  -5   1 -11   17.60    4.00
   5  -1  11   19.00    7.90
  -6   1 -11   22.60    4.30
   6  -1  11   13.80    8.80
   6   0 -11  133.39   11.90
  -6   0  11  117.39   10.20
  -6   0  11  114.69    7.30
   5   0 -11   19.40    5.10
  -5   0  11   18.00    4.40
  -5   0  11   15.40    3.30
   4   0 -11   69.59    6.80
   4   0 -11   62.29    5.70
   4   0 -11   60.39    5.70
  -4   0  11   56.69    3.90
  -4   0  11   65.69    6.40
   3   0 -11  307.27    9.30
   3   0 -11  324.17   12.50
   3   0 -11  300.37   11.00
   3   0 -11  313.67   10.70
  -3   0  11  312.37    9.00
  -3   0  11  307.67   12.10
  -3   0  11  315.27    8.80
   2   0 -11   35.70    3.10
   2   0 -11   40.00    5.30
   2   0 -11   41.60    3.70
   2   0 -11   28.70    4.00
  -2   0  11   37.80    2.70
  -2   0  11   36.90    3.80
  -2   0  11   38.60    3.80
   1   0 -11   11.70    3.20
   1   0 -11   14.50    3.30
   1   0 -11   15.00    2.60
   1   0 -11   13.20    3.50
  -1   0  11   12.20    1.40
  -1   0  11   10.90    2.80
  -1   0  11   14.30    3.40
   0   0 -11    0.80    2.80
   0   0 -11   -1.00    2.00
   0   0 -11    1.30    2.80
   0   0 -11    1.70    1.60
   0   0  11    4.40    2.50
   0   0  11    2.10    0.70
   0   0  11    5.30    2.40
   0   0  11   -3.30    3.20
  -1   0 -11  102.69    5.70
  -1   0 -11  100.29    6.40
  -1   0 -11  103.09    5.20
   1   0  11  110.79    6.00
   1   0  11  107.19    7.20
   1   0  11  104.69    8.00
  -2   0 -11   50.49    4.10
  -2   0 -11   49.40    4.70
   2   0  11   47.10    6.80
   2   0  11   53.09    4.70
   2   0  11   52.09    5.90
  -3   0 -11   20.10    2.60
   3   0  11   16.30    3.00
   3   0  11   20.90    4.30
   3   0  11   19.60    6.50
  -4   0 -11  111.79    7.80
  -4   0 -11  111.39    5.20
   4   0  11  106.79    8.20
   4   0  11  127.69    9.90
   4   0  11  118.89    6.40
  -5   0 -11    5.00    2.90
   5   0  11   12.70    7.90
  -6   0 -11    4.80    4.60
   6   0  11    1.60    8.30
   6  -1 -11  133.59   11.80
  -6   1  11  101.49    7.20
  -6   1  11  107.19    9.60
   5  -1 -11   32.30    5.80
  -5   1  11   27.70    4.00
  -5   1  11   27.50    4.70
   4  -1 -11   18.30    4.00
   4  -1 -11   14.70    3.70
   4  -1 -11   21.50    5.40
  -4   1  11   21.40    4.00
  -4   1  11   21.50    2.80
   3  -1 -11    4.70    2.20
   3  -1 -11   12.20    3.70
   3  -1 -11    7.40    3.10
   3  -1 -11    5.20    3.70
  -3   1  11    6.40    3.20
  -3   1  11    9.30    1.80
   2  -1 -11  351.16   11.10
   2  -1 -11  352.96   11.20
   2  -1 -11  348.17   12.40
   2  -1 -11  345.57   10.00
  -2   1  11  333.67    9.10
  -2   1  11  350.36   10.10
  -2   1  11  330.47   10.20
   1  -1 -11   -0.60    2.80
   1  -1 -11    1.70    2.70
   1  -1 -11    1.60    2.00
   1  -1 -11   -0.60    2.60
  -1   1  11    0.70    1.70
  -1   1  11    1.90    2.60
  -1   1  11    2.50    2.70
  -1   1  11    0.40    1.20
   0  -1 -11    2.20    2.50
   0  -1 -11    4.70    3.00
   0  -1 -11    1.30    2.00
   0  -1 -11    7.20    3.00
   0   1  11   10.20    2.70
   0   1  11    3.40    2.50
   0   1  11    2.10    3.30
   0   1  11    3.40    1.00
  -1  -1 -11   36.70    4.00
  -1  -1 -11   31.00    4.10
  -1  -1 -11   43.30    3.70
  -1  -1 -11   31.90    3.80
   1   1  11   37.20    5.40
   1   1  11   38.20    5.00
   1   1  11   39.10    3.70
  -2  -1 -11   72.29    4.50
  -2  -1 -11   62.79    5.10
  -2  -1 -11   63.69    4.90
   2   1  11   67.49    6.60
   2   1  11   66.79    6.40
   2   1  11   66.29    3.90
   2   1  11   63.39    4.50
  -3  -1 -11   20.80    3.00
  -3  -1 -11   17.40    3.00
   3   1  11   18.80    3.60
   3   1  11   25.60    2.70
   3   1  11   16.90    6.20
   3   1  11   19.30    4.40
  -4  -1 -11    6.20    3.10
  -4  -1 -11    0.40    3.40
  -4  -1 -11    2.60    2.10
   4   1  11   -0.30    4.40
   4   1  11    5.50    4.00
   4   1  11    2.60    2.90
  -5  -1 -11   98.19    8.00
   5   1  11   92.69   11.40
  -6  -1 -11    3.10    4.10
   6   1  11   -2.30    8.10
   6  -2 -11    9.40    4.00
  -6   2  11    0.80    4.10
  -6   2  11    1.70    3.10
   5  -2 -11  145.29    9.50
   5  -2 -11  159.68   10.60
  -5   2  11  145.89    9.60
  -5   2  11  163.18    7.90
   4  -2 -11   44.60    4.90
   4  -2 -11   39.10    4.50
   4  -2 -11   46.40    6.70
  -4   2  11   45.70    4.30
  -4   2  11   51.79    5.90
   3  -2 -11   67.29    5.80
   3  -2 -11   77.39    6.30
   3  -2 -11   76.39    4.60
   3  -2 -11   75.69    7.30
  -3   2  11   69.09    4.30
  -3   2  11   80.79    6.20
  -3   2  11   66.59    4.00
   2  -2 -11  539.35   13.60
   2  -2 -11  537.55   15.20
   2  -2 -11  550.94   16.40
   2  -2 -11  541.15   15.50
  -2   2  11  524.45   12.90
  -2   2  11  545.45   13.70
   1  -2 -11   -1.60    3.10
   1  -2 -11    2.20    2.80
   1  -2 -11    0.10    2.50
   1  -2 -11    1.70    2.00
  -1   2  11   -0.70    2.10
  -1   2  11    3.00    2.30
  -1   2  11    0.60    2.50
  -1   2  11   -1.60    1.00
   0  -2 -11   30.10    3.90
   0  -2 -11   24.40    4.10
   0  -2 -11   30.60    3.30
   0  -2 -11   27.90    3.60
   0   2  11   28.60    4.10
   0   2  11   37.80    3.90
   0   2  11   26.30    4.10
  -1  -2 -11   42.30    3.90
  -1  -2 -11   47.40    4.50
  -1  -2 -11   50.59    3.50
  -1  -2 -11   45.40    4.80
   1   2  11   50.09    4.50
   1   2  11   54.39    5.00
   1   2  11   62.39    6.30
   1   2  11   46.60    4.00
  -2  -2 -11  272.27   10.30
  -2  -2 -11  277.77    8.60
  -2  -2 -11  282.67    9.90
  -2  -2 -11  256.57    8.70
  -2  -2 -11  260.27    8.00
   2   2  11  278.17    9.60
   2   2  11  271.27    8.40
   2   2  11  275.07   11.10
   2   2  11  271.77   10.80
  -3  -2 -11   65.89    4.80
  -3  -2 -11   70.09    4.50
   3   2  11   70.29    5.40
   3   2  11   75.59    8.40
   3   2  11   61.79    6.40
   3   2  11   72.59    4.50
  -4  -2 -11    5.80    2.20
  -4  -2 -11    8.80    3.50
  -4  -2 -11    9.00    3.90
   4   2  11   10.30    2.60
   4   2  11    7.00    5.50
   4   2  11    9.70    5.00
  -5  -2 -11   71.09    7.00
  -5  -2 -11   69.69    7.20
   5   2  11   44.60    9.30
  -6  -2 -11    3.40    4.30
  -6  -2 -11   -3.50    4.50
   6   2  11    5.30    6.00
  -6   3  11    7.70    4.30
  -6   3  11    5.20    2.60
   5  -3 -11  126.49    9.60
   5  -3 -11   91.69    8.00
  -5   3  11   96.39    6.70
  -5   3  11   96.89    8.00
   4  -3 -11   49.30    7.10
   4  -3 -11   36.60    5.00
   4  -3 -11   34.40    5.50
  -4   3  11   35.10    3.20
  -4   3  11   38.70    4.20
  -4   3  11   44.50    5.40
   3  -3 -11  102.29    5.00
   3  -3 -11  100.79    7.60
   3  -3 -11  104.79    8.40
   3  -3 -11   97.59    6.80
  -3   3  11   97.99    6.60
  -3   3  11  102.59    5.30
  -3   3  11   97.89    4.20
   2  -3 -11    5.90    2.20
   2  -3 -11    6.40    2.50
   2  -3 -11    5.30    2.30
   2  -3 -11    6.70    3.80
   2  -3 -11    5.50    2.30
  -2   3  11    6.90    1.60
  -2   3  11    3.60    1.20
  -2   3  11    8.20    2.60
  -2   3  11    5.10    2.40
   1  -3 -11  247.08    9.50
   1  -3 -11  247.48    9.30
   1  -3 -11  251.57   10.10
   1  -3 -11  251.37    8.20
   1  -3 -11  252.47    8.40
  -1   3  11  247.58    8.20
  -1   3  11  250.47    7.10
  -1   3  11  239.68    8.40
   0  -3 -11  172.48    8.20
   0  -3 -11  159.48    6.70
   0  -3 -11  154.18    7.00
   0  -3 -11  154.18    6.10
   0   3  11  155.38    6.40
   0   3  11  155.08    7.50
   0   3  11  144.79    6.90
  -1  -3 -11   23.90    2.70
  -1  -3 -11   30.50    3.40
  -1  -3 -11   25.30    4.20
  -1  -3 -11   27.90    3.60
   1   3  11   36.50    5.20
   1   3  11   22.90    3.40
   1   3  11   28.70    4.70
   1   3  11   24.10    3.50
  -2  -3 -11  118.09    5.40
  -2  -3 -11  113.09    6.60
  -2  -3 -11  111.99    5.20
  -2  -3 -11  126.09    7.70
   2   3  11  126.59    7.90
   2   3  11  114.99    5.30
   2   3  11  114.29    8.70
   2   3  11  105.29    6.00
  -3  -3 -11   12.20    3.30
  -3  -3 -11   12.30    2.60
   3   3  11   14.00    5.50
   3   3  11   12.70    3.30
   3   3  11   10.90    3.20
   3   3  11    8.00    5.90
  -4  -3 -11   18.80    4.40
  -4  -3 -11   19.30    4.20
  -4  -3 -11   23.50    2.90
   4   3  11   18.10    3.70
   4   3  11   12.30    6.80
   4   3  11   20.70    3.60
   4   3  11   24.10    5.20
  -5  -3 -11    5.30    4.10
  -5  -3 -11   10.40    4.60
   5   3  11    7.80    5.80
  -6  -3 -11   27.00    6.70
  -6  -3 -11   24.60    4.60
   6   3  11   41.10   10.30
   5  -4 -11    0.40    4.60
  -5   4  11    0.60    3.30
  -5   4  11    4.90    2.30
  -5   4  11    4.60    1.90
   4  -4 -11  220.58   10.50
  -4   4  11  194.28    7.00
  -4   4  11  197.88    9.50
  -4   4  11  200.28    8.60
   3  -4 -11  164.28    8.60
   3  -4 -11  166.88    9.70
   3  -4 -11  173.18    7.10
  -3   4  11  170.88    8.20
  -3   4  11  162.88    6.20
  -3   4  11  165.68    7.00
   2  -4 -11   28.00    3.60
   2  -4 -11   24.40    3.40
   2  -4 -11   29.10    4.10
   2  -4 -11   23.80    4.70
  -2   4  11   23.10    3.30
  -2   4  11   26.50    3.40
  -2   4  11   25.80    2.10
  -2   4  11   21.80    2.80
   1  -4 -11  638.94   17.10
   1  -4 -11  674.63   18.60
   1  -4 -11  665.53   16.50
   1  -4 -11  661.53   18.00
   1  -4 -11  650.13   16.70
  -1   4  11  675.73   16.70
  -1   4  11  655.63   16.30
  -1   4  11  675.23   15.50
   0  -4 -11    2.70    2.00
   0  -4 -11    4.70    3.60
   0  -4 -11    3.00    1.60
   0  -4 -11    2.40    2.60
   0   4  11    3.60    2.10
   0   4  11    2.60    1.90
   0   4  11    1.80    2.90
   0   4  11    3.20    2.70
  -1  -4 -11  128.39    7.00
  -1  -4 -11  132.99    6.00
  -1  -4 -11  123.69    5.50
  -1  -4 -11  124.19    5.00
  -1  -4 -11  123.79    6.20
   1   4  11  121.79    5.70
   1   4  11  116.89    7.70
   1   4  11  115.69    7.60
   1   4  11  130.69    6.50
  -2  -4 -11   15.30    4.20
  -2  -4 -11   16.20    3.30
  -2  -4 -11   21.20    3.20
  -2  -4 -11   19.50    3.20
   2   4  11   20.10    5.20
   2   4  11   24.50    4.40
   2   4  11   17.30    3.40
   2   4  11   18.40    3.70
  -3  -4 -11  101.39    5.40
  -3  -4 -11  107.09    7.30
   3   4  11   95.19    6.20
   3   4  11  121.79   10.00
   3   4  11  104.29    8.90
   3   4  11  104.99    6.50
  -4  -4 -11   85.99    6.90
  -4  -4 -11   78.79    4.60
  -4  -4 -11   73.79    6.80
   4   4  11   71.09    5.20
   4   4  11   63.69    9.10
   4   4  11   78.79    6.00
   4   4  11   71.99    8.60
  -5  -4 -11    2.80    3.60
  -5  -4 -11    0.40    4.20
   5   4  11   16.60    8.50
  -6  -4 -11   18.50    6.40
  -6  -4 -11   14.40    3.90
   6   4  11   12.00    7.00
   5  -5 -11    7.20    4.10
  -5   5  11    5.80    3.30
  -5   5  11    1.50    2.30
   4  -5 -11   72.29    7.70
  -4   5  11   79.49    5.90
  -4   5  11   71.49    4.60
   3  -5 -11    2.70    2.30
   3  -5 -11    5.40    3.40
   3  -5 -11    7.80    4.60
  -3   5  11    2.70    2.40
  -3   5  11    3.80    2.30
  -3   5  11    5.20    1.40
  -3   5  11    6.90    2.60
   2  -5 -11  179.38    8.60
   2  -5 -11  184.38   10.10
   2  -5 -11  188.58    8.40
   2  -5 -11  196.98    7.80
  -2   5  11  183.38    5.70
  -2   5  11  181.68    7.50
  -2   5  11  184.78    6.90
  -2   5  11  190.18    7.40
   1  -5 -11   22.00    4.10
   1  -5 -11   24.20    3.80
   1  -5 -11   19.60    2.90
   1  -5 -11   20.60    3.70
  -1   5  11   27.30    3.70
  -1   5  11   27.40    3.30
   0  -5 -11  243.58    9.50
   0  -5 -11  220.88   10.20
   0  -5 -11  238.88    8.60
   0  -5 -11  241.28    8.40
   0   5  11  240.48    9.00
   0   5  11  230.58    7.90
   0   5  11  223.48    8.70
   0   5  11  235.38    9.00
  -1  -5 -11   75.39    3.90
  -1  -5 -11   70.09    6.30
  -1  -5 -11   69.69    5.00
  -1  -5 -11   77.69    4.60
   1   5  11   79.29    6.50
   1   5  11   66.39    4.60
   1   5  11   76.69    6.30
   1   5  11   73.79    5.70
  -2  -5 -11   43.80    4.10
  -2  -5 -11   46.10    4.80
  -2  -5 -11   40.40    3.70
  -2  -5 -11   54.49    5.90
   2   5  11   38.70    4.40
   2   5  11   39.00    4.20
   2   5  11   39.60    6.10
   2   5  11   50.39    5.60
  -3  -5 -11   87.69    5.40
  -3  -5 -11   99.59    8.00
  -3  -5 -11   93.39    7.00
   3   5  11  103.09    9.50
   3   5  11   92.59    6.40
   3   5  11   88.89    8.50
   3   5  11  101.09    7.20
  -4  -5 -11    0.20    3.70
  -4  -5 -11    2.50    2.80
  -4  -5 -11   -0.50    3.30
   4   5  11    5.60    3.40
   4   5  11   -4.80    5.80
   4   5  11   -2.60    5.90
   4   5  11   -5.60    3.70
  -5  -5 -11   27.10    4.70
  -5  -5 -11   19.80    5.90
   5   5  11   23.40    5.20
   5   5  11   21.90    8.50
  -6  -5 -11   -5.80    4.90
  -6  -5 -11    3.40    2.90
   6   5  11  -10.10    8.10
   5  -6 -11   13.40    6.00
  -5   6  11    7.50    2.80
  -5   6  11   15.00    3.90
   4  -6 -11   -7.00    4.60
  -4   6  11    2.20    2.10
  -4   6  11    1.80    2.90
   3  -6 -11  134.09    9.50
   3  -6 -11  126.29    8.10
   3  -6 -11  127.89    8.80
   3  -6 -11  147.79    7.10
  -3   6  11  134.79    6.90
  -3   6  11  134.59    5.50
  -3   6  11   89.89    6.30
   2  -6 -11  292.37   12.70
   2  -6 -11  274.47   11.00
   2  -6 -11  285.17   10.00
   2  -6 -11  275.57   10.90
  -2   6  11  310.57    9.80
  -2   6  11  301.37    9.70
  -2   6  11  259.77    7.80
   1  -6 -11  141.59    6.50
   1  -6 -11  138.09    7.30
   1  -6 -11  146.19    9.40
   1  -6 -11  130.19    7.80
  -1   6  11  148.79    7.20
   0  -6 -11  176.38    7.80
   0  -6 -11  201.18    8.10
   0  -6 -11  192.48    8.60
   0  -6 -11  205.38   10.20
   0   6  11  191.08    8.50
   0   6  11  188.78    8.00
   0   6  11  196.18    8.40
  -1  -6 -11    8.00    2.90
  -1  -6 -11   14.50    4.40
  -1  -6 -11    3.80    2.50
   1   6  11    7.40    3.50
   1   6  11    7.10    3.60
   1   6  11    6.70    3.90
   1   6  11    9.90    2.60
  -2  -6 -11  129.69    6.20
  -2  -6 -11  150.58    9.10
  -2  -6 -11  136.89    6.80
  -2  -6 -11  121.69    7.60
   2   6  11  134.79    9.50
   2   6  11  127.89    9.10
   2   6  11  139.79    7.90
   2   6  11  141.39    7.50
  -3  -6 -11    9.50    4.10
  -3  -6 -11    4.70    3.30
  -3  -6 -11    7.80    2.80
   3   6  11   11.00    3.60
   3   6  11    3.90    3.90
   3   6  11    2.30    5.40
   3   6  11    5.80    4.30
  -4  -6 -11   42.50    5.20
  -4  -6 -11   34.10    5.90
  -4  -6 -11   42.20    4.00
   4   6  11   41.20    6.50
   4   6  11   44.80    8.20
   4   6  11   46.70    6.20
   4   6  11   35.10    4.90
  -5  -6 -11   46.70    5.00
  -5  -6 -11   32.90    6.70
   5   6  11   45.40    6.40
   5   6  11   48.10    8.00
  -6  -6 -11    2.80    3.80
  -6  -6 -11    2.30    5.40
   6   6  11   10.90    9.00
   4  -7 -11    0.60    5.20
  -4   7  11    9.10    3.30
  -4   7  11    1.70    2.30
   3  -7 -11  218.08    9.20
   3  -7 -11  207.78   10.80
   3  -7 -11  230.98   11.90
  -3   7  11  207.78    7.20
  -3   7  11  240.78    9.60
   2  -7 -11   -0.10    2.90
   2  -7 -11   -1.00    3.20
   2  -7 -11   -1.60    3.90
   2  -7 -11   -1.00    1.80
  -2   7  11   -2.30    2.60
  -2   7  11   -0.30    1.60
   1  -7 -11  217.28    9.70
   1  -7 -11  219.88   10.70
   1  -7 -11  230.58    9.20
   1  -7 -11  207.78    9.10
  -1   7  11  232.38    9.90
  -1   7  11  224.78    9.10
   0  -7 -11   14.40    4.50
   0  -7 -11    8.10    2.80
   0  -7 -11    6.60    4.40
   0  -7 -11    8.30    3.20
   0   7  11   11.20    2.90
   0   7  11   11.10    3.20
  -1  -7 -11   95.69    6.90
  -1  -7 -11  111.29    8.60
  -1  -7 -11  110.19    6.50
  -1  -7 -11  100.09    5.60
   1   7  11  102.59    7.10
   1   7  11   98.49    6.20
   1   7  11   92.79    7.10
  -2  -7 -11  114.89    8.20
  -2  -7 -11  139.79    9.20
  -2  -7 -11  131.19    7.00
   2   7  11  119.59    8.00
   2   7  11  149.29    8.60
   2   7  11  120.69    7.60
   2   7  11  119.09    8.80
  -3  -7 -11   33.00    5.70
  -3  -7 -11   35.50    5.90
  -3  -7 -11   33.80    4.20
   3   7  11   32.70    5.00
   3   7  11   37.20    6.80
   3   7  11   31.40    5.70
   3   7  11   34.60    5.70
  -4  -7 -11   36.70    6.80
  -4  -7 -11   44.50    5.10
   4   7  11   51.99    8.30
   4   7  11   43.60    6.70
   4   7  11   54.49    6.00
  -5  -7 -11    8.20    3.50
  -5  -7 -11   10.90    5.90
   5   7  11   -1.60    7.10
   5   7  11    8.90    5.40
   4  -8 -11   13.50    5.10
  -4   8  11   10.10    3.10
   3  -8 -11    2.90    5.30
   3  -8 -11   11.00    5.00
  -3   8  11   11.60    3.60
   2  -8 -11   46.90    5.50
   2  -8 -11   44.60    6.40
   2  -8 -11   39.10    4.40
   2  -8 -11   34.10    6.60
  -2   8  11   36.80    4.40
  -2   8  11   39.40    4.70
   1  -8 -11   91.49    6.60
   1  -8 -11   94.89    8.10
   1  -8 -11   98.69    6.80
   1  -8 -11  101.79    8.30
  -1   8  11   90.69    7.20
  -1   8  11  102.99    7.70
   0  -8 -11   30.30    5.00
   0  -8 -11   25.80    5.80
   0  -8 -11   27.10    4.40
   0   8  11   24.60    4.80
   0   8  11   29.10    4.80
  -1  -8 -11   27.80    4.30
  -1  -8 -11   30.20    4.80
  -1  -8 -11   28.20    5.70
   1   8  11   32.70    4.90
   1   8  11   30.30    4.40
  -2  -8 -11    1.40    2.30
  -2  -8 -11    2.40    4.50
   2   8  11   -3.90    4.60
   2   8  11    0.80    4.10
   2   8  11    3.40    4.40
   2   8  11    3.90    3.80
  -3  -8 -11   56.89    5.20
  -3  -8 -11   51.69    6.80
  -3  -8 -11   49.20    7.20
   3   8  11   56.89    7.10
   3   8  11   42.20    6.30
   3   8  11   46.80    7.50
   3   8  11   53.79    6.20
  -4  -8 -11    2.10    4.90
  -4  -8 -11    0.30    2.90
  -4  -8 -11    0.10    2.60
   4   8  11    9.50    6.70
   4   8  11    5.00    4.00
   4   8  11    2.70    5.40
  -5  -8 -11    8.20    6.00
   5   8  11    6.90    5.60
   5   8  11    9.70    7.50
   3  -9 -11   24.60    6.90
   3  -9 -11   23.00    6.40
  -3   9  11   27.00    4.70
   2  -9 -11   98.49    7.50
   2  -9 -11  134.09   10.90
   2  -9 -11  103.69    9.20
  -2   9  11   97.19    6.90
  -2   9  11  112.79    7.10
   1  -9 -11    1.40    3.50
   1  -9 -11    0.60    4.00
   1  -9 -11    6.60    5.10
   1  -9 -11    3.20    2.20
  -1   9  11    3.50    3.80
  -1   9  11    8.10    4.30
   0  -9 -11  145.79    8.50
   0  -9 -11  130.59   10.20
   0  -9 -11  128.89   10.50
   0   9  11  143.49    8.90
   0   9  11  133.19    7.80
  -1  -9 -11    7.90    5.00
  -1  -9 -11   -3.30    4.50
  -1  -9 -11   -3.10    3.00
   1   9  11    1.50    3.10
   1   9  11   -3.50    3.50
  -2  -9 -11   54.59    7.10
  -2  -9 -11   66.39    5.60
   2   9  11   70.29    6.90
   2   9  11   61.59    6.20
  -3  -9 -11   59.99    8.50
  -3  -9 -11   62.89    5.70
  -3  -9 -11   59.59    7.00
   3   9  11   67.69    7.10
   3   9  11   69.89    7.90
   3   9  11   50.99    6.70
   3   9  11   48.00    7.40
  -4  -9 -11    3.80    5.80
  -4  -9 -11   12.40    3.40
   4   9  11   13.60    4.90
   4   9  11   18.40    6.90
   4   9  11   11.70    5.80
  -5  -9 -11   16.70    7.30
   5   9  11   20.70    6.50
   5   9  11   21.20    7.90
   2 -10 -11   34.70    6.40
   2 -10 -11   31.20    6.90
   2 -10 -11   34.00    5.50
  -2  10  11   29.30    4.60
  -2  10  11   35.90    4.80
   1 -10 -11    7.70    5.70
   1 -10 -11   12.00    6.40
   1 -10 -11    5.70    3.00
  -1  10  11   11.90    4.40
  -1  10  11   16.20    4.90
   0 -10 -11   70.39    8.50
   0 -10 -11   57.29    7.70
   0 -10 -11   61.29    5.80
   0  10  11   68.49    7.30
   0  10  11   60.79    6.70
  -1 -10 -11   15.70    4.40
  -1 -10 -11   12.80    5.70
  -1 -10 -11   17.80    4.90
   1  10  11   15.70    5.20
   1  10  11   15.40    5.00
  -2 -10 -11   11.60    3.30
  -2 -10 -11   13.00    5.70
   2  10  11    5.20    3.30
   2  10  11   13.20    5.20
  -3 -10 -11   -4.80    4.60
  -3 -10 -11    8.60    3.70
  -3 -10 -11    2.50    5.80
   3  10  11    1.50    3.80
   3  10  11    1.60    3.10
  -4 -10 -11   25.60    4.10
  -4 -10 -11   23.00    7.40
   4  10  11   29.00    7.00
   4  10  11   38.20    6.40
   4  10  11   19.80    6.60
   1 -11 -11   70.19    7.20
   1 -11 -11   62.99    7.60
   1 -11 -11   62.69    7.70
  -1  11  11   87.89    6.90
  -1  11  11   53.69    6.30
   0 -11 -11    0.10    3.90
   0 -11 -11    4.70    4.20
   0 -11 -11    3.60    5.80
   0  11  11    6.30    3.50
   0  11  11   -5.10    4.00
  -1 -11 -11   27.80    6.50
  -1 -11 -11   31.80    5.40
  -1 -11 -11   30.60    7.00
   1  11  11   27.70    5.80
   1  11  11   43.30    6.50
  -2 -11 -11    8.10    4.10
  -2 -11 -11    3.00    5.30
   2  11  11    6.90    4.80
   2  11  11    8.10    5.50
  -3 -11 -11   13.60    5.50
  -3 -11 -11   25.60    7.40
  -3 -11 -11   13.80    4.10
   3  11  11   10.90    5.80
   3  11  11   16.20    5.60
  -1 -12 -11   18.30    5.40
   1  12  11   22.80    6.00
   2   9 -12    1.80    6.90
   2   9 -12    3.90    4.40
  -2  -9  12   15.00    5.10
  -2  -9  12    6.50    4.00
   1   9 -12   39.10    7.90
   1   9 -12   32.10    5.90
  -1  -9  12   32.00    6.20
   0   9 -12   33.50    6.00
   0   9 -12   41.20    7.80
   0  -9  12   38.10    6.40
   0  -9  12   37.10    6.60
  -1   9 -12   -6.50    4.80
  -1   9 -12   -2.00    3.10
   1  -9  12    3.70    4.80
   1  -9  12    4.40    3.70
   3   8 -12    9.80    6.40
   3   8 -12   16.10    4.90
   3   8 -12   28.90    5.70
  -3  -8  12    8.90    3.70
  -3  -8  12    9.50    4.70
   2   8 -12   26.60    4.50
   2   8 -12   18.40    8.20
  -2  -8  12   26.00    4.50
  -2  -8  12   15.80    4.80
   1   8 -12   34.10    5.70
   1   8 -12   15.80    5.70
  -1  -8  12   21.70    4.50
   0   8 -12    2.00    4.10
   0   8 -12    4.40    5.70
   0  -8  12    1.70    3.30
   0  -8  12    1.90    3.20
  -1   8 -12   17.20    5.00
  -1   8 -12   17.10    5.10
   1  -8  12   16.60    4.50
   1  -8  12   16.30    5.30
  -2   8 -12   -1.50    3.70
  -2   8 -12    2.80    4.80
   2  -8  12    0.60    5.10
   2  -8  12   -0.90    4.50
   4   7 -12   42.70    9.90
  -4  -7  12   41.60    7.00
   3   7 -12   19.90    4.80
   3   7 -12   23.80    8.60
  -3  -7  12   16.70    4.10
  -3  -7  12   15.90    4.00
   2   7 -12   99.99   11.20
   2   7 -12  109.89    7.70
   2   7 -12   89.79    7.40
  -2  -7  12  102.59    8.10
  -2  -7  12   82.79    7.60
   1   7 -12    2.40    4.00
   1   7 -12   -1.20    6.70
  -1  -7  12   -1.00    4.10
  -1  -7  12    2.40    4.50
   0   7 -12   66.39    6.50
   0   7 -12   67.39    8.60
   0  -7  12   73.09    7.30
   0  -7  12   77.09    7.50
  -1   7 -12   28.00    6.50
  -1   7 -12   35.60    5.50
   1  -7  12   37.00    5.00
   1  -7  12   36.20    5.60
  -2   7 -12   15.20    5.30
  -2   7 -12   24.10    4.80
   2  -7  12   24.60    5.40
   2  -7  12   13.90    5.90
  -3   7 -12   45.90    5.40
   3  -7  12   52.09    6.90
   3  -7  12   62.99    8.40
   3  -7  12   44.80    6.50
   5   6 -12    0.70    7.50
  -5  -6  12   16.20    5.70
   4   6 -12   -1.60    7.20
  -4  -6  12    2.70    4.70
   3   6 -12   95.99   10.90
   3   6 -12   88.59    6.90
  -3  -6  12   90.19    7.40
  -3  -6  12   91.59    6.60
   2   6 -12   62.99    9.50
   2   6 -12   77.09    6.60
  -2  -6  12   71.49    6.60
   1   6 -12   39.10    8.20
   1   6 -12   28.30    4.70
  -1  -6  12   33.20    5.20
  -1  -6  12   34.50    4.70
   0   6 -12   70.49    5.80
   0   6 -12   81.19    7.90
   0  -6  12   75.49    7.50
   0  -6  12   75.59    6.70
  -1   6 -12    0.10    3.60
  -1   6 -12    1.10    4.70
   1  -6  12    1.90    3.70
   1  -6  12    4.40    4.80
  -2   6 -12   47.10    6.80
  -2   6 -12   41.70    5.40
  -2   6 -12   49.70    5.20
   2  -6  12   55.09    7.10
   2  -6  12   46.00    5.90
   2  -6  12   51.59    6.60
  -3   6 -12    7.10    3.60
  -3   6 -12   13.00    3.80
   3  -6  12   12.50    4.80
   3  -6  12    6.40    4.30
   3  -6  12   19.50    6.00
  -4   6 -12   31.00    5.00
   4  -6  12   37.20    8.00
   4  -6  12   31.90    6.40
   4  -6  12   44.70    6.30
   5   5 -12   17.30    7.50
  -5  -5  12   19.50    5.90
   4   5 -12    2.70    6.70
  -4  -5  12    1.40    3.10
   3   5 -12   79.79    6.50
   3   5 -12   86.69    8.80
   3   5 -12   85.59    6.40
  -3  -5  12   90.09    8.10
  -3  -5  12   92.89    6.70
   2   5 -12    0.40    6.00
   2   5 -12    0.60    3.50
   2   5 -12   -1.10    3.00
  -2  -5  12    3.90    3.40
   1   5 -12   44.50    4.90
   1   5 -12   46.60    8.00
  -1  -5  12   58.69    5.80
  -1  -5  12   44.00    6.40
   0   5 -12    1.90    3.00
   0   5 -12   -2.30    5.50
   0  -5  12    7.90    4.30
   0  -5  12    0.10    2.00
  -1   5 -12   36.70    4.70
  -1   5 -12   41.90    6.50
   1  -5  12   32.10    5.00
   1  -5  12   30.80    6.20
  -2   5 -12   38.10    4.90
  -2   5 -12   33.80    4.40
  -2   5 -12   34.40    5.70
   2  -5  12   40.50    4.70
   2  -5  12   46.30    5.50
   2  -5  12   42.00    5.60
   2  -5  12   32.80    6.70
  -3   5 -12   36.80    5.70
  -3   5 -12   27.90    4.60
  -3   5 -12   31.20    4.40
   3  -5  12   28.20    4.70
   3  -5  12   29.30    6.50
   3  -5  12   29.40    5.30
   3  -5  12   19.50    6.70
  -4   5 -12   57.79    6.40
   4  -5  12   65.69    8.00
   4  -5  12   63.69    8.70
   4  -5  12   63.29    6.80
   5   4 -12    5.50    4.60
  -5  -4  12   -3.10    3.10
   4   4 -12   17.70    6.40
   4   4 -12   16.40    4.10
  -4  -4  12   15.10    5.10
   3   4 -12   24.90    4.40
   3   4 -12   25.30    4.00
   3   4 -12   19.90    6.30
  -3  -4  12   17.00    3.20
  -3  -4  12   16.50    4.70
   2   4 -12  135.49    8.00
   2   4 -12  152.18    7.40
   2   4 -12  143.39   11.20
  -2  -4  12  151.88    9.20
  -2  -4  12  125.89    7.20
   1   4 -12   90.29    6.20
   1   4 -12  110.69    8.40
   1   4 -12   99.19    7.30
  -1  -4  12   97.89    7.80
  -1  -4  12   83.89    6.40
   0   4 -12   26.80    6.40
   0   4 -12   25.10    4.00
   0  -4  12   19.60    4.00
   0  -4  12   28.30    5.30
  -1   4 -12  131.09    7.20
  -1   4 -12  124.89    9.30
   1  -4  12  135.29    9.40
   1  -4  12  132.09    7.10
   1  -4  12  134.49    8.20
  -2   4 -12    3.80    3.20
  -2   4 -12    8.80    4.10
   2  -4  12    2.60    4.90
   2  -4  12    3.30    3.40
   2  -4  12    2.00    3.40
  -3   4 -12   90.69    7.60
  -3   4 -12   82.79    6.20
  -3   4 -12   84.29    6.20
   3  -4  12   90.99    7.80
   3  -4  12   87.09    8.30
   3  -4  12   94.29    6.90
  -4   4 -12    7.40    3.70
  -4   4 -12    6.30    3.40
   4  -4  12   10.40    4.00
   4  -4  12   15.60    7.00
   4  -4  12    7.20    4.10
  -5   4 -12   46.60    6.20
   5  -4  12   36.20    8.80
   5  -4  12   47.70    7.20
   5   3 -12   15.10    6.70
  -5  -3  12   14.60    4.60
   4   3 -12   40.80    5.00
   4   3 -12   49.00    7.70
  -4  -3  12   55.39    7.00
   3   3 -12   14.60    5.40
   3   3 -12    5.90    2.60
   3   3 -12    7.50    3.50
  -3  -3  12    8.20    2.80
  -3  -3  12   15.70    4.30
   2   3 -12  180.78    7.80
   2   3 -12  179.88    8.00
   2   3 -12  183.08    9.90
  -2  -3  12  199.48    8.00
  -2  -3  12  185.18    9.70
   1   3 -12   11.90    3.90
   1   3 -12   13.80    3.20
   1   3 -12   12.60    5.30
  -1  -3  12   15.60    3.70
  -1  -3  12   13.20    3.40
   0   3 -12   17.40    4.20
   0   3 -12   23.40    3.10
   0   3 -12   19.10    5.80
   0  -3  12   19.80    4.00
   0  -3  12   17.10    4.00
  -1   3 -12    8.60    3.10
  -1   3 -12    6.80    4.80
   1  -3  12    7.10    4.60
   1  -3  12   11.30    3.00
   1  -3  12    7.70    2.80
  -2   3 -12  111.99    6.50
  -2   3 -12  105.89    7.60
   2  -3  12  107.79    9.00
   2  -3  12  106.39    8.00
   2  -3  12  110.59    7.30
  -3   3 -12   30.80    4.60
  -3   3 -12   36.60    4.40
  -3   3 -12   41.10    4.30
   3  -3  12   42.40    5.90
   3  -3  12   45.10    5.60
   3  -3  12   46.20    7.90
  -4   3 -12   15.10    3.70
  -4   3 -12   13.40    4.30
   4  -3  12   28.50    7.70
   4  -3  12   12.60    4.30
  -5   3 -12   46.50    5.80
   5  -3  12   55.39    9.80
   5   2 -12  100.79    9.10
  -5  -2  12  105.59    9.80
   4   2 -12   14.50    5.60
   4   2 -12    9.90    3.80
  -4  -2  12    6.20    2.20
  -4  -2  12   14.50    4.90
   3   2 -12   98.59    5.20
   3   2 -12  100.79    6.90
   3   2 -12   97.19    9.10
  -3  -2  12  102.09    4.50
  -3  -2  12  107.99    5.30
  -3  -2  12  108.29    8.20
   2   2 -12  126.09    7.30
   2   2 -12  122.49    5.80
   2   2 -12  134.19    8.20
   2   2 -12  148.39    6.60
  -2  -2  12  129.69    7.90
  -2  -2  12  132.09    6.60
   1   2 -12  162.38    9.40
   1   2 -12  142.79    7.00
   1   2 -12  149.59    6.30
  -1  -2  12  141.89    7.50
  -1  -2  12  158.18    7.10
   0   2 -12  322.37   11.00
   0   2 -12  339.87   13.00
   0   2 -12  336.57   10.50
   0  -2  12  367.96   11.70
   0  -2  12  338.17   11.70
   0  -2  12  342.47   12.60
  -1   2 -12   44.90    4.30
  -1   2 -12   50.19    6.30
   1  -2  12   59.09    5.40
   1  -2  12   58.19    5.30
   1  -2  12   53.49    6.40
  -2   2 -12  255.17    9.00
  -2   2 -12  233.08    9.90
   2  -2  12  243.48   11.00
   2  -2  12  242.58    9.80
   2  -2  12  233.08   11.20
  -3   2 -12    7.10    3.70
  -3   2 -12   11.40    3.10
  -3   2 -12    9.60    2.90
   3  -2  12    8.60    2.70
   3  -2  12   11.80    4.70
   3  -2  12   19.20    6.70
  -4   2 -12   37.90    3.80
  -4   2 -12   38.50    5.00
   4  -2  12   37.30    5.10
   4  -2  12   38.90    6.90
   4  -2  12   34.70    5.30
  -5   2 -12   10.00    4.40
   5  -2  12    2.30    5.40
   6   1 -12   -0.50    4.00
  -6  -1  12   -2.60    2.70
  -6  -1  12   -0.10    3.30
   5   1 -12   39.20    7.30
  -5  -1  12   41.00    4.40
  -5  -1  12   36.30    6.50
   4   1 -12   11.20    4.00
   4   1 -12   21.50    5.00
  -4  -1  12   13.40    2.60
  -4  -1  12   20.70    5.20
   3   1 -12  133.79    7.70
   3   1 -12  154.78    9.00
   3   1 -12  140.49    6.30
  -3  -1  12  141.99    8.90
  -3  -1  12  134.69    5.70
  -3  -1  12  140.09    5.50
   2   1 -12   -0.80    2.60
   2   1 -12    8.00    3.40
   2   1 -12    7.20    4.00
   2   1 -12    1.60    2.20
  -2  -1  12    2.60    1.50
  -2  -1  12    8.90    3.40
   1   1 -12  304.47    9.60
   1   1 -12  300.57   10.10
   1   1 -12  288.27    9.70
   1   1 -12  302.47   11.70
  -1  -1  12  309.87   10.40
  -1  -1  12  306.47   10.80
   0   1 -12   84.49    7.00
   0   1 -12   78.79    5.00
   0   1 -12   84.39    6.40
   0  -1  12   80.69    5.70
   0  -1  12   90.29    7.00
   0  -1  12   79.19    6.50
  -1   1 -12   17.10    2.60
  -1   1 -12   16.30    4.10
  -1   1 -12   16.00    4.60
   1  -1  12   10.60    2.60
   1  -1  12   14.50    3.30
   1  -1  12   11.00    4.70
  -2   1 -12    8.30    2.80
  -2   1 -12    5.30    3.30
   2  -1  12    0.90    2.80
   2  -1  12    4.90    3.10
   2  -1  12    4.80    3.90
  -3   1 -12   90.09    6.80
  -3   1 -12   80.99    5.30
   3  -1  12   66.49    8.60
   3  -1  12   77.09    6.30
   3  -1  12   75.79    7.40
  -4   1 -12   21.00    3.90
  -4   1 -12   28.70    3.30
   4  -1  12   34.40    4.80
   4  -1  12   32.80    6.40
   4  -1  12   27.00    8.10
  -5   1 -12    2.10    4.00
   5  -1  12    4.30    5.70
  -6   1 -12   18.10    5.10
   6  -1  12   18.70    7.10
   6   0 -12   75.19    8.70
  -6   0  12   70.89    8.40
  -6   0  12   63.99    5.50
   5   0 -12    3.60    5.20
  -5   0  12    1.40    2.60
  -5   0  12   -0.70    4.00
   4   0 -12  123.49   10.50
   4   0 -12   97.29    7.40
  -4   0  12  116.99    9.30
  -4   0  12  114.59    5.80
   3   0 -12   44.20    5.20
   3   0 -12   51.09    6.70
   3   0 -12   54.79    4.20
   3   0 -12   50.79    4.80
  -3   0  12   56.99    3.80
  -3   0  12   49.00    3.80
  -3   0  12   54.39    5.60
   2   0 -12  179.38    7.80
   2   0 -12  180.98    9.70
   2   0 -12  196.98    7.00
   2   0 -12  188.38    8.00
  -2   0  12  199.18    7.70
  -2   0  12  176.58    8.00
  -2   0  12  190.38    6.00
   1   0 -12  121.69    7.50
   1   0 -12  122.59    6.60
   1   0 -12  127.49    7.00
   1   0 -12  127.09    5.90
  -1   0  12  115.19    4.00
  -1   0  12  127.99    6.50
  -1   0  12  134.39    6.60
   0   0 -12  309.27   11.20
   0   0 -12  336.17    9.80
   0   0 -12  326.57   10.40
   0   0 -12  325.47   10.50
   0   0  12  327.67   11.60
   0   0  12  320.47   11.70
   0   0  12  334.97   10.70
  -1   0 -12  182.88    7.10
  -1   0 -12  169.58    8.20
  -1   0 -12  170.28    8.30
   1   0  12  175.28    9.60
   1   0  12  184.98    8.00
   1   0  12  180.38    8.30
  -2   0 -12  116.19    6.50
  -2   0 -12  122.69    6.00
   2   0  12  129.89    8.40
   2   0  12   99.89    7.10
   2   0  12  126.19    6.90
  -3   0 -12  185.58    6.90
   3   0  12  179.48   10.70
   3   0  12  182.08   10.70
   3   0  12  186.98    8.10
  -4   0 -12   30.70    3.80
  -4   0 -12   21.70    4.70
   4   0  12   26.00    7.60
   4   0  12   34.90    4.30
   4   0  12   20.10    6.00
  -5   0 -12    6.30    3.90
   5   0  12    6.90    6.00
  -6   0 -12    2.30    4.50
   6   0  12    9.40    6.70
   6  -1 -12   57.19    7.90
  -6   1  12   49.10    4.90
  -6   1  12   47.00    7.10
   5  -1 -12    9.10    5.30
  -5   1  12    0.20    2.60
  -5   1  12    4.70    4.10
   4  -1 -12   36.30    5.10
   4  -1 -12   32.00    5.00
   4  -1 -12   44.70    6.20
  -4   1  12   36.30    5.50
  -4   1  12   40.90    3.90
   3  -1 -12   33.60    4.20
   3  -1 -12   35.50    3.60
   3  -1 -12   36.00    4.50
   3  -1 -12   34.50    5.60
  -3   1  12   43.30    5.40
  -3   1  12   35.00    3.30
   2  -1 -12  577.64   15.80
   2  -1 -12  591.64   14.90
   2  -1 -12  606.14   16.70
   2  -1 -12  608.04   18.10
  -2   1  12  589.04   13.80
  -2   1  12  556.24   15.20
  -2   1  12  591.54   15.10
   1  -1 -12   47.80    4.80
   1  -1 -12   45.20    5.00
   1  -1 -12   37.20    3.80
   1  -1 -12   43.70    3.40
  -1   1  12   39.30    2.50
  -1   1  12   46.90    4.10
  -1   1  12   45.70    4.60
   0  -1 -12  321.77   10.80
   0  -1 -12  344.97   11.20
   0  -1 -12  340.27   10.00
   0  -1 -12  325.97   11.20
   0   1  12  322.77   10.30
   0   1  12  323.57   11.10
   0   1  12  340.47   11.50
  -1  -1 -12   63.49    5.50
  -1  -1 -12   66.79    5.60
  -1  -1 -12   65.59    5.50
  -1  -1 -12   75.59    4.70
   1   1  12   64.69    5.10
   1   1  12   65.49    5.90
   1   1  12   68.89    5.70
  -2  -1 -12   52.49    5.30
  -2  -1 -12   45.80    3.60
  -2  -1 -12   42.70    4.50
   2   1  12   45.60    7.10
   2   1  12   52.49    6.30
   2   1  12   51.49    4.80
  -3  -1 -12    1.50    2.50
   3   1  12    2.60    2.80
   3   1  12    3.00    4.70
   3   1  12   -3.60    4.00
  -4  -1 -12   25.00    4.30
  -4  -1 -12   18.70    2.90
   4   1  12   27.60    4.40
   4   1  12   29.10    8.00
   4   1  12   20.20    4.90
  -5  -1 -12   44.20    6.20
   5   1  12   39.30    8.00
  -6  -1 -12   -0.30    2.90
   6   1  12   11.00    6.80
   5  -2 -12  112.39   10.90
  -5   2  12  104.49    6.20
  -5   2  12  115.99    9.00
   4  -2 -12    5.00    4.10
   4  -2 -12   -0.30    2.90
  -4   2  12    1.70    1.60
  -4   2  12    0.70    3.20
   3  -2 -12  210.48   10.10
   3  -2 -12  222.08   11.30
   3  -2 -12  227.78    9.90
   3  -2 -12  220.28    8.00
  -3   2  12  217.08    7.80
  -3   2  12  223.18    9.70
   2  -2 -12  256.87   11.00
   2  -2 -12  224.98    9.50
   2  -2 -12  230.58    9.70
   2  -2 -12  235.98    8.20
  -2   2  12  224.68    7.30
  -2   2  12  228.98    8.30
   1  -2 -12   94.59    5.70
   1  -2 -12   99.89    6.80
   1  -2 -12   85.39    5.10
   1  -2 -12  108.69    7.00
  -1   2  12   98.19    4.00
  -1   2  12   93.39    5.60
  -1   2  12  102.99    6.30
  -1   2  12  104.79    5.90
   0  -2 -12   14.20    3.40
   0  -2 -12   12.50    3.80
   0  -2 -12   11.70    2.50
   0  -2 -12   12.60    2.30
   0   2  12   11.50    3.10
   0   2  12   20.00    3.90
   0   2  12   11.50    1.50
   0   2  12   13.30    2.90
  -1  -2 -12   73.49    4.90
  -1  -2 -12   70.99    4.70
  -1  -2 -12   69.79    5.90
  -1  -2 -12   69.29    5.40
   1   2  12   73.89    4.80
   1   2  12   80.39    6.60
   1   2  12   81.29    6.90
  -2  -2 -12   80.99    5.10
  -2  -2 -12   77.39    6.40
   2   2  12   73.99    4.70
   2   2  12   88.09    5.90
   2   2  12   80.89    7.40
   2   2  12   83.79    7.20
  -3  -2 -12   36.40    3.80
   3   2  12   34.90    7.20
   3   2  12   28.70    4.20
   3   2  12   36.30    3.50
   3   2  12   38.80    5.60
  -4  -2 -12   45.80    3.90
  -4  -2 -12   59.19    6.40
   4   2  12   28.50    5.60
   4   2  12   39.90    4.90
   4   2  12   43.60    8.70
  -5  -2 -12   58.09    6.20
   5   2  12   38.20    9.80
  -6  -2 -12    6.70    4.70
   6   2  12   -7.70    8.30
   5  -3 -12  143.99    8.90
   5  -3 -12  176.98   12.60
  -5   3  12  159.48    9.40
  -5   3  12  146.69    8.00
   4  -3 -12   12.60    4.20
   4  -3 -12   10.60    4.50
  -4   3  12   14.60    3.40
  -4   3  12    9.30    2.90
   3  -3 -12   21.70    3.20
   3  -3 -12   27.20    4.40
   3  -3 -12   25.90    4.40
   3  -3 -12   22.90    4.30
  -3   3  12   24.20    3.10
  -3   3  12   25.60    3.20
  -3   3  12   24.70    4.30
   2  -3 -12   68.09    5.30
   2  -3 -12   70.09    6.30
   2  -3 -12   81.69    5.10
   2  -3 -12   79.89    6.10
  -2   3  12   69.79    4.20
  -2   3  12   68.89    5.10
   1  -3 -12  355.86   12.40
   1  -3 -12  327.87   10.30
   1  -3 -12  320.17   11.50
   1  -3 -12  326.87   10.90
  -1   3  12  338.67    9.00
  -1   3  12  330.67   10.60
  -1   3  12  341.97   11.10
  -1   3  12  336.17   10.20
   0  -3 -12   74.79    4.90
   0  -3 -12   79.99    5.40
   0  -3 -12   68.69    5.50
   0  -3 -12   76.89    5.70
   0   3  12   81.79    6.20
   0   3  12   70.69    5.30
   0   3  12   72.99    5.60
  -1  -3 -12   97.59    6.00
  -1  -3 -12   91.69    7.20
  -1  -3 -12   97.29    5.00
  -1  -3 -12   89.49    4.80
   1   3  12   93.29    5.40
   1   3  12   78.59    5.30
   1   3  12  104.09    7.60
   1   3  12   96.09    7.50
  -2  -3 -12   22.70    3.40
  -2  -3 -12   19.10    4.30
  -2  -3 -12   21.20    3.30
   2   3  12   20.90    3.80
   2   3  12   22.60    5.40
   2   3  12   24.30    5.80
   2   3  12   23.80    3.50
  -3  -3 -12   31.20    3.50
   3   3  12   36.80    4.50
   3   3  12   43.00    7.70
   3   3  12   27.30    6.60
   3   3  12   32.40    3.80
  -4  -3 -12    3.90    2.30
  -4  -3 -12    2.60    3.90
   4   3  12    2.20    4.70
   4   3  12    2.60    2.70
   4   3  12   -2.00    3.90
   4   3  12    2.50    3.20
  -5  -3 -12   11.40    4.70
   5   3  12   -2.80    7.80
  -6  -3 -12   37.30    6.30
   6   3  12   41.10    8.60
   5  -4 -12    6.70    3.90
   5  -4 -12   -0.60    4.50
  -5   4  12    2.70    3.60
  -5   4  12    1.70    3.00
   4  -4 -12  242.58   13.60
   4  -4 -12  228.38   11.80
  -4   4  12  221.78    8.70
  -4   4  12  209.28    7.30
  -4   4  12  217.48    9.80
   3  -4 -12    3.20    3.40
   3  -4 -12    3.70    3.20
   3  -4 -12   12.40    3.90
   3  -4 -12   11.50    2.80
  -3   4  12    9.90    2.80
  -3   4  12    7.70    1.80
  -3   4  12    6.50    2.00
  -3   4  12    7.30    3.10
   2  -4 -12  124.79    7.50
   2  -4 -12  133.29    6.10
   2  -4 -12  128.69    8.80
   2  -4 -12  137.39    8.40
  -2   4  12  120.49    6.30
  -2   4  12  130.09    6.30
  -2   4  12  132.89    5.80
   1  -4 -12  386.96   11.50
   1  -4 -12  375.56   11.40
   1  -4 -12  361.06   12.10
   1  -4 -12  362.76   12.50
   1  -4 -12  371.76   12.70
  -1   4  12  380.56   11.60
  -1   4  12  379.66   11.60
  -1   4  12  374.86   10.00
   0  -4 -12   13.40    2.70
   0  -4 -12   19.10    3.30
   0  -4 -12    9.10    2.20
   0  -4 -12   15.20    4.10
   0   4  12   13.70    2.90
   0   4  12   12.30    2.70
   0   4  12    7.90    3.00
   0   4  12   11.40    3.20
  -1  -4 -12    2.00    2.60
  -1  -4 -12    2.90    2.10
  -1  -4 -12    3.70    1.90
  -1  -4 -12   -0.60    2.60
   1   4  12   -1.50    2.50
   1   4  12    0.60    3.70
   1   4  12    1.60    2.70
   1   4  12    0.80    3.80
  -2  -4 -12    6.00    2.90
  -2  -4 -12    1.00    2.50
  -2  -4 -12    6.20    3.20
   2   4  12    7.60    5.00
   2   4  12    8.30    3.10
   2   4  12    8.10    3.70
   2   4  12    7.30    3.20
  -3  -4 -12   66.29    4.90
   3   4  12   51.99    7.40
   3   4  12   60.19    7.10
   3   4  12   66.59    5.50
   3   4  12   53.99    5.30
  -4  -4 -12    3.60    3.00
  -4  -4 -12    6.50    4.10
   4   4  12    3.40    3.40
   4   4  12   -8.40    5.60
   4   4  12    2.00    6.60
   4   4  12   -0.20    3.10
  -5  -4 -12   17.80    5.00
   5   4  12   12.90    8.50
  -6  -4 -12   19.60    5.30
   6   4  12   36.80   10.60
   5  -5 -12  129.99   11.70
   5  -5 -12   68.69    8.30
  -5   5  12   77.39    6.20
  -5   5  12   66.59    4.50
   4  -5 -12   89.79    8.50
  -4   5  12  114.59    6.90
  -4   5  12  101.79    5.10
   3  -5 -12   23.00    3.20
   3  -5 -12   29.40    5.80
  -3   5  12   17.60    3.50
  -3   5  12   25.00    3.60
  -3   5  12   24.30    2.80
  -3   5  12   16.90    3.40
   2  -5 -12   44.80    4.50
   2  -5 -12   43.60    6.30
   2  -5 -12   43.10    4.20
   2  -5 -12   48.80    5.30
  -2   5  12   51.69    4.60
  -2   5  12   48.60    3.80
  -2   5  12   50.29    4.50
   1  -5 -12   12.70    3.60
   1  -5 -12   11.50    2.50
   1  -5 -12   13.60    3.30
   1  -5 -12   10.20    3.20
   1  -5 -12    9.20    3.40
  -1   5  12   11.30    3.30
  -1   5  12   11.70    2.70
   0  -5 -12  196.68    8.00
   0  -5 -12  193.18    8.00
   0  -5 -12  180.68    8.90
   0  -5 -12  209.28    8.50
   0   5  12  208.48    8.60
   0   5  12  198.78    8.10
   0   5  12  203.78    8.70
  -1  -5 -12   11.00    2.90
  -1  -5 -12   12.40    3.10
  -1  -5 -12   12.90    4.50
   1   5  12   14.80    3.60
   1   5  12   11.20    4.10
   1   5  12   12.20    4.20
   1   5  12   15.50    2.90
  -2  -5 -12   30.00    3.90
  -2  -5 -12   28.30    5.20
  -2  -5 -12   32.60    4.00
   2   5  12   27.10    4.30
   2   5  12   29.70    4.90
   2   5  12   35.50    6.10
   2   5  12   32.50    4.00
  -3  -5 -12   54.09    4.60
  -3  -5 -12   75.09    7.10
   3   5  12   65.29    8.40
   3   5  12   61.89    5.80
   3   5  12   67.19    8.00
   3   5  12   73.69    6.20
  -4  -5 -12   18.70    3.60
  -4  -5 -12   15.90    4.40
   4   5  12    7.40    3.70
   4   5  12   17.20    4.50
   4   5  12   15.70    7.40
  -5  -5 -12   -3.10    3.60
   5   5  12    5.00    6.00
   5   5  12    8.50    6.80
  -6  -5 -12   -3.50    3.70
   6   5  12    8.10    8.70
   4  -6 -12    2.00    5.40
  -4   6  12   -2.20    2.70
   3  -6 -12  194.58   10.50
   3  -6 -12  179.08    7.90
  -3   6  12  206.18    8.20
   2  -6 -12   23.90    3.90
   2  -6 -12   32.40    4.70
   2  -6 -12   22.20    4.30
   2  -6 -12   31.60    5.20
  -2   6  12   23.40    3.80
  -2   6  12   31.00    3.70
   1  -6 -12   51.69    5.10
   1  -6 -12   54.79    5.10
   1  -6 -12   45.40    5.40
   1  -6 -12   55.89    5.80
  -1   6  12   51.99    5.10
   0  -6 -12  366.56   11.70
   0  -6 -12  351.86   13.00
   0  -6 -12  338.07   11.40
   0  -6 -12  335.17   12.00
   0   6  12  342.47   11.40
   0   6  12  352.86   11.90
   0   6  12  354.06   11.60
  -1  -6 -12   15.20    4.70
  -1  -6 -12   14.40    3.40
  -1  -6 -12    9.80    2.90
   1   6  12    9.70    3.90
   1   6  12   14.80    4.00
   1   6  12   13.10    3.00
   1   6  12   11.10    4.30
  -2  -6 -12   14.00    3.20
  -2  -6 -12   14.80    4.90
  -2  -6 -12   18.10    3.40
   2   6  12   16.00    5.20
   2   6  12   16.50    4.00
   2   6  12   15.50    4.20
   2   6  12    1.10    4.70
  -3  -6 -12    4.10    2.90
  -3  -6 -12    0.20    4.40
   3   6  12   -3.70    5.50
   3   6  12   -1.50    3.90
   3   6  12   -3.90    5.20
   3   6  12    6.10    3.70
  -4  -6 -12   23.10    3.40
  -4  -6 -12   24.90    4.10
   4   6  12   22.50    4.50
   4   6  12   33.90    5.80
   4   6  12   26.40    7.90
  -5  -6 -12    1.00    2.50
   5   6  12    2.40    4.60
   5   6  12   -1.10    5.50
   4  -7 -12   30.20    7.20
  -4   7  12   31.60    4.80
   3  -7 -12  116.29    9.70
  -3   7  12   93.69    6.60
   2  -7 -12    6.40    3.50
   2  -7 -12    9.50    3.40
   2  -7 -12   14.10    3.50
   2  -7 -12   19.50    5.90
  -2   7  12   13.20    3.10
  -2   7  12    6.00    3.20
   1  -7 -12   32.80    6.10
   1  -7 -12   39.40    4.90
   1  -7 -12   44.20    4.90
   1  -7 -12   44.30    4.90
  -1   7  12   44.10    5.10
   0  -7 -12    4.20    3.90
   0  -7 -12    2.30    2.80
   0  -7 -12   -2.30    2.70
   0  -7 -12    3.60    4.50
   0   7  12    0.30    3.40
   0   7  12    2.40    3.50
  -1  -7 -12   90.69    7.80
  -1  -7 -12   67.49    5.60
  -1  -7 -12   69.79    5.30
   1   7  12   88.79    6.90
   1   7  12   72.49    6.40
   1   7  12   88.99    7.20
  -2  -7 -12   -4.30    2.70
  -2  -7 -12    2.20    4.50
   2   7  12    2.40    3.50
   2   7  12   -5.60    3.00
   2   7  12   -9.50    4.20
   2   7  12    0.20    4.00
  -3  -7 -12   37.20    4.40
  -3  -7 -12   38.30    6.50
   3   7  12   38.00    5.40
   3   7  12   29.90    7.00
   3   7  12   46.70    7.80
   3   7  12   34.30    5.80
  -4  -7 -12   18.70    4.50
  -4  -7 -12   27.00    3.80
   4   7  12   25.20    5.10
   4   7  12   23.20    5.80
   4   7  12   28.60    7.90
  -5  -7 -12   -4.70    3.30
   5   7  12    5.80    7.80
   5   7  12    0.80    4.70
   3  -8 -12    1.00    4.00
  -3   8  12    3.40    3.00
   2  -8 -12  141.49    7.50
   2  -8 -12  151.18   10.20
   2  -8 -12  162.18   11.70
  -2   8  12  143.09    7.70
  -2   8  12  155.18    7.90
   1  -8 -12   73.29    8.50
   1  -8 -12   62.39    6.00
   1  -8 -12   65.59    7.10
   1  -8 -12   57.29    5.20
  -1   8  12   70.09    6.20
   0  -8 -12   70.89    7.40
   0  -8 -12   55.79    5.10
   0  -8 -12   54.79    5.70
   0  -8 -12   61.49    6.60
   0   8  12   66.79    6.10
   0   8  12   52.99    5.30
  -1  -8 -12  232.78   10.00
  -1  -8 -12  216.08   11.90
  -1  -8 -12  219.68   10.90
   1   8  12  233.78   10.70
   1   8  12  256.97   11.10
  -2  -8 -12   -1.50    4.70
  -2  -8 -12    0.90    3.20
   2   8  12   -0.80    3.30
   2   8  12   -1.80    3.60
   2   8  12   -2.00    4.40
  -3  -8 -12   30.00    6.10
  -3  -8 -12   35.70    4.60
   3   8  12   36.20    6.00
   3   8  12   19.90    5.30
   3   8  12   37.90    5.60
   3   8  12   29.60    4.90
  -4  -8 -12   11.00    3.70
  -4  -8 -12   -1.20    3.10
   4   8  12    2.00    6.40
   4   8  12    0.00    3.80
   4   8  12   -1.30    4.90
   5   8  12    2.00    7.40
   5   8  12   12.50    5.80
   3  -9 -12   31.50    7.60
   3  -9 -12   20.00    7.10
  -3   9  12   26.20    4.10
   2  -9 -12  119.99    9.80
   2  -9 -12  134.39   10.50
   2  -9 -12  117.89    8.00
  -2   9  12  113.79    6.70
  -2   9  12   96.99    7.10
   1  -9 -12   10.50    5.90
   1  -9 -12    3.00    2.40
   1  -9 -12    9.70    3.90
   1  -9 -12    7.50    5.00
  -1   9  12    4.80    4.00
   0  -9 -12  122.99    8.20
   0  -9 -12  128.09   10.30
   0  -9 -12  122.49    9.90
   0   9  12  127.29    7.70
   0   9  12  114.09    8.50
  -1  -9 -12    0.20    4.90
  -1  -9 -12    2.40    3.40
  -1  -9 -12    2.60    5.20
   1   9  12   -1.80    3.90
   1   9  12    2.00    4.10
  -2  -9 -12   29.80    6.10
  -2  -9 -12   28.90    4.80
   2   9  12   37.90    5.90
   2   9  12   33.90    6.00
  -3  -9 -12    5.80    5.00
  -3  -9 -12   13.70    3.20
   3   9  12    9.80    4.50
   3   9  12   10.80    5.40
  -4  -9 -12   16.20    3.70
   4   9  12   14.10    6.80
   4   9  12   12.10    5.90
   4   9  12   11.20    4.80
   2 -10 -12   -5.70    5.90
   2 -10 -12    6.30    3.90
   2 -10 -12    3.00    3.90
  -2  10  12   -0.60    2.20
  -2  10  12   -0.60    3.40
   1 -10 -12   61.99    8.40
   1 -10 -12   61.99    6.10
   1 -10 -12   56.79    8.00
  -1  10  12   60.79    6.50
   0 -10 -12   19.40    5.10
   0 -10 -12   28.10    4.50
   0 -10 -12   23.90    5.30
   0  10  12   27.80    4.70
   0  10  12   25.90    5.60
  -1 -10 -12   37.90    6.80
  -1 -10 -12   50.79    6.10
  -1 -10 -12   42.60    7.60
   1  10  12   39.60    6.30
   1  10  12   41.10    6.10
  -2 -10 -12   33.30    5.50
  -2 -10 -12   35.60    5.30
   2  10  12   40.40    6.40
   2  10  12   40.50    5.50
  -3 -10 -12    0.80    2.50
  -3 -10 -12   -4.90    4.90
   3  10  12   -3.20    4.80
   3  10  12   -4.40    2.70
  -4 -10 -12   27.10    4.40
   4  10  12   23.40    5.90
   4  10  12   30.20    5.80
   1 -11 -12   98.99   10.10
   1 -11 -12   81.89    9.50
   1 -11 -12   83.89    7.60
  -1  11  12   81.69    7.20
   0 -11 -12    4.70    4.40
   0 -11 -12    7.00    4.30
   0 -11 -12   -4.00    5.60
   0  11  12   11.10    4.40
   0  11  12   -1.60    3.00
  -1 -11 -12   54.99    7.90
  -1 -11 -12   59.39    6.10
  -1 -11 -12   58.79    7.50
   1  11  12   56.29    6.50
   1  11  12   54.59    7.10
  -2 -11 -12    3.00    5.00
  -2 -11 -12    0.40    4.00
   2  11  12    8.10    5.20
   2  11  12   -1.80    4.60
   1   9 -13   12.30    4.00
   1   9 -13   14.00    7.30
  -1  -9  13    8.20    5.00
   0   9 -13    5.70    5.90
   0   9 -13   -2.80    3.20
   0  -9  13    5.40    5.00
   0  -9  13    9.40    3.90
   3   8 -13   -3.60    4.00
   3   8 -13   -9.60    7.50
  -3  -8  13    2.80    3.30
  -3  -8  13   -2.40    4.20
   2   8 -13   20.40    5.40
   2   8 -13   20.20    8.60
  -2  -8  13   19.70    4.30
  -2  -8  13   22.00    5.10
   1   8 -13   11.80    5.10
   1   8 -13   13.10    5.60
  -1  -8  13   14.00    5.10
   0   8 -13   27.90    7.10
   0   8 -13   18.40    5.00
   0  -8  13   26.60    5.20
   0  -8  13   16.30    5.50
  -1   8 -13    9.30    4.40
  -1   8 -13   10.90    3.90
   1  -8  13   12.30    5.50
   1  -8  13    4.10    5.00
  -2   8 -13    8.60    3.90
  -2   8 -13    5.30    4.60
   2  -8  13    3.10    3.80
   2  -8  13   -0.20    3.50
   4   7 -13   15.10    8.90
   3   7 -13   19.90    8.80
   3   7 -13    5.80    4.00
  -3  -7  13   15.90    5.10
  -3  -7  13   11.20    3.90
   2   7 -13   86.59   10.00
   2   7 -13   84.09    7.00
  -2  -7  13   91.99    7.60
  -2  -7  13   82.49    7.90
   1   7 -13   12.10    7.70
   1   7 -13   12.00    4.60
  -1  -7  13   22.20    5.90
  -1  -7  13    9.10    4.50
   0   7 -13   34.10    7.50
   0   7 -13   37.60    5.60
   0  -7  13   32.80    6.00
   0  -7  13   40.90    6.80
  -1   7 -13   12.00    4.70
  -1   7 -13   18.10    6.10
   1  -7  13   12.80    5.50
   1  -7  13   12.10    4.00
  -2   7 -13    6.00    4.90
  -2   7 -13    4.70    3.10
   2  -7  13   -1.80    4.30
   2  -7  13    8.70    5.90
  -3   7 -13    0.60    3.70
   3  -7  13    3.30    4.50
   3  -7  13   -2.80    4.30
   4   6 -13   -9.00    7.30
  -4  -6  13    1.70    4.60
   3   6 -13   46.20    5.80
   3   6 -13   30.40    9.00
  -3  -6  13   39.70    5.80
  -3  -6  13   30.30    4.60
   2   6 -13   13.70    4.40
   2   6 -13    6.40    8.00
  -2  -6  13   14.20    4.30
   1   6 -13   38.70    8.60
   1   6 -13   39.90    5.50
  -1  -6  13   43.70    6.60
  -1  -6  13   30.90    5.50
   0   6 -13   16.40    4.40
   0   6 -13   22.00    6.80
   0  -6  13   13.90    4.50
   0  -6  13   14.50    5.30
  -1   6 -13   25.80    5.00
  -1   6 -13   27.70    6.30
   1  -6  13   17.10    4.90
   1  -6  13   18.10    5.70
  -2   6 -13   11.70    4.00
  -2   6 -13   10.50    4.30
   2  -6  13   19.80    5.00
   2  -6  13    7.90    5.90
  -3   6 -13    6.80    3.80
   3  -6  13    2.70    4.10
   3  -6  13    7.60    6.00
   3  -6  13    4.80    5.20
   4   5 -13    6.90    7.20
  -4  -5  13    5.80    4.80
   3   5 -13   54.49    5.70
   3   5 -13   35.50    5.10
   3   5 -13   38.40    8.60
  -3  -5  13   44.50    4.60
  -3  -5  13   45.00    6.00
   2   5 -13   31.50    6.60
   2   5 -13   29.10    4.40
   2   5 -13   37.40    4.50
  -2  -5  13   32.60    4.90
   1   5 -13  239.98   13.30
   1   5 -13  245.48   10.30
  -1  -5  13  256.17   10.80
  -1  -5  13  237.78   11.30
   0   5 -13    2.90    3.40
   0   5 -13    1.40    4.20
   0  -5  13    6.20    3.70
   0  -5  13    0.40    4.40
  -1   5 -13   80.39    6.50
  -1   5 -13   98.49    9.00
   1  -5  13   85.19    8.70
   1  -5  13   71.29    7.00
  -2   5 -13   26.00    5.70
  -2   5 -13   40.70    5.00
  -2   5 -13   56.69    5.80
   2  -5  13   44.10    6.50
   2  -5  13   50.59    7.70
   2  -5  13   47.30    6.10
  -3   5 -13    4.00    3.40
  -3   5 -13    5.30    3.90
  -3   5 -13    5.60    2.80
   3  -5  13    3.50    4.20
   3  -5  13    2.10    5.90
   3  -5  13    3.60    3.70
  -4   5 -13    8.80    3.10
   4  -5  13   12.00    5.20
   4  -5  13   20.60    6.60
   4  -5  13   16.90    4.90
   5   4 -13    9.80    5.20
  -5  -4  13    6.40    5.30
   4   4 -13   52.69    8.70
  -4  -4  13   44.90    7.00
   3   4 -13    0.80    3.00
   3   4 -13   -2.20    3.50
   3   4 -13   -1.10    4.10
  -3  -4  13    0.50    4.00
  -3  -4  13    3.40    2.90
   2   4 -13  201.58    9.10
   2   4 -13  207.58    8.50
   2   4 -13  205.28   13.40
  -2  -4  13  206.98   11.20
  -2  -4  13  201.38    8.50
   1   4 -13   63.79    8.40
   1   4 -13   67.79    5.80
   1   4 -13   70.09    5.80
  -1  -4  13   64.69    6.00
  -1  -4  13   68.69    7.10
   0   4 -13   43.30    5.00
   0   4 -13   43.30    7.40
   0  -4  13   48.90    5.90
   0  -4  13   44.70    5.00
  -1   4 -13   47.00    5.20
  -1   4 -13   43.40    6.70
   1  -4  13   55.59    7.20
   1  -4  13   44.60    5.50
  -2   4 -13   17.10    4.80
  -2   4 -13   18.40    4.10
   2  -4  13   21.90    4.00
   2  -4  13   23.80    4.80
   2  -4  13   19.60    6.20
  -3   4 -13   36.10    4.60
  -3   4 -13   35.40    5.30
  -3   4 -13   31.50    5.00
   3  -4  13   44.40    6.70
   3  -4  13   39.90    6.40
  -4   4 -13    5.60    3.00
  -4   4 -13   -1.20    2.60
   4  -4  13   -1.00    5.30
   4  -4  13    2.90    6.40
   4  -4  13    0.90    3.90
   5   3 -13   19.10    6.90
  -5  -3  13   18.80    6.10
   4   3 -13   36.00    6.40
  -4  -3  13   24.60    5.00
   3   3 -13   12.50    4.00
   3   3 -13   12.90    6.10
   3   3 -13   14.10    2.80
  -3  -3  13   11.10    4.40
  -3  -3  13   11.30    3.10
   2   3 -13  108.39    6.60
   2   3 -13  105.89    9.90
   2   3 -13  123.29    7.00
  -2  -3  13  118.29    8.60
  -2  -3  13  115.89    6.80
   1   3 -13   47.40    6.10
   1   3 -13   43.30    4.30
   1   3 -13   42.20    5.30
  -1  -3  13   50.29    6.10
  -1  -3  13   42.90    5.10
   0   3 -13  205.48    8.70
   0   3 -13  185.48    8.70
   0   3 -13  206.48   11.80
   0  -3  13  205.18   10.70
  -1   3 -13    2.40    4.90
  -1   3 -13    0.70    2.80
   1  -3  13   -0.70    2.10
   1  -3  13   -1.10    3.30
   1  -3  13    0.10    4.40
  -2   3 -13   57.39    6.10
  -2   3 -13   59.89    5.40
   2  -3  13   66.89    6.50
   2  -3  13   65.69    8.00
   2  -3  13   67.59    6.60
  -3   3 -13   36.20    5.00
  -3   3 -13   45.60    5.60
  -3   3 -13   33.50    3.80
   3  -3  13   35.50    5.90
   3  -3  13   40.50    6.40
   3  -3  13   33.30    5.50
  -4   3 -13   -0.90    2.60
  -4   3 -13   -0.90    3.60
   4  -3  13    0.90    4.00
   4  -3  13    6.20    7.40
  -5   3 -13   23.60    5.50
   5  -3  13   32.30    9.20
   5   2 -13   13.80    5.30
  -5  -2  13   18.10    5.70
   4   2 -13   12.90    5.90
  -4  -2  13    1.20    4.30
   3   2 -13   66.99    5.30
   3   2 -13   66.49    5.90
   3   2 -13   60.19    6.90
  -3  -2  13   68.79    7.40
   2   2 -13   -1.20    3.20
   2   2 -13   -1.10    3.10
   2   2 -13   -2.10    2.40
  -2  -2  13    0.90    2.70
  -2  -2  13    6.40    3.60
   1   2 -13  230.58    9.90
   1   2 -13  206.28    8.60
   1   2 -13  230.98   11.70
  -1  -2  13  239.38    9.70
  -1  -2  13  239.68   10.60
   0   2 -13   69.89    6.10
   0   2 -13   72.19    5.50
   0   2 -13   77.19    7.40
   0  -2  13   69.69    6.00
   0  -2  13   77.29    6.70
  -1   2 -13   40.90    4.00
  -1   2 -13   36.50    6.10
   1  -2  13   40.10    4.70
   1  -2  13   34.00    4.30
   1  -2  13   32.80    5.80
  -2   2 -13   45.50    4.70
  -2   2 -13   42.80    5.30
   2  -2  13   42.10    5.80
   2  -2  13   50.19    7.30
   2  -2  13   39.60    5.00
  -3   2 -13   12.00    3.30
  -3   2 -13   11.10    3.30
   3  -2  13   10.50    3.80
   3  -2  13    7.80    3.80
   3  -2  13   12.70    6.80
  -4   2 -13   80.49    7.50
   4  -2  13   63.59    6.70
   4  -2  13   80.39    9.00
  -5   2 -13    1.40    3.10
   5  -2  13   -4.30    7.40
   5   1 -13   22.50    6.50
  -5  -1  13   23.20    6.00
  -5  -1  13   16.50    3.20
   4   1 -13   75.89    8.00
  -4  -1  13   60.69    4.60
  -4  -1  13   73.39    8.10
   3   1 -13   17.10    3.40
   3   1 -13   23.60    5.80
   3   1 -13   21.10    2.90
  -3  -1  13   15.60    2.80
  -3  -1  13   22.00    4.90
  -3  -1  13   15.00    2.20
   2   1 -13   20.20    3.30
   2   1 -13   18.00    3.30
   2   1 -13   16.90    4.90
   2   1 -13   17.60    3.90
  -2  -1  13   16.80    3.40
   1   1 -13  178.68    9.80
   1   1 -13  164.38    7.50
   1   1 -13  171.98    7.70
   1   1 -13  173.68    7.00
  -1  -1  13  174.88    9.00
  -1  -1  13  171.08    8.10
   0   1 -13   37.40    4.20
   0   1 -13   47.20    6.10
   0   1 -13   38.10    5.00
   0  -1  13   46.00    5.80
   0  -1  13   37.70    4.60
   0  -1  13   39.80    4.60
  -1   1 -13   93.79    5.80
  -1   1 -13   96.09    6.30
  -1   1 -13   93.09    8.10
   1  -1  13   86.19    6.30
   1  -1  13   90.29    6.90
   1  -1  13   99.29    6.70
  -2   1 -13    0.60    2.60
  -2   1 -13    0.90    3.30
   2  -1  13   -1.30    3.80
   2  -1  13    1.60    2.20
   2  -1  13    2.40    5.40
  -3   1 -13   91.99    5.90
   3  -1  13   85.79    7.40
   3  -1  13   89.69    6.90
   3  -1  13   99.39    9.80
  -4   1 -13   31.80    4.20
  -4   1 -13   46.80    6.30
   4  -1  13   34.30    4.50
   4  -1  13   32.50    7.00
  -5   1 -13   16.10    4.10
   5  -1  13   10.90    8.60
   5   0 -13    8.40    5.80
  -5   0  13   11.70    5.10
  -5   0  13    8.50    2.90
   4   0 -13   95.99    9.60
  -4   0  13   78.09    5.10
  -4   0  13   89.79    8.10
   3   0 -13    2.90    3.00
   3   0 -13    1.20    4.30
   3   0 -13    4.30    2.30
   3   0 -13   -3.80    3.00
  -3   0  13    0.40    1.70
  -3   0  13    1.60    3.40
  -3   0  13    2.50    2.10
   2   0 -13  172.18    7.90
   2   0 -13  159.78    8.30
   2   0 -13  164.68    7.10
   2   0 -13  181.48   10.00
  -2   0  13  188.88    7.80
  -2   0  13  168.38    8.10
  -2   0  13  156.58    5.50
   1   0 -13   62.79    4.80
   1   0 -13   63.39    6.20
   1   0 -13   71.29    5.80
   1   0 -13   71.89    5.80
  -1   0  13   75.59    6.30
  -1   0  13   69.29    5.50
   0   0 -13  173.68    7.50
   0   0 -13  171.88    6.90
   0   0 -13  166.78    7.70
   0   0 -13  176.48    8.90
   0   0  13  164.08    7.80
   0   0  13  157.58    8.90
   0   0  13  193.48    9.20
  -1   0 -13  168.18    6.80
  -1   0 -13  168.48    8.90
  -1   0 -13  169.78    8.00
   1   0  13  171.48    8.60
   1   0  13  182.98    8.10
   1   0  13  172.28    8.80
  -2   0 -13   15.40    3.30
  -2   0 -13   10.80    3.50
   2   0  13   19.10    6.00
   2   0  13   13.30    4.60
   2   0  13   14.70    3.10
  -3   0 -13  138.29    6.80
   3   0  13  148.59   11.80
   3   0  13  136.59    7.40
   3   0  13  132.19    8.70
  -4   0 -13    5.50    4.10
  -4   0 -13    3.20    2.50
   4   0  13    3.70    3.50
   4   0  13   -1.10    5.10
  -5   0 -13   49.90    6.00
   5   0  13   39.90    9.90
   5  -1 -13   15.40    5.90
  -5   1  13    2.60    4.30
  -5   1  13    6.80    2.40
   4  -1 -13   11.80    6.00
  -4   1  13   14.10    4.80
  -4   1  13   15.00    3.00
   3  -1 -13   33.90    6.10
   3  -1 -13   22.80    4.30
   3  -1 -13   22.20    4.30
   3  -1 -13   28.30    3.60
  -3   1  13   30.50    5.00
  -3   1  13   25.50    3.00
   2  -1 -13   53.89    4.90
   2  -1 -13   60.19    4.60
   2  -1 -13   56.29    5.00
   2  -1 -13   68.99    6.60
  -2   1  13   56.89    4.80
  -2   1  13   53.99    3.40
  -2   1  13   71.79    5.30
   1  -1 -13   -1.00    2.20
   1  -1 -13   -0.90    3.20
   1  -1 -13    0.60    3.10
   1  -1 -13    2.80    2.40
  -1   1  13   -0.60    1.90
  -1   1  13    0.40    1.00
  -1   1  13   -0.60    1.80
   0  -1 -13  118.99    6.10
   0  -1 -13  112.99    6.90
   0  -1 -13  125.79    7.30
   0  -1 -13  123.79    6.70
   0   1  13  132.99    7.10
   0   1  13  121.99    6.90
   0   1  13  126.69    7.00
  -1  -1 -13    0.40    3.50
  -1  -1 -13    3.20    3.30
  -1  -1 -13    0.20    2.30
  -1  -1 -13   -1.20    2.30
   1   1  13   -3.00    2.80
   1   1  13    4.50    3.80
   1   1  13   -0.80    4.40
  -2  -1 -13   30.90    4.80
  -2  -1 -13   34.10    4.00
   2   1  13   34.70    4.90
   2   1  13   37.60    4.70
   2   1  13   45.20    7.10
  -3  -1 -13    2.40    2.70
   3   1  13    5.00    4.70
   3   1  13    7.50    3.50
   3   1  13   -0.30    3.30
  -4  -1 -13   74.09    7.50
  -4  -1 -13   64.19    4.80
   4   1  13   81.39    6.70
   4   1  13   64.49   10.00
  -5  -1 -13   14.80    4.10
   5   1  13   18.40    9.30
   5  -2 -13   57.49    8.60
  -5   2  13   42.20    4.70
  -5   2  13   45.00    6.50
   4  -2 -13    5.00    4.80
   4  -2 -13    1.90    4.20
  -4   2  13    2.00    2.30
  -4   2  13    0.10    2.60
   3  -2 -13  165.78    9.80
   3  -2 -13  148.99    6.90
   3  -2 -13  148.39    8.70
   3  -2 -13  146.99    7.90
  -3   2  13  152.18    6.40
  -3   2  13  163.38    6.60
  -3   2  13  162.18    9.10
   2  -2 -13    0.50    2.30
   2  -2 -13    0.50    3.40
   2  -2 -13    3.40    3.30
   2  -2 -13   -0.60    3.50
  -2   2  13    0.50    2.40
  -2   2  13    0.10    1.40
   1  -2 -13  222.28    9.30
   1  -2 -13  217.58    7.90
   1  -2 -13  210.48    9.50
   1  -2 -13  224.28    9.90
  -1   2  13  209.48    8.40
  -1   2  13  218.68    6.60
  -1   2  13  215.48    8.20
   0  -2 -13  100.99    5.90
   0  -2 -13  122.89    7.60
   0  -2 -13  111.59    5.90
   0  -2 -13  117.09    6.70
   0   2  13  127.39    6.80
   0   2  13  104.19    4.00
   0   2  13  112.79    7.20
   0   2  13  112.39    6.60
  -1  -2 -13  173.48    7.70
  -1  -2 -13  203.98    7.70
  -1  -2 -13  182.08    8.40
  -1  -2 -13  173.28    7.60
   1   2  13  181.18    8.70
   1   2  13  179.38    8.90
   1   2  13  191.58    8.40
  -2  -2 -13  155.28    6.90
  -2  -2 -13  147.79    8.20
   2   2  13  138.49    6.00
   2   2  13  145.69    9.70
   2   2  13  159.68   11.20
   2   2  13  151.18    7.90
  -3  -2 -13   78.09    5.40
   3   2  13   84.69    6.60
   3   2  13   82.79    8.20
   3   2  13   76.79    8.20
   3   2  13   83.69    4.80
  -4  -2 -13  105.69    5.80
  -4  -2 -13  108.89    7.80
   4   2  13  109.99    7.60
   4   2  13  142.19   12.70
  -5  -2 -13   14.20    5.00
   5   2  13    5.80    6.30
  -6  -2 -13    4.20    3.60
   6   2  13   13.20    6.80
   5  -3 -13    8.60    5.70
   5  -3 -13   20.70    5.20
  -5   3  13   21.90    3.90
  -5   3  13   21.90    5.00
   4  -3 -13    7.90    4.70
   4  -3 -13   12.30    5.60
  -4   3  13   12.30    3.00
  -4   3  13   15.00    4.40
   3  -3 -13   15.20    3.20
   3  -3 -13   21.10    5.10
   3  -3 -13    8.40    4.50
   3  -3 -13    7.40    3.80
  -3   3  13   12.30    2.60
  -3   3  13   14.60    3.10
  -3   3  13   12.90    3.10
   2  -3 -13   34.90    5.10
   2  -3 -13   37.80    4.90
   2  -3 -13   39.30    4.90
   2  -3 -13   43.60    4.40
  -2   3  13   35.60    4.10
  -2   3  13   30.10    3.10
   1  -3 -13  296.77    9.80
   1  -3 -13  314.27   12.00
   1  -3 -13  295.87   10.60
   1  -3 -13  303.17   11.50
  -1   3  13  317.67   11.10
  -1   3  13  307.97    8.70
  -1   3  13  319.27   10.60
  -1   3  13  308.97    9.80
   0  -3 -13   -0.10    3.50
   0  -3 -13   -1.00    2.30
   0  -3 -13   -1.60    2.30
   0  -3 -13   -0.90    2.00
   0   3  13    4.10    3.20
   0   3  13   -1.10    2.10
   0   3  13    1.60    1.20
   0   3  13    5.10    3.00
  -1  -3 -13  266.57    9.10
  -1  -3 -13  271.57   10.10
  -1  -3 -13  265.77   11.10
  -1  -3 -13  279.67    9.40
   1   3  13  245.68   11.20
   1   3  13  250.87   10.30
   1   3  13  261.47    9.40
   1   3  13  267.17   10.00
  -2  -3 -13    5.70    2.70
  -2  -3 -13   -0.70    3.30
  -2  -3 -13    5.80    4.00
   2   3  13    5.20    2.80
   2   3  13    3.50    5.30
   2   3  13    0.60    3.30
   2   3  13    6.10    2.50
  -3  -3 -13   35.80    4.00
   3   3  13   43.90    8.00
   3   3  13   29.70    4.00
   3   3  13   31.70    3.90
   3   3  13   34.80    6.80
  -4  -3 -13    3.40    4.20
  -4  -3 -13    5.70    2.70
   4   3  13    0.30    5.30
   4   3  13    0.40    2.20
  -5  -3 -13   21.10    5.40
   5   3  13   21.50    9.30
  -6  -3 -13    1.30    4.50
   6   3  13   13.90   10.10
   5  -4 -13    2.20    5.00
   5  -4 -13   32.90    7.00
  -5   4  13   10.40    3.60
   4  -4 -13   95.79    8.60
   4  -4 -13  111.59    9.10
  -4   4  13   95.39    6.30
   3  -4 -13    1.40    3.30
   3  -4 -13    5.00    3.20
   3  -4 -13   -1.70    2.30
  -3   4  13    6.40    3.00
  -3   4  13    3.80    2.90
  -3   4  13   -0.50    1.40
   2  -4 -13  216.98   10.60
   2  -4 -13  202.08    7.90
   2  -4 -13  201.38    9.70
   2  -4 -13  196.98   10.60
  -2   4  13  212.28    7.40
  -2   4  13  205.08    8.20
   1  -4 -13   92.39    6.70
   1  -4 -13   89.39    7.30
   1  -4 -13   85.59    6.60
   1  -4 -13   93.49    5.70
  -1   4  13   91.19    4.60
  -1   4  13   96.79    5.60
  -1   4  13   91.99    6.30
   0  -4 -13  205.48    8.50
   0  -4 -13  208.58   10.10
   0  -4 -13  193.78    8.60
   0  -4 -13  197.88    8.20
   0   4  13  223.58    9.50
   0   4  13  226.28    9.20
   0   4  13  212.88    8.50
  -1  -4 -13   26.40    3.90
  -1  -4 -13   26.10    3.70
  -1  -4 -13   21.30    3.90
   1   4  13   25.70    4.20
   1   4  13   24.60    5.00
   1   4  13   26.40    4.10
   1   4  13   19.70    3.80
  -2  -4 -13   76.29    5.50
  -2  -4 -13   87.69    5.70
  -2  -4 -13   88.49    7.30
   2   4  13   83.99    7.20
   2   4  13   91.09    8.40
   2   4  13   84.39    6.10
   2   4  13   94.59    6.60
  -3  -4 -13   55.89    4.70
   3   4  13   56.69    5.70
   3   4  13   51.79    7.00
   3   4  13   53.99    6.60
   3   4  13   54.59    4.70
  -4  -4 -13   38.80    4.00
   4   4  13   61.79    9.60
   4   4  13   31.50    4.90
   4   4  13   40.80    4.80
  -5  -4 -13   30.40    5.00
   5   4  13   28.70    7.50
   4  -5 -13   68.29    8.40
   4  -5 -13   37.10    6.80
  -4   5  13   40.10    4.70
   3  -5 -13   13.30    4.70
   3  -5 -13   -1.90    4.90
   3  -5 -13    6.30    2.30
  -3   5  13    6.70    2.60
   2  -5 -13   17.60    4.50
   2  -5 -13   13.70    3.30
   2  -5 -13   16.70    5.40
   2  -5 -13   17.90    3.50
  -2   5  13   15.20    3.20
  -2   5  13   19.00    3.60
  -2   5  13   17.80    3.00
   1  -5 -13   46.20    4.90
   1  -5 -13   44.70    5.20
   1  -5 -13   43.80    4.50
   1  -5 -13   42.40    4.20
   1  -5 -13   30.60    5.60
  -1   5  13   43.20    4.20
  -1   5  13   42.50    3.60
  -1   5  13   54.09    5.30
   0  -5 -13  255.47    9.90
   0  -5 -13  267.97    9.80
   0  -5 -13  243.48   11.50
   0  -5 -13  257.57    9.70
   0   5  13  278.57   10.40
   0   5  13  282.67   10.40
   0   5  13  277.97   10.50
  -1  -5 -13   55.99    4.90
  -1  -5 -13   43.80    4.60
  -1  -5 -13   41.80    5.70
   1   5  13   43.10    4.50
   1   5  13   44.20    5.60
   1   5  13   48.60    5.80
   1   5  13   51.79    4.90
  -2  -5 -13   91.79    5.90
  -2  -5 -13   94.19    6.10
  -2  -5 -13  108.49    8.60
   2   5  13   89.59    8.60
   2   5  13  102.69    6.10
   2   5  13   93.59    6.90
   2   5  13  101.39    7.70
  -3  -5 -13    2.70    2.20
   3   5  13    4.40    3.70
   3   5  13    5.10    3.50
   3   5  13    7.20    5.70
   3   5  13   17.80    6.80
  -4  -5 -13   35.60    4.40
   4   5  13   34.30    8.50
   4   5  13   30.00    5.10
   4   5  13   44.10    5.60
  -5  -5 -13    2.80    3.10
   5   5  13    7.30    6.00
   4  -6 -13    2.70    5.40
  -4   6  13    4.40    2.30
   3  -6 -13  143.39   11.00
  -3   6  13  136.29    6.80
   2  -6 -13   14.90    3.60
   2  -6 -13    8.20    5.30
  -2   6  13    8.90    3.30
  -2   6  13   12.70    2.90
   1  -6 -13  203.38    9.60
   1  -6 -13  204.68    8.90
   1  -6 -13  210.98    9.70
   1  -6 -13  204.58    8.80
   1  -6 -13  204.58   11.30
  -1   6  13  201.88    9.10
   0  -6 -13   58.09    5.20
   0  -6 -13   64.19    5.60
   0  -6 -13   67.99    5.00
   0  -6 -13   50.39    6.50
   0   6  13   69.69    5.90
   0   6  13   59.99    5.70
   0   6  13   74.09    6.50
  -1  -6 -13   65.49    5.50
  -1  -6 -13   57.09    6.80
  -1  -6 -13   57.09    5.00
   1   6  13   57.39    6.10
   1   6  13   62.69    5.60
   1   6  13   63.19    5.50
  -2  -6 -13   -4.90    2.80
  -2  -6 -13    2.60    2.20
  -2  -6 -13    3.40    3.10
   2   6  13    1.30    2.60
   2   6  13   -2.30    4.80
   2   6  13    3.30    4.90
   2   6  13   -1.80    3.20
  -3  -6 -13   36.60    6.20
  -3  -6 -13   33.50    4.40
   3   6  13   22.90    6.70
   3   6  13   44.30    7.80
   3   6  13   34.00    5.10
   3   6  13   35.70    5.50
  -4  -6 -13   25.40    5.30
  -4  -6 -13   17.40    3.40
   4   6  13   12.10    7.70
   4   6  13   24.50    5.00
   4   6  13   24.00    4.30
  -5  -6 -13    9.90    4.30
   5   6  13    9.20    6.00
   5   6  13    3.10    3.20
   4  -7 -13   38.20    7.60
  -4   7  13   50.99    5.10
   3  -7 -13   97.29    9.70
  -3   7  13   85.89    5.80
   2  -7 -13   65.79    6.00
   2  -7 -13   51.49    7.60
   2  -7 -13   65.69    6.80
  -2   7  13   75.79    5.10
  -2   7  13   69.79    5.70
   1  -7 -13   11.00    3.80
   1  -7 -13   16.60    5.40
   1  -7 -13   10.20    4.40
   1  -7 -13    8.10    3.50
  -1   7  13   16.40    4.10
   0  -7 -13    9.40    4.40
   0  -7 -13    5.10    3.20
   0  -7 -13    5.30    5.10
   0  -7 -13    5.20    3.50
   0   7  13    8.10    4.20
   0   7  13    6.30    3.90
  -1  -7 -13  142.59    7.90
  -1  -7 -13  128.29   10.00
  -1  -7 -13  137.09    7.20
   1   7  13  154.28    8.70
   1   7  13  152.08    8.60
   1   7  13  128.99    8.40
  -2  -7 -13   30.10    5.10
  -2  -7 -13   36.50    4.70
   2   7  13   31.80    6.20
   2   7  13   28.50    6.00
   2   7  13   29.80    5.10
   2   7  13   35.00    5.50
  -3  -7 -13   33.30    4.40
  -3  -7 -13   33.80    6.50
   3   7  13   39.80    5.50
   3   7  13   38.00    5.90
   3   7  13   42.10    6.50
  -4  -7 -13    2.60    2.90
  -4  -7 -13    4.20    2.90
   4   7  13    8.90    4.80
   4   7  13    5.80    7.20
   4   7  13    6.00    4.20
  -5  -7 -13   13.50    3.70
   5   7  13    5.90    6.00
   5   7  13   11.00    5.10
   3  -8 -13    0.10    5.90
  -3   8  13   -4.70    2.80
   2  -8 -13   91.59    7.50
   2  -8 -13  107.39    7.50
   2  -8 -13  138.59   11.30
  -2   8  13   98.29    6.90
  -2   8  13  108.59    6.90
   1  -8 -13    4.30    4.00
   1  -8 -13   -1.80    2.20
   1  -8 -13    0.50    3.20
   1  -8 -13    2.60    4.60
  -1   8  13    2.70    3.80
   0  -8 -13   39.00    7.00
   0  -8 -13   48.20    5.80
   0  -8 -13   36.90    4.80
   0  -8 -13   40.90    6.40
   0   8  13   49.40    6.20
   0   8  13   42.90    5.00
  -1  -8 -13   88.39    7.60
  -1  -8 -13   86.49    7.00
   1   8  13   85.79    7.30
   1   8  13   85.39    6.50
  -2  -8 -13    3.50    3.40
  -2  -8 -13    7.40    5.20
   2   8  13   -2.40    4.70
   2   8  13   -1.50    3.80
   2   8  13   -0.90    4.10
  -3  -8 -13    2.40    4.90
  -3  -8 -13    1.70    2.30
   3   8  13    1.20    3.30
   3   8  13    1.00    5.60
   3   8  13    0.90    3.80
  -4  -8 -13    2.90    2.90
  -4  -8 -13   -2.00    2.20
   4   8  13    4.30    5.00
   4   8  13    3.00    5.10
   4   8  13   -1.90    3.90
   2  -9 -13   25.00    7.40
   2  -9 -13   26.40    4.90
   2  -9 -13   24.80    6.10
  -2   9  13   25.40    3.80
  -2   9  13   26.00    4.60
   1  -9 -13    7.70    4.50
   1  -9 -13   21.30    4.90
   1  -9 -13   28.40    5.00
  -1   9  13   19.10    4.60
   0  -9 -13   17.20    5.00
   0  -9 -13   20.60    4.80
   0  -9 -13   11.40    4.10
   0   9  13   11.20    3.70
   0   9  13   11.80    3.60
  -1  -9 -13    1.00    2.60
  -1  -9 -13    4.90    5.40
   1   9  13    5.10    3.20
   1   9  13    6.00    4.30
  -2  -9 -13   38.10    5.70
  -2  -9 -13   31.50    5.20
   2   9  13   34.00    5.80
   2   9  13   21.40    4.50
  -3  -9 -13   11.20    3.80
  -3  -9 -13   10.30    5.60
   3   9  13    2.60    3.60
   3   9  13    6.50    4.40
  -4  -9 -13   20.80    3.90
   4   9  13   15.40    5.00
   4   9  13   15.80    5.90
   1 -10 -13  116.59    9.50
   1 -10 -13  104.49   10.20
   1 -10 -13  105.09    7.40
  -1  10  13  113.39    8.60
   0 -10 -13    3.10    4.10
   0 -10 -13   -3.20    5.50
   0 -10 -13   10.20    5.60
   0  10  13    6.80    3.60
   0  10  13    7.90    4.40
  -1 -10 -13   24.40    6.70
  -1 -10 -13   22.70    6.40
  -1 -10 -13   30.30    5.30
   1  10  13   18.60    4.40
   1  10  13   13.90    5.00
  -2 -10 -13   57.89    6.40
  -2 -10 -13   49.20    7.30
   2  10  13   63.59    6.80
   2  10  13   47.20    6.90
  -3 -10 -13   -5.60    5.00
  -3 -10 -13    5.70    3.80
   3  10  13    0.40    3.10
   3  10  13   -0.20    3.40
  -1 -11 -13    4.90    4.20
  -1 -11 -13   19.00    5.00
  -1 -11 -13   12.90    6.20
   1  11  13   21.40    5.50
   1  11  13   12.00    5.40
   2   8 -14   17.90    8.70
   2   8 -14   21.50    5.70
  -2  -8  14   23.70    4.50
  -2  -8  14   17.20    4.90
   1   8 -14   -2.70    3.10
   1   8 -14   -1.90    6.80
  -1  -8  14   -3.70    4.20
   0   8 -14   52.79    6.30
   0   8 -14   65.59    9.00
   0  -8  14   60.19    7.60
   0  -8  14   55.39    7.80
  -1   8 -14    3.50    4.70
  -1   8 -14    6.30    4.20
   1  -8  14    6.40    5.30
   1  -8  14    1.30    5.00
   3   7 -14   33.80    5.70
   3   7 -14   29.90    9.70
  -3  -7  14   34.20    5.00
  -3  -7  14   48.90    7.10
   2   7 -14   12.00    3.80
   2   7 -14    4.20    8.50
  -2  -7  14    0.90    4.00
  -2  -7  14    9.70    4.70
   1   7 -14    8.40    6.10
   1   7 -14    6.10    4.60
  -1  -7  14   18.50    4.90
  -1  -7  14   12.60    5.00
   0   7 -14   35.50    5.90
   0   7 -14   44.40    8.30
   0  -7  14   44.50    6.90
   0  -7  14   48.40    7.50
  -1   7 -14   35.20    6.00
  -1   7 -14   41.60    7.40
   1  -7  14   49.40    7.70
   1  -7  14   40.60    5.80
  -2   7 -14    6.10    5.00
  -2   7 -14   10.40    4.40
   2  -7  14    4.20    5.70
   2  -7  14    9.30    5.20
   3   6 -14   32.30    5.50
   3   6 -14   22.00    7.00
  -3  -6  14   29.20    6.10
  -3  -6  14   30.40    4.60
   2   6 -14    4.90    3.10
   2   6 -14    1.80    5.80
  -2  -6  14   12.90    4.50
   1   6 -14   64.69    6.90
   1   6 -14   58.39    8.40
  -1  -6  14   72.29    7.30
  -1  -6  14   78.79    8.60
   0   6 -14    2.90    4.00
   0   6 -14   -0.30    6.40
   0  -6  14    6.80    3.90
   0  -6  14    1.60    4.20
  -1   6 -14   51.79    6.30
  -1   6 -14   48.10    7.70
   1  -6  14   41.00    6.30
   1  -6  14   47.00    7.70
  -2   6 -14   -1.80    2.80
  -2   6 -14    0.50    3.20
   2  -6  14   -5.70    5.30
   2  -6  14    2.10    4.20
  -3   6 -14    6.30    3.90
   3  -6  14   18.80    5.40
   3  -6  14    9.70    6.40
   4   5 -14   15.50    6.30
  -4  -5  14   23.40    6.30
   3   5 -14   16.00    4.30
   3   5 -14   11.90    8.00
  -3  -5  14   15.90    4.40
   2   5 -14   31.90    8.70
   2   5 -14   37.60    5.30
  -2  -5  14   34.60    5.30
   1   5 -14   54.09    9.40
   1   5 -14   43.00    5.50
  -1  -5  14   36.80    6.60
  -1  -5  14   50.19    6.10
   0   5 -14   -7.10    6.00
   0   5 -14   -0.20    3.50
   0  -5  14    5.60    4.90
   0  -5  14   -0.10    2.70
  -1   5 -14   24.00    4.80
  -1   5 -14   17.20    5.90
   1  -5  14   22.00    5.10
   1  -5  14   28.60    5.50
  -2   5 -14   -0.90    3.20
  -2   5 -14   -3.30    4.20
  -2   5 -14    0.80    2.70
   2  -5  14   -2.60    2.60
   2  -5  14   -9.60    5.00
  -3   5 -14   -1.40    3.60
  -3   5 -14    5.50    3.70
  -3   5 -14    7.30    4.00
   3  -5  14    3.90    3.30
   3  -5  14    2.40    4.40
   3  -5  14    1.20    5.70
   4   4 -14   48.60    8.90
  -4  -4  14   41.60    6.40
   3   4 -14   -4.90    3.00
   3   4 -14    0.90    4.70
  -3  -4  14   -0.90    3.30
  -3  -4  14   -0.90    3.90
   2   4 -14   53.39    6.00
   2   4 -14   70.69    6.30
   2   4 -14   62.29    9.20
  -2  -4  14   69.29    5.80
  -2  -4  14   69.89    7.60
   1   4 -14    2.80    3.30
   1   4 -14    4.80    6.50
   1   4 -14    0.10    4.10
  -1  -4  14    1.90    3.10
  -1  -4  14    3.00    3.80
   0   4 -14   51.59    5.50
   0   4 -14   51.19    6.90
   0  -4  14   58.99    6.30
   0  -4  14   51.99    7.10
  -1   4 -14   10.50    4.10
  -1   4 -14   13.20    5.70
   1  -4  14    7.40    4.20
   1  -4  14   19.50    4.60
  -2   4 -14   30.60    4.80
  -2   4 -14   36.10    5.80
   2  -4  14   43.00    7.50
  -3   4 -14    4.40    3.80
  -3   4 -14    5.20    3.60
  -3   4 -14    4.70    3.50
   3  -4  14   -6.30    3.80
   3  -4  14    2.20    4.60
  -4   4 -14   23.80    5.00
   4  -4  14   38.70    8.60
   4  -4  14   21.10    5.30
   4  -4  14   22.20    5.40
   5   3 -14   49.70    9.00
  -5  -3  14   39.60    7.60
   4   3 -14    6.20    4.70
  -4  -3  14    7.40    3.90
   3   3 -14   48.30    8.10
   3   3 -14   39.80    4.80
  -3  -3  14   44.60    6.40
  -3  -3  14   37.60    4.30
   2   3 -14   23.40    4.00
   2   3 -14   16.00    6.40
   2   3 -14   26.50    3.70
  -2  -3  14   24.60    4.30
  -2  -3  14   28.10    4.70
   1   3 -14   18.60    4.00
   1   3 -14   24.30    6.60
   1   3 -14   21.80    3.90
  -1  -3  14   12.50    4.00
  -1  -3  14   26.20    5.40
   0   3 -14  176.58   11.90
   0   3 -14  182.38    8.60
   0   3 -14  157.58    9.30
   0  -3  14  157.08   10.40
  -1   3 -14    4.00    3.30
  -1   3 -14   -0.30    5.00
   1  -3  14    2.80    3.70
   1  -3  14    2.90    3.60
   1  -3  14    5.40    5.10
  -2   3 -14   59.99    6.60
  -2   3 -14   62.09    5.80
   2  -3  14   68.59    8.40
   2  -3  14   51.89    7.60
   2  -3  14   54.59    5.80
  -3   3 -14    5.80    3.40
  -3   3 -14    0.80    3.70
   3  -3  14    9.30    5.00
   3  -3  14    8.60    3.50
  -4   3 -14    0.10    2.80
  -4   3 -14    3.40    3.70
   4  -3  14    4.30    4.50
   4  -3  14   -4.70    6.90
   5   2 -14   10.70    5.10
  -5  -2  14   13.60    5.80
   4   2 -14   46.00    8.00
  -4  -2  14   56.59    6.90
   3   2 -14   67.89    5.60
   3   2 -14   56.99    7.20
  -3  -2  14   58.39    6.70
   2   2 -14    5.50    3.80
   2   2 -14    0.90    3.60
   2   2 -14    7.10    3.10
  -2  -2  14   11.30    4.30
  -2  -2  14    3.20    3.10
   1   2 -14  252.77    9.30
   1   2 -14  252.97   12.80
   1   2 -14  235.58   10.60
  -1  -2  14  265.37   11.60
   0   2 -14   50.49    7.10
   0   2 -14   41.50    5.50
   0   2 -14   38.40    4.60
   0  -2  14   52.69    6.60
   0  -2  14   38.10    5.20
  -1   2 -14   93.69    6.50
  -1   2 -14   81.09    7.80
   1  -2  14   90.19    8.40
   1  -2  14   82.59    6.90
   1  -2  14   97.29    7.80
  -2   2 -14   21.90    4.60
  -2   2 -14   23.80    3.60
   2  -2  14   20.00    5.00
   2  -2  14   23.90    6.70
   2  -2  14   28.70    4.30
  -3   2 -14   16.70    3.80
   3  -2  14   12.90    3.50
   3  -2  14   20.70    5.90
  -4   2 -14    4.70    4.30
  -4   2 -14    7.20    3.60
   4  -2  14    5.40    4.20
   4  -2  14   15.90    7.70
  -5   2 -14   11.60    4.90
   5  -2  14    5.70    8.00
   5   1 -14   -0.80    3.70
  -5  -1  14   -2.60    3.20
   4   1 -14   65.89    8.80
  -4  -1  14   59.89    7.60
   3   1 -14   23.60    6.30
   3   1 -14   17.30    3.40
   3   1 -14   18.60    5.20
  -3  -1  14   15.90    3.00
  -3  -1  14   16.90    4.80
   2   1 -14   29.50    6.10
   2   1 -14   26.50    4.00
   2   1 -14   32.40    4.20
   2   1 -14   28.80    4.10
  -2  -1  14   37.00    4.60
   1   1 -14  144.59    6.70
   1   1 -14  142.79    7.50
   1   1 -14  136.09    7.40
   1   1 -14  149.88    9.70
  -1  -1  14  161.78    8.10
  -1  -1  14  139.69    7.80
   0   1 -14   22.10    4.50
   0   1 -14   15.00    3.40
   0   1 -14   15.90    2.90
   0  -1  14   23.40    4.20
   0  -1  14   15.00    4.90
   0  -1  14   19.00    3.70
  -1   1 -14  202.88    8.00
  -1   1 -14  180.28   10.40
  -1   1 -14  176.48    9.50
   1  -1  14  188.88    9.10
   1  -1  14  199.38    9.40
   1  -1  14  187.28    9.90
  -2   1 -14   -4.10    4.10
  -2   1 -14    0.90    3.00
   2  -1  14   -2.70    2.20
   2  -1  14   -1.00    3.90
   2  -1  14    6.20    5.80
  -3   1 -14   49.10    4.90
   3  -1  14   59.49    7.70
   3  -1  14   57.09    5.80
  -4   1 -14   14.80    3.40
  -4   1 -14   12.40    3.90
   4  -1  14   13.50    8.10
   4  -1  14   17.90    4.70
  -5   1 -14   -1.60    4.30
   5  -1  14    6.20    8.40
   5   0 -14   23.10    5.50
  -5   0  14   18.20    3.50
  -5   0  14   25.30    6.20
   4   0 -14    0.40    3.70
  -4   0  14   -0.40    2.10
  -4   0  14   -4.70    3.90
   3   0 -14   21.50    4.90
   3   0 -14   28.30    3.80
  -3   0  14   28.70    3.80
  -3   0  14   26.40    5.30
   2   0 -14   63.49    5.40
   2   0 -14   67.49    5.20
   2   0 -14   63.09    5.80
   2   0 -14   74.09    6.80
  -2   0  14   76.09    5.80
  -2   0  14   65.69    5.20
   1   0 -14   20.50    3.60
   1   0 -14   21.10    4.10
   1   0 -14   17.90    3.40
   1   0 -14   24.60    4.40
  -1   0  14   22.10    3.40
  -1   0  14   24.00    4.40
   0   0 -14  342.07   11.70
   0   0 -14  353.06   12.00
   0   0 -14  367.06   11.60
   0   0 -14  362.66   13.30
   0   0  14  370.26   13.30
   0   0  14  382.06   13.50
   0   0  14  369.96   12.40
  -1   0 -14   25.20    3.30
  -1   0 -14   26.80    4.90
  -1   0 -14   19.70    4.80
   1   0  14   21.40    4.70
   1   0  14   29.40    4.50
   1   0  14   33.40    5.90
  -2   0 -14   48.60    4.80
   2   0  14   55.09    5.30
   2   0  14   65.09    8.30
   2   0  14   63.69    6.40
  -3   0 -14   22.10    3.80
   3   0  14   15.50    7.10
   3   0  14   15.90    3.50
  -4   0 -14    9.70    3.80
  -4   0 -14   16.60    3.30
   4   0  14   17.50    8.60
   4   0  14    9.30    4.10
  -5   0 -14   15.60    5.50
   5   0  14    9.00    9.20
   5  -1 -14   31.60    6.10
  -5   1  14   40.00    6.60
  -5   1  14   25.80    4.00
   4  -1 -14    5.90    4.20
  -4   1  14   10.80    4.60
  -4   1  14    6.30    2.50
   3  -1 -14  127.59    6.60
   3  -1 -14  128.39    7.20
   3  -1 -14  146.29   11.00
  -3   1  14  121.69    8.90
  -3   1  14  128.39    5.50
   2  -1 -14   14.70    4.00
   2  -1 -14    4.70    3.50
   2  -1 -14   14.40    4.70
   2  -1 -14   12.50    2.70
  -2   1  14    8.40    3.00
  -2   1  14    6.30    3.20
   1  -1 -14   95.09    7.00
   1  -1 -14   99.79    6.00
   1  -1 -14  103.19    7.70
   1  -1 -14   91.09    6.10
  -1   1  14  106.69    7.00
  -1   1  14   96.39    5.80
   0  -1 -14  136.19    7.20
   0  -1 -14  152.08    7.10
   0  -1 -14  149.49    8.30
   0  -1 -14  136.19    8.10
   0   1  14  145.69    8.60
   0   1  14  142.69    7.80
   0   1  14  142.29    7.60
  -1  -1 -14   41.90    5.20
  -1  -1 -14   39.30    5.10
  -1  -1 -14   37.70    4.20
  -1  -1 -14   34.20    4.90
   1   1  14   40.50    4.90
   1   1  14   33.90    4.70
   1   1  14   39.80    5.30
  -2  -1 -14  129.39    6.80
  -2  -1 -14  111.29    8.00
   2   1  14  139.69    9.60
   2   1  14  121.29    6.90
   2   1  14  115.49    8.90
  -3  -1 -14    5.10    3.00
   3   1  14    5.40    2.70
   3   1  14   -0.70    6.80
   3   1  14    7.20    3.90
  -4  -1 -14   59.09    7.00
  -4  -1 -14   53.59    4.60
   4   1  14   75.99    6.80
   4   1  14   79.19    9.40
  -5  -1 -14   10.90    5.30
   5   1  14   18.80    7.40
   5  -2 -14   13.10    4.80
  -5   2  14   11.40    3.40
  -5   2  14    4.60    4.60
   4  -2 -14    7.00    4.30
   4  -2 -14   -0.60    3.30
  -4   2  14    3.10    2.40
  -4   2  14    6.20    4.20
   3  -2 -14   53.59    4.90
   3  -2 -14   54.19    7.60
   3  -2 -14   48.30    5.90
  -3   2  14   45.90    3.90
  -3   2  14   51.19    6.20
  -3   2  14   39.20    3.80
   2  -2 -14   23.60    3.90
   2  -2 -14   26.90    3.30
   2  -2 -14   23.30    4.70
   2  -2 -14   31.20    5.60
  -2   2  14   24.90    3.90
  -2   2  14   21.60    2.60
   1  -2 -14   98.19    6.30
   1  -2 -14   99.09    5.90
   1  -2 -14   92.49    7.20
   1  -2 -14  100.69    7.50
  -1   2  14   99.49    6.30
  -1   2  14  105.59    6.60
   0  -2 -14    7.20    3.90
   0  -2 -14   10.30    3.00
   0  -2 -14    2.60    3.10
   0  -2 -14    4.60    2.60
   0   2  14    6.30    3.50
   0   2  14    2.60    2.50
   0   2  14    1.90    3.10
  -1  -2 -14  229.68   10.00
  -1  -2 -14  235.88    8.80
  -1  -2 -14  221.08   10.40
  -1  -2 -14  217.78    9.70
   1   2  14  218.58   11.20
   1   2  14  228.88    9.10
   1   2  14  220.58   10.80
  -2  -2 -14   47.60    5.60
  -2  -2 -14   44.50    4.60
   2   2  14   59.29    6.20
   2   2  14   60.79    8.00
   2   2  14   53.29    5.60
  -3  -2 -14   14.30    3.40
   3   2  14   15.90    4.20
   3   2  14   10.70    7.00
   3   2  14    9.10    5.70
  -4  -2 -14   45.80    6.70
  -4  -2 -14   32.10    4.00
   4   2  14   31.40    9.10
   4   2  14   36.50    4.70
  -5  -2 -14    1.60    4.50
   5   2  14   -5.90    8.40
   5  -3 -14   20.40    5.80
  -5   3  14    0.20    3.80
  -5   3  14    4.00    3.00
   4  -3 -14   15.20    5.60
   4  -3 -14   15.60    5.20
  -4   3  14   15.00    3.70
  -4   3  14   20.00    3.50
   3  -3 -14    6.20    4.80
   3  -3 -14    1.80    4.30
   3  -3 -14    3.50    2.70
  -3   3  14    2.50    2.20
  -3   3  14    4.10    3.40
   2  -3 -14   85.09    7.40
   2  -3 -14   76.69    5.60
   2  -3 -14   94.79    8.10
   2  -3 -14   86.49    7.30
  -2   3  14   86.89    4.70
  -2   3  14   89.69    6.00
   1  -3 -14    6.60    3.50
   1  -3 -14    2.50    2.70
   1  -3 -14    8.10    3.50
   1  -3 -14    1.40    2.80
  -1   3  14    3.70    3.20
  -1   3  14    3.20    1.50
   0  -3 -14   12.70    3.40
   0  -3 -14   11.40    3.60
   0  -3 -14   13.70    2.80
   0  -3 -14   14.20    4.50
   0   3  14   12.30    3.80
   0   3  14   14.60    3.80
   0   3  14   16.40    3.30
  -1  -3 -14   64.89    5.80
  -1  -3 -14   57.29    4.60
  -1  -3 -14   69.59    6.70
   1   3  14   58.89    5.70
   1   3  14   62.59    6.50
   1   3  14   61.49    6.60
  -2  -3 -14    8.70    4.30
  -2  -3 -14   12.10    4.10
  -2  -3 -14   10.10    3.20
   2   3  14   14.70    5.20
   2   3  14   15.10    3.40
   2   3  14   15.10    4.00
   2   3  14   15.60    4.90
  -3  -3 -14   30.50    4.20
   3   3  14   27.20    3.70
   3   3  14   36.10    8.00
   3   3  14   28.40    4.70
   3   3  14   20.20    5.10
  -4  -3 -14    1.90    2.70
   4   3  14    4.00    3.80
   4   3  14    9.00    8.00
  -5  -3 -14   46.30    6.30
   5   3  14   58.89    9.30
   4  -4 -14   15.20    5.70
   4  -4 -14   30.20    6.50
  -4   4  14   24.30    4.80
  -4   4  14   24.80    3.90
   3  -4 -14    2.80    4.40
   3  -4 -14   -1.20    2.60
   3  -4 -14    4.30    3.60
  -3   4  14    3.20    3.10
  -3   4  14    0.70    1.60
   2  -4 -14   67.29    5.40
   2  -4 -14   48.90    5.10
   2  -4 -14   64.59    7.00
   2  -4 -14   64.19    6.70
  -2   4  14   53.09    4.30
  -2   4  14   63.59    5.50
  -2   4  14   61.99    5.80
   1  -4 -14    7.00    2.80
   1  -4 -14    5.80    2.70
   1  -4 -14    2.90    2.80
   1  -4 -14    0.90    4.20
  -1   4  14    2.30    3.20
  -1   4  14    3.50    1.80
   0  -4 -14  134.09    7.20
   0  -4 -14  135.89    7.20
   0  -4 -14  137.29    7.00
   0  -4 -14  131.39    7.90
   0   4  14  155.38    8.20
   0   4  14  125.69    7.20
   0   4  14  149.29    8.20
  -1  -4 -14   15.50    3.40
  -1  -4 -14   16.60    3.90
  -1  -4 -14   11.80    3.00
   1   4  14   10.90    4.60
   1   4  14   18.70    3.70
   1   4  14   14.10    4.50
   1   4  14   16.60    3.30
  -2  -4 -14  117.79    6.20
  -2  -4 -14  110.29    8.90
  -2  -4 -14  109.29    7.70
   2   4  14  133.29    7.20
   2   4  14  117.49    9.10
   2   4  14  108.09    9.40
   2   4  14  129.69    7.90
  -3  -4 -14   59.69    5.20
   3   4  14   58.39    6.30
   3   4  14   59.99    5.50
   3   4  14   55.19    7.70
   3   4  14   54.69    7.30
  -4  -4 -14   19.30    3.50
   4   4  14   27.10    8.90
   4   4  14   19.10    3.90
  -5  -4 -14   36.30    6.40
   5   4  14   34.00   10.10
   4  -5 -14    3.00    5.30
   4  -5 -14    9.20    3.80
  -4   5  14   -1.40    1.70
   3  -5 -14   11.30    3.90
   3  -5 -14    7.70    4.00
   3  -5 -14    9.70    2.90
  -3   5  14    9.60    2.90
   2  -5 -14   -0.30    4.60
   2  -5 -14    3.50    3.00
   2  -5 -14    8.50    3.90
  -2   5  14    0.80    2.10
  -2   5  14    1.00    3.10
  -2   5  14    2.80    2.80
   1  -5 -14   88.19    5.50
   1  -5 -14   82.49    6.60
   1  -5 -14   75.99    7.60
   1  -5 -14   76.49    6.50
  -1   5  14   76.59    4.60
  -1   5  14   79.19    5.60
   0  -5 -14   52.19    5.10
   0  -5 -14   55.69    4.90
   0  -5 -14   54.79    5.20
   0  -5 -14   60.89    6.80
   0   5  14   52.19    5.60
   0   5  14   53.29    5.40
  -1  -5 -14   -2.20    4.00
  -1  -5 -14   -0.70    2.90
  -1  -5 -14    1.90    2.10
   1   5  14   -5.40    3.60
   1   5  14   -5.30    2.40
   1   5  14    4.80    3.60
   1   5  14    5.00    3.50
  -2  -5 -14   83.49    6.70
  -2  -5 -14   72.99    5.90
  -2  -5 -14   87.09    7.20
   2   5  14   74.59    5.60
   2   5  14   75.09    8.20
   2   5  14   71.19    6.80
   2   5  14   78.09    6.10
  -3  -5 -14   -0.70    2.80
   3   5  14    0.80    4.70
   3   5  14   -0.90    2.50
   3   5  14    2.00    3.60
  -4  -5 -14   28.90    4.40
   4   5  14   26.40    4.40
   4   5  14   18.20    8.30
   4   5  14   21.80    4.90
  -5  -5 -14    8.90    4.70
   5   5  14   14.70    8.80
   4  -6 -14   41.70    7.80
  -4   6  14   49.10    5.20
   3  -6 -14   60.99    7.30
   3  -6 -14   47.40    7.60
  -3   6  14   45.40    4.40
   2  -6 -14    9.90    3.80
   2  -6 -14    0.60    3.00
   2  -6 -14    0.70    4.70
  -2   6  14    1.50    1.70
  -2   6  14    4.80    3.80
   1  -6 -14  112.69    7.60
   1  -6 -14  108.69    7.00
   1  -6 -14  100.99    6.70
   1  -6 -14   90.69    6.30
   1  -6 -14  100.79    8.80
  -1   6  14  100.39    7.50
  -1   6  14   99.49    5.50
   0  -6 -14   14.70    5.30
   0  -6 -14   26.50    4.30
   0  -6 -14   14.80    3.70
   0   6  14   15.30    4.30
  -1  -6 -14   99.19    8.30
  -1  -6 -14  107.59    7.00
  -1  -6 -14   98.99    6.10
   1   6  14  104.39    8.20
   1   6  14  101.49    7.50
   1   6  14  107.89    6.80
  -2  -6 -14   24.70    4.20
  -2  -6 -14   27.10    5.90
   2   6  14   16.80    5.90
   2   6  14   23.20    4.10
   2   6  14   18.80    4.70
   2   6  14   25.40    6.30
  -3  -6 -14   67.69    5.20
  -3  -6 -14   64.79    7.50
   3   6  14   67.09    7.80
   3   6  14   65.09    6.70
   3   6  14   82.29    7.10
  -4  -6 -14   20.40    3.60
   4   6  14   25.60    8.30
   4   6  14   24.00    4.80
   4   6  14   19.40    4.00
  -5  -6 -14    8.20    3.40
   5   6  14   14.40    8.70
   3  -7 -14    3.80    5.70
  -3   7  14    6.40    2.50
   2  -7 -14   11.40    5.80
   2  -7 -14   27.50    4.50
   2  -7 -14   11.40    3.70
  -2   7  14    7.60    3.50
  -2   7  14   13.80    2.70
   1  -7 -14   -2.60    5.10
   1  -7 -14    6.10    4.10
   1  -7 -14    0.50    3.20
  -1   7  14    3.40    3.70
  -1   7  14    7.10    2.70
   0  -7 -14   22.00    3.50
   0  -7 -14   14.90    4.40
   0  -7 -14   26.30    4.40
   0   7  14   26.60    5.00
   0   7  14   22.30    4.00
  -1  -7 -14  107.69    7.20
  -1  -7 -14   87.59    8.60
   1   7  14  101.39    7.80
   1   7  14   88.79    6.50
  -2  -7 -14   15.50    4.00
  -2  -7 -14    2.20    3.70
   2   7  14    8.90    4.50
   2   7  14    6.00    5.10
   2   7  14    7.80    4.20
  -3  -7 -14   38.80    4.90
  -3  -7 -14   35.80    6.60
   3   7  14   38.20    5.10
   3   7  14   28.10    7.60
   3   7  14   43.40    6.00
  -4  -7 -14    2.50    3.10
  -4  -7 -14    6.10    4.20
   4   7  14   -1.00    4.00
   4   7  14   -0.80    4.30
   4   7  14    4.80    7.00
   3  -8 -14   27.40    7.40
  -3   8  14   20.50    4.00
   2  -8 -14   32.40    4.50
   2  -8 -14   43.00    6.50
  -2   8  14   45.70    5.00
  -2   8  14   41.50    5.30
   1  -8 -14    5.20    5.40
   1  -8 -14    5.50    4.60
   1  -8 -14    7.00    3.90
  -1   8  14    4.20    3.90
   0  -8 -14   95.89    7.60
   0  -8 -14  104.79    8.80
   0  -8 -14  102.79    9.30
   0   8  14  116.59    8.70
   0   8  14  115.59    8.70
  -1  -8 -14    7.70    5.60
  -1  -8 -14   17.20    3.60
   1   8  14   27.60    5.40
   1   8  14   17.90    4.70
  -2  -8 -14   72.29    8.30
  -2  -8 -14   91.49    7.20
   2   8  14   85.29    7.60
   2   8  14   65.89    6.60
  -3  -8 -14    4.90    3.50
  -3  -8 -14    1.00    5.30
   3   8  14   -3.50    4.50
   3   8  14   -1.20    3.90
  -4  -8 -14   27.40    4.20
  -4  -8 -14   31.30    5.40
   4   8  14   17.40    4.40
   4   8  14   22.70    5.80
   4   8  14   30.20    8.30
   2  -9 -14   25.30    5.90
   2  -9 -14   38.80    5.60
  -2   9  14   42.90    5.40
  -2   9  14   37.90    4.40
   1  -9 -14   47.00    8.20
   1  -9 -14   45.50    6.10
   1  -9 -14   58.09    6.50
   0  -9 -14    6.80    4.10
   0  -9 -14   15.10    5.60
   0  -9 -14    0.70    5.70
   0   9  14   11.00    3.70
   0   9  14   24.40    5.70
  -1  -9 -14   27.40    5.10
  -1  -9 -14   22.00    5.00
   1   9  14   14.60    5.10
   1   9  14   25.40    5.50
  -2  -9 -14   53.59    6.80
  -2  -9 -14   52.99    6.10
   2   9  14   62.79    7.10
   2   9  14   61.59    7.40
  -3  -9 -14   -0.20    5.00
  -3  -9 -14   16.10    4.20
   3   9  14   12.30    5.30
   3   9  14    8.20    4.90
   0 -10 -14   14.00    6.60
   0 -10 -14   -1.10    5.10
   0 -10 -14    5.00    4.20
   0  10  14   10.80    4.70
   0  10  14    8.70    4.80
  -1 -10 -14   24.00    4.40
  -1 -10 -14   17.70    6.30
   1  10  14   17.70    5.30
   1  10  14   39.70    6.20
  -2 -10 -14    7.70    6.00
  -2 -10 -14    9.10    4.20
   2  10  14    8.20    3.80
   2  10  14   20.40    5.20
   2   7 -15    8.60    6.30
   2   7 -15   11.00    3.90
  -2  -7  15   13.40    4.80
  -2  -7  15   10.30    4.80
   1   7 -15   18.70    8.80
   1   7 -15   16.90    5.40
  -1  -7  15   17.30    5.30
  -1  -7  15   21.10    5.80
   0   7 -15   64.89    7.20
   0   7 -15   55.89    8.80
   0  -7  15   66.59    7.80
   0  -7  15   65.09    7.70
  -1   7 -15    9.60    5.80
  -1   7 -15   17.40    4.40
   1  -7  15   14.40    6.00
   1  -7  15   23.50    4.90
   3   6 -15    1.50    4.10
   3   6 -15    1.10    8.40
  -3  -6  15    3.90    3.50
  -3  -6  15    1.50    3.40
   2   6 -15    4.50    4.30
   2   6 -15    7.20    8.40
  -2  -6  15    4.20    4.50
   1   6 -15   24.80    8.80
   1   6 -15   32.80    5.70
  -1  -6  15   32.00    5.90
  -1  -6  15   30.30    5.60
   0   6 -15   -0.80    6.60
   0   6 -15    2.90    4.20
   0  -6  15    0.60    4.40
   0  -6  15    8.20    5.40
  -1   6 -15   85.59    8.80
  -1   6 -15   79.49    7.60
   1  -6  15   89.79    9.80
   1  -6  15   86.09    8.30
  -2   6 -15    9.60    4.80
  -2   6 -15   -3.10    3.90
   2  -6  15   -0.30    2.90
   2  -6  15   -5.60    3.90
   3   5 -15    3.70    5.90
   3   5 -15    4.80    3.90
  -3  -5  15    7.00    4.80
  -3  -5  15    2.90    3.40
   2   5 -15   80.39    7.20
   2   5 -15   76.59   11.00
  -2  -5  15   80.09    7.00
   1   5 -15    6.80    5.70
   1   5 -15    9.20    4.20
  -1  -5  15    8.60    5.40
  -1  -5  15    7.20    4.40
   0   5 -15   54.79    6.20
   0   5 -15   38.80    8.40
   0  -5  15   51.69    6.60
   0  -5  15   57.39    7.90
  -1   5 -15   82.99    7.30
  -1   5 -15   73.39    7.50
   1  -5  15   64.59    8.70
   1  -5  15   70.99    7.50
  -2   5 -15   70.19    6.60
  -2   5 -15   64.19    6.00
  -2   5 -15   61.19    7.50
   2  -5  15   69.79    7.50
   2  -5  15   66.39    7.90
  -3   5 -15   38.10    5.30
  -3   5 -15   42.90    6.00
   3  -5  15   45.90    6.80
   3  -5  15   39.40    6.90
   4   4 -15   28.10    8.50
  -4  -4  15   19.80    5.20
   3   4 -15   -0.30    3.40
   3   4 -15    0.70    7.20
  -3  -4  15   -2.80    3.60
  -3  -4  15    4.90    4.60
   2   4 -15   43.60    5.60
   2   4 -15   32.30    6.90
  -2  -4  15   42.40    5.40
   1   4 -15   29.10    5.00
   1   4 -15   20.70    7.70
  -1  -4  15   29.80    5.20
  -1  -4  15   41.90    6.70
   0   4 -15   83.89    9.90
   0   4 -15   93.79    7.30
   0  -4  15  114.69    8.50
   0  -4  15  106.29    9.30
  -1   4 -15    4.20    3.80
  -1   4 -15    0.30    5.20
   1  -4  15    0.30    2.80
   1  -4  15    1.20    4.10
  -2   4 -15  103.39    9.00
  -2   4 -15  106.09    7.90
   2  -4  15  107.49    9.80
   2  -4  15   90.89    8.20
  -3   4 -15    4.80    4.10
  -3   4 -15   -2.60    3.40
   3  -4  15    2.10    4.60
   3  -4  15    1.30    4.00
   4   3 -15   -2.70    4.40
  -4  -3  15    0.80    4.80
   3   3 -15   55.79    8.90
   3   3 -15   43.10    5.40
  -3  -3  15   43.90    6.60
   2   3 -15   12.20    4.00
   2   3 -15   11.00    6.90
  -2  -3  15   17.50    4.10
  -2  -3  15   21.40    5.30
   1   3 -15  106.49   10.40
   1   3 -15   88.19    7.00
  -1  -3  15   94.69    6.60
  -1  -3  15  103.39    8.60
   0   3 -15   23.80    7.10
   0   3 -15   16.90    3.50
   0  -3  15   17.90    4.50
  -1   3 -15   11.10    4.10
  -1   3 -15    8.50    5.90
   1  -3  15   21.70    6.40
   1  -3  15   13.50    4.70
  -2   3 -15   17.60    4.00
  -2   3 -15   20.40    4.60
   2  -3  15   17.00    5.20
   2  -3  15   23.10    7.10
  -3   3 -15   48.30    6.40
  -3   3 -15   44.10    5.20
   3  -3  15   43.40    7.20
   3  -3  15   43.80    6.60
  -4   3 -15   18.00    5.10
  -4   3 -15   12.30    3.70
   4  -3  15   23.50    8.20
   4  -3  15   13.60    5.30
   4   2 -15   48.70    8.60
  -4  -2  15   43.10    6.50
   3   2 -15   31.40    4.60
   3   2 -15   39.40    6.60
  -3  -2  15   28.80    3.90
  -3  -2  15   35.00    6.30
   2   2 -15    1.80    4.00
   2   2 -15    1.90    3.10
  -2  -2  15    5.90    4.30
  -2  -2  15   -3.90    2.90
   1   2 -15   27.90    4.40
   1   2 -15   22.50    5.10
   1   2 -15   31.90    7.00
  -1  -2  15   32.60    5.60
   0   2 -15   33.00    4.80
   0   2 -15   26.60    4.40
   0   2 -15   28.70    6.60
   0  -2  15   38.00    6.30
   0  -2  15   28.20    5.20
  -1   2 -15   86.19    8.40
  -1   2 -15   81.69    6.50
   1  -2  15   84.19    7.40
   1  -2  15   87.99    8.70
  -2   2 -15    4.60    4.20
  -2   2 -15    0.10    3.40
   2  -2  15   -4.50    5.60
   2  -2  15   -0.20    3.70
  -3   2 -15   30.80    4.60
   3  -2  15   41.80    7.00
   3  -2  15   41.50    6.10
  -4   2 -15   -4.00    4.00
  -4   2 -15    0.00    3.00
   4  -2  15    1.90    7.40
   4  -2  15    0.40    3.90
   4   1 -15   78.89    9.80
  -4  -1  15   58.19    7.20
   3   1 -15    1.00    2.80
   3   1 -15   -1.00    5.30
  -3  -1  15   -7.40    2.80
  -3  -1  15   -4.80    3.80
   2   1 -15   76.29    8.30
   2   1 -15   76.49    6.10
  -2  -1  15   95.49    7.60
   1   1 -15   11.50    3.50
   1   1 -15   11.90    3.40
   1   1 -15    7.10    5.10
   1   1 -15   10.60    3.40
  -1  -1  15   14.00    4.60
  -1  -1  15   19.40    4.50
   0   1 -15   65.69    5.70
   0   1 -15   50.99    6.20
   0   1 -15   56.89    6.00
   0  -1  15   48.30    5.30
   0  -1  15   59.49    6.30
   0  -1  15   72.79    7.40
  -1   1 -15   30.70    6.00
  -1   1 -15   33.50    4.50
  -1   1 -15   17.00    5.00
   1  -1  15   27.40    4.50
   1  -1  15   44.20    5.60
   1  -1  15   27.30    5.20
  -2   1 -15   -3.20    3.10
   2  -1  15    6.30    6.00
   2  -1  15   -3.00    3.50
  -3   1 -15   11.30    3.60
   3  -1  15   17.00    4.60
   3  -1  15   29.50    8.10
  -4   1 -15   14.00    3.40
  -4   1 -15   13.90    4.20
   4  -1  15   19.50    8.70
   4  -1  15   17.50    4.80
   4   0 -15   42.40    7.70
  -4   0  15   32.40    6.40
   3   0 -15   86.99    9.40
   3   0 -15   84.89    6.10
  -3   0  15   90.69    8.30
   2   0 -15   63.99    7.50
   2   0 -15   54.99    5.60
   2   0 -15   74.79    5.80
  -2   0  15   62.39    5.60
  -2   0  15   63.39    6.10
   1   0 -15   11.60    3.70
   1   0 -15   11.00    3.40
   1   0 -15   10.00    4.70
   1   0 -15   12.10    3.10
  -1   0  15   20.50    3.80
  -1   0  15    9.80    3.80
   0   0 -15   83.09    6.90
   0   0 -15   91.99    6.30
   0   0 -15  100.19    6.50
   0   0 -15   92.89    8.40
   0   0  15   93.49    7.30
   0   0  15  102.39    8.30
   0   0  15   87.39    7.50
  -1   0 -15   -1.10    2.80
  -1   0 -15    2.90    4.40
  -1   0 -15   -0.60    2.70
   1   0  15    0.70    3.80
   1   0  15    2.80    4.90
   1   0  15    4.00    3.60
  -2   0 -15   90.69    6.70
   2   0  15  101.59    8.80
   2   0  15   95.79    6.70
  -3   0 -15   11.00    2.90
   3   0  15   15.00    7.60
   3   0  15    9.00    3.30
  -4   0 -15   15.80    3.50
  -4   0 -15   21.90    4.80
   4   0  15   19.20    6.60
   4   0  15   26.80    5.20
  -5   0 -15   -1.60    4.50
   5   0  15    3.70    8.90
   4  -1 -15   -0.80    5.40
  -4   1  15    0.00    4.40
   3  -1 -15   55.79    7.70
   3  -1 -15   53.99    5.90
   3  -1 -15   56.39    5.10
  -3   1  15   51.79    6.60
   2  -1 -15   -1.00    3.00
   2  -1 -15    1.30    3.60
   2  -1 -15    4.40    2.90
  -2   1  15   -1.30    3.00
   1  -1 -15   63.79    5.50
   1  -1 -15   65.19    6.70
   1  -1 -15   59.99    6.10
   1  -1 -15   66.09    5.50
  -1   1  15   70.49    5.50
  -1   1  15   62.59    6.00
   0  -1 -15   80.09    7.30
   0  -1 -15   91.49    6.50
   0  -1 -15   77.79    6.80
   0  -1 -15   95.19    6.30
   0   1  15   94.89    7.20
   0   1  15   94.09    7.70
   0   1  15   89.39    6.60
  -1  -1 -15   -4.10    3.90
  -1  -1 -15    1.90    3.80
  -1  -1 -15    6.00    3.20
   1   1  15    1.10    2.50
   1   1  15    1.80    2.90
   1   1  15    3.90    4.80
  -2  -1 -15   76.29    6.10
   2   1  15   60.89    7.40
   2   1  15   73.39    6.70
   2   1  15   86.19    9.30
  -3  -1 -15    2.50    2.30
   3   1  15    2.60    5.10
   3   1  15   -1.50    3.80
  -4  -1 -15    7.60    3.80
  -4  -1 -15    7.60    3.10
   4   1  15    5.70    8.50
   4   1  15    4.00    3.10
  -5  -1 -15   -1.40    4.70
   5   1  15   14.90    9.30
   4  -2 -15  144.19   12.30
  -4   2  15  129.39   10.30
   3  -2 -15    6.40    5.50
   3  -2 -15    5.70    3.00
   3  -2 -15    6.80    4.40
  -3   2  15    5.30    3.70
  -3   2  15    6.10    4.00
   2  -2 -15   91.29    7.50
   2  -2 -15   98.39    8.90
   2  -2 -15   90.49    6.10
  -2   2  15  106.09    6.60
   1  -2 -15   26.30    5.10
   1  -2 -15   30.60    3.80
   1  -2 -15   29.80    5.30
   1  -2 -15   22.90    4.80
  -1   2  15   27.50    4.20
  -1   2  15   31.90    4.70
   0  -2 -15   15.90    4.10
   0  -2 -15   12.40    2.90
   0  -2 -15   19.30    3.40
   0  -2 -15   12.90    3.60
   0   2  15   11.80    4.00
   0   2  15   13.70    3.40
   0   2  15   15.60    4.30
  -1  -2 -15  166.58    9.80
  -1  -2 -15  169.38    7.50
  -1  -2 -15  175.78    9.40
   1   2  15  180.78    9.30
   1   2  15  179.68    9.10
   1   2  15  166.88    9.10
  -2  -2 -15   -3.80    3.80
  -2  -2 -15    1.00    3.10
   2   2  15    1.10    4.70
   2   2  15   -2.60    5.70
   2   2  15   -5.40    3.30
  -3  -2 -15   81.39    6.30
   3   2  15   95.99    7.70
   3   2  15   98.19   11.20
  -4  -2 -15    4.50    3.00
  -4  -2 -15    6.40    5.00
   4   2  15    5.00    4.10
   4   2  15    2.50    6.10
  -5  -2 -15   14.70    4.60
   5   2  15   -1.60    6.40
   4  -3 -15   33.00    6.00
   4  -3 -15   53.19    8.20
  -4   3  15   40.70    4.40
  -4   3  15   46.30    6.20
   3  -3 -15    0.10    4.60
   3  -3 -15    0.20    2.60
   3  -3 -15    2.60    4.40
  -3   3  15   -2.70    3.10
  -3   3  15    2.00    2.20
   2  -3 -15   67.59    5.10
   2  -3 -15   72.79    7.20
   2  -3 -15   71.79    7.50
  -2   3  15   67.59    5.60
  -2   3  15   60.49    4.20
   1  -3 -15    7.80    3.20
   1  -3 -15    6.90    4.30
   1  -3 -15    1.20    3.50
   1  -3 -15    4.50    2.80
  -1   3  15    4.50    2.40
   0  -3 -15  182.38    8.30
   0  -3 -15  176.98    8.60
   0  -3 -15  166.58    8.90
   0  -3 -15  175.08    8.90
   0   3  15  165.08    8.70
   0   3  15  182.78    9.10
   0   3  15  170.28    9.10
  -1  -3 -15  154.68    7.70
  -1  -3 -15  144.39    7.70
  -1  -3 -15  151.38    9.60
   1   3  15  150.38    8.60
   1   3  15  152.58    8.60
   1   3  15  150.28    8.70
  -2  -3 -15    7.30    4.20
  -2  -3 -15   15.90    3.70
   2   3  15   13.10    3.50
   2   3  15   11.20    4.80
   2   3  15    9.30    5.30
  -3  -3 -15   62.09    5.50
   3   3  15   71.69    6.60
   3   3  15   74.89    9.90
  -4  -3 -15    4.40    2.90
   4   3  15   -4.90    7.70
   4   3  15   -4.00    3.80
  -5  -3 -15   13.40    5.60
   5   3  15    9.30    9.20
   4  -4 -15    4.90    5.10
   4  -4 -15   24.40    6.00
  -4   4  15    4.00    2.80
   3  -4 -15   47.60    7.20
   3  -4 -15   55.59    7.40
   3  -4 -15   40.50    6.50
  -3   4  15   47.60    4.50
  -3   4  15   35.10    5.10
   2  -4 -15   29.60    5.60
   2  -4 -15   27.70    4.30
   2  -4 -15   28.20    5.10
  -2   4  15   25.10    4.00
  -2   4  15   20.60    3.00
  -2   4  15   34.20    4.90
   1  -4 -15   43.10    4.50
   1  -4 -15   50.59    5.80
   1  -4 -15   45.70    5.60
   1  -4 -15   52.39    6.10
  -1   4  15   56.49    4.00
  -1   4  15   59.79    5.80
   0  -4 -15   55.89    5.40
   0  -4 -15   43.70    6.20
   0  -4 -15   56.19    5.70
   0  -4 -15   55.09    4.90
   0   4  15   65.09    6.20
   0   4  15   61.19    5.40
  -1  -4 -15    0.80    3.00
  -1  -4 -15    0.90    2.60
  -1  -4 -15    0.60    4.30
   1   4  15   -0.40    2.80
   1   4  15    7.20    4.40
   1   4  15    2.90    3.60
  -2  -4 -15   94.59    6.70
  -2  -4 -15   85.79    7.90
   2   4  15  100.49    6.90
   2   4  15  101.69    9.50
   2   4  15  100.29    7.80
   2   4  15   93.69    8.70
  -3  -4 -15    2.30    3.30
   3   4  15    6.20    3.30
   3   4  15   -3.00    4.70
   3   4  15    5.90    4.00
  -4  -4 -15   29.90    4.00
   4   4  15   39.60    5.80
   4   4  15   32.60    8.90
  -5  -4 -15   10.50    5.50
   5   4  15    7.70    8.50
   4  -5 -15   17.80    6.20
   4  -5 -15   36.30    6.90
  -4   5  15   21.80    3.50
   3  -5 -15    8.20    3.50
   3  -5 -15    0.50    3.60
  -3   5  15    5.80    2.70
   2  -5 -15   -0.30    2.80
   2  -5 -15    0.40    3.50
   2  -5 -15    2.30    2.80
  -2   5  15   -1.20    2.00
  -2   5  15   -2.70    2.90
   1  -5 -15   77.29    6.20
   1  -5 -15   81.69    7.00
   1  -5 -15   65.19    7.50
  -1   5  15   76.09    4.80
  -1   5  15   70.89    6.40
   0  -5 -15    3.10    3.10
   0  -5 -15    1.40    2.50
   0  -5 -15    4.40    3.50
   0   5  15    5.40    3.50
   0   5  15    5.00    3.90
  -1  -5 -15   80.59    7.90
  -1  -5 -15   69.49    5.90
  -1  -5 -15   67.09    5.90
   1   5  15   95.49    7.40
   1   5  15   78.69    7.40
   1   5  15   89.19    7.30
  -2  -5 -15   51.29    5.60
  -2  -5 -15   60.39    6.70
  -2  -5 -15   62.19    5.70
   2   5  15   67.09    7.70
   2   5  15   67.39    8.30
   2   5  15   65.09    5.80
   2   5  15   61.09    6.40
  -3  -5 -15   11.60    3.60
   3   5  15    5.90    5.10
   3   5  15    2.80    4.10
   3   5  15   12.40    4.10
  -4  -5 -15   19.80    4.40
   4   5  15   34.90    5.80
   4   5  15   31.60    8.80
   3  -6 -15    6.00    5.40
  -3   6  15    3.10    1.90
   2  -6 -15   29.80    4.50
   2  -6 -15   42.80    5.90
   2  -6 -15   32.80    6.80
  -2   6  15   29.70    3.90
  -2   6  15   32.90    4.50
   1  -6 -15   25.80    4.50
   1  -6 -15   21.80    3.60
   1  -6 -15   35.50    6.70
  -1   6  15   23.50    4.70
  -1   6  15   19.40    3.10
   0  -6 -15   31.10    4.20
   0  -6 -15   23.40    4.50
   0  -6 -15   36.10    5.40
   0   6  15   30.10    5.20
  -1  -6 -15   36.90    4.10
  -1  -6 -15   42.90    5.20
  -1  -6 -15   41.30    6.70
   1   6  15   56.59    6.20
   1   6  15   37.50    5.60
   1   6  15   36.40    5.60
  -2  -6 -15   11.20    3.90
  -2  -6 -15    3.20    5.20
   2   6  15    4.00    6.80
   2   6  15    4.80    3.10
   2   6  15    8.60    4.20
  -3  -6 -15   58.19    5.60
   3   6  15   51.29    5.80
   3   6  15   63.79    6.60
   3   6  15   40.40    8.30
  -4  -6 -15    0.10    2.80
   4   6  15   -0.40    4.10
   4   6  15    9.90    4.00
   4   6  15    6.40    7.80
   3  -7 -15   17.80    5.30
  -3   7  15    9.00    2.70
   2  -7 -15   -5.20    5.10
   2  -7 -15    4.10    3.50
   2  -7 -15   19.70    3.50
  -2   7  15    2.10    2.80
  -2   7  15    0.60    3.20
   1  -7 -15    4.60    3.50
   1  -7 -15   -1.80    5.20
  -1   7  15    0.80    2.40
  -1   7  15   -7.80    3.30
   0  -7 -15   36.50    6.70
   0  -7 -15   49.70    5.70
   0   7  15   48.90    5.50
  -1  -7 -15    3.20    2.50
  -1  -7 -15   -0.80    3.60
   1   7  15    1.20    3.70
   1   7  15    7.70    4.40
  -2  -7 -15   25.60    4.80
  -2  -7 -15   25.40    6.50
   2   7  15   16.20    5.00
   2   7  15   23.50    4.30
  -3  -7 -15   28.00    4.50
  -3  -7 -15   35.60    5.80
   3   7  15   26.60    5.60
   3   7  15   32.20    4.90
   3   7  15   24.10    7.70
  -4  -7 -15   -0.70    4.10
  -4  -7 -15    4.30    3.20
   4   7  15   12.40    8.10
   4   7  15    3.30    4.00
   4   7  15    3.90    4.60
   2  -8 -15    0.50    5.50
   2  -8 -15    7.50    3.10
  -2   8  15    2.70    2.90
  -2   8  15    7.20    3.90
   1  -8 -15    6.70    4.50
   1  -8 -15    6.80    3.90
  -1   8  15    7.90    3.00
  -1   8  15    6.20    4.20
   0  -8 -15   46.40    5.30
   0  -8 -15   33.40    7.10
   0   8  15   54.69    6.40
  -1  -8 -15    3.60    3.60
  -1  -8 -15   -0.90    5.30
   1   8  15    1.30    4.00
   1   8  15    8.40    3.40
  -2  -8 -15   32.80    4.40
  -2  -8 -15   16.70    6.30
   2   8  15   28.20    5.60
   2   8  15   43.50    6.20
  -3  -8 -15   -1.50    5.10
  -3  -8 -15    8.70    2.90
   3   8  15    2.50    4.50
   3   8  15   10.60    5.00
   1  -9 -15    6.80    3.80
   1  -9 -15   -2.60    5.90
  -1   9  15    8.20    4.40
  -1   9  15    1.40    2.90
   0  -9 -15    1.40    2.80
   0  -9 -15   -2.90    5.70
   0   9  15   -3.80    4.00
  -1  -9 -15   13.20    5.00
  -1  -9 -15   10.20    4.30
   1   9  15   26.90    5.60
   1   9  15   12.90    5.10
  -2  -9 -15    3.80    3.80
  -2  -9 -15   -0.80    5.60
   2   9  15    3.00    4.30
   2   9  15    5.30    4.80
   2   6 -16   -0.40    8.20
   2   6 -16    5.20    4.50
  -2  -6  16    6.90    4.30
   1   6 -16    6.10    8.50
   1   6 -16    2.80    4.40
  -1  -6  16    8.50    5.30
  -1  -6  16    3.70    3.50
   0   6 -16   20.00    5.40
   0   6 -16   25.90    7.80
   0  -6  16   23.90    5.50
   0  -6  16   24.80    5.00
  -1   6 -16   28.20    5.70
  -1   6 -16   28.00    5.50
   1  -6  16   39.10    6.60
   1  -6  16   31.10    6.10
   3   5 -16   -0.40    6.00
   3   5 -16   -1.50    2.60
   2   5 -16   12.30    4.70
   2   5 -16   13.10    6.50
  -2  -5  16   10.20    4.50
   1   5 -16    1.90    7.80
   1   5 -16    6.60    3.20
  -1  -5  16    4.30    3.60
  -1  -5  16    1.30    4.30
   0   5 -16   22.10    4.20
   0   5 -16   13.90    7.20
   0  -5  16   29.30    6.80
   0  -5  16   21.90    5.80
  -1   5 -16   46.80    7.70
  -1   5 -16   43.80    6.10
   1  -5  16   44.50    8.00
   1  -5  16   46.70    6.80
  -2   5 -16   -0.50    3.50
  -2   5 -16    6.30    3.60
  -2   5 -16    4.60    4.20
   2  -5  16    2.90    4.60
   2  -5  16   -0.10    6.00
   3   4 -16    9.70    4.20
   3   4 -16   12.30    8.30
  -3  -4  16    6.10    5.10
   2   4 -16    0.40    3.90
   2   4 -16   -5.30    7.20
  -2  -4  16    4.10    3.90
   1   4 -16    0.00    3.70
   1   4 -16    1.40    7.30
  -1  -4  16    1.80    3.50
  -1  -4  16    1.10    4.00
   0   4 -16    0.30    4.00
   0   4 -16    0.90    6.70
   0  -4  16   -2.10    4.00
   0  -4  16    2.20    3.80
  -1   4 -16    4.50    4.10
  -1   4 -16    3.10    5.40
   1  -4  16    3.60    4.50
   1  -4  16    9.10    6.30
  -2   4 -16   57.09    6.30
   2  -4  16   76.79    8.70
   2  -4  16   82.79    8.10
  -3   4 -16    0.30    3.60
  -3   4 -16    0.60    4.00
   3  -4  16   -0.20    3.30
   3  -4  16    5.10    4.80
   3   3 -16    5.80    3.80
   3   3 -16   -1.70    6.90
  -3  -3  16    7.20    5.00
   2   3 -16   -2.10    6.60
   2   3 -16    4.70    3.00
  -2  -3  16   -0.30    3.60
  -2  -3  16   -0.80    4.00
   1   3 -16   62.69    9.30
   1   3 -16   67.19    6.60
  -1  -3  16   69.59    7.10
  -1  -3  16   75.89    7.00
   0   3 -16    9.60    4.10
   0   3 -16   16.60    7.00
   0  -3  16   16.10    6.00
  -1   3 -16   73.19    8.40
  -1   3 -16   76.49    6.30
   1  -3  16   95.39    8.70
  -2   3 -16  107.89    7.90
  -2   3 -16   80.19    8.20
   2  -3  16   89.99   10.20
   2  -3  16  106.09    8.20
  -3   3 -16   25.60    4.60
  -3   3 -16   15.80    5.00
   3  -3  16   33.60    7.10
   3  -3  16   16.30    5.30
   4   2 -16   33.20    8.30
  -4  -2  16   38.00    6.50
   3   2 -16   -2.70    4.10
   3   2 -16    1.10    3.40
  -3  -2  16    1.70    4.50
  -3  -2  16    3.10    5.00
   2   2 -16    9.10    3.00
   2   2 -16   10.00    6.60
  -2  -2  16   10.00    3.80
  -2  -2  16   10.70    4.40
   1   2 -16   28.10    7.50
   1   2 -16   39.50    5.30
  -1  -2  16   46.00    5.70
   0   2 -16   23.00    4.60
   0   2 -16   17.60    5.20
   0  -2  16   23.70    5.40
   0  -2  16   38.50    6.60
  -1   2 -16   41.10    5.60
  -1   2 -16   40.30    5.90
   1  -2  16   41.50    5.40
   1  -2  16   39.20    7.10
  -2   2 -16    1.50    3.70
   2  -2  16   -0.90    6.10
   2  -2  16   -1.40    4.10
  -3   2 -16  113.59    7.60
   3  -2  16  104.29    9.20
   3  -2  16  108.09   11.60
  -4   2 -16    0.70    4.70
  -4   2 -16   -2.00    2.90
   4  -2  16    3.80    4.60
   4  -2  16    4.40    5.50
   4   1 -16   41.20    8.40
  -4  -1  16   58.29    7.40
   3   1 -16   -6.30    3.60
   3   1 -16    1.60    3.10
  -3  -1  16    0.30    4.30
   2   1 -16   18.90    5.10
   2   1 -16   17.80    4.10
  -2  -1  16   22.80    4.80
  -2  -1  16   18.10    4.20
   1   1 -16    4.40    3.40
   1   1 -16    3.40    5.50
  -1  -1  16   -4.50    3.50
  -1  -1  16    7.00    4.40
   0   1 -16  131.59   10.80
   0   1 -16  150.28    8.40
   0  -1  16  159.78    9.50
   0  -1  16  179.48   10.90
  -1   1 -16   14.00    4.00
  -1   1 -16    7.80    5.40
   1  -1  16   12.70    4.60
   1  -1  16   20.60    6.00
  -2   1 -16   52.39    5.80
   2  -1  16   56.19    7.20
   2  -1  16   41.00    6.00
  -3   1 -16   36.10    4.90
   3  -1  16   49.50    8.80
   3  -1  16   48.50    6.30
  -4   1 -16   35.00    5.70
  -4   1 -16   40.40    4.70
   4  -1  16   28.00    7.40
   4  -1  16   42.00    6.30
   4   0 -16   13.40    6.50
  -4   0  16    0.10    4.60
   3   0 -16   24.20    4.10
   3   0 -16   11.60    6.20
  -3   0  16   25.20    5.80
   2   0 -16    6.70    5.20
   2   0 -16   10.40    3.60
   2   0 -16    5.30    4.50
  -2   0  16   21.40    4.40
  -2   0  16   14.20    4.00
   1   0 -16   16.10    5.60
   1   0 -16   16.00    3.90
   1   0 -16   14.70    4.40
  -1   0  16   19.60    4.60
  -1   0  16   20.70    4.60
   0   0 -16   19.80    4.00
   0   0 -16   13.90    5.30
   0   0  16   30.00    5.00
   0   0  16   25.40    5.60
  -1   0 -16   35.80    6.20
  -1   0 -16   44.80    5.20
   1   0  16   42.00    5.60
   1   0  16   50.49    6.30
  -2   0 -16   46.70    4.80
   2   0  16   47.40    8.30
   2   0  16   37.20    5.00
  -3   0 -16    7.60    3.60
   3   0  16    2.10    3.00
   3   0  16   -5.80    4.80
  -4   0 -16   55.59    6.70
   4   0  16   57.19   10.60
   4   0  16   58.49    6.90
   4  -1 -16   44.60    8.00
  -4   1  16   34.60    6.70
   3  -1 -16   89.39    5.80
   3  -1 -16  101.59    9.80
  -3   1  16   99.89    9.10
   2  -1 -16    1.40    3.70
   2  -1 -16    4.40    5.10
   2  -1 -16    2.10    2.90
  -2   1  16    5.50    3.50
   1  -1 -16   29.10    5.20
   1  -1 -16   34.00    6.00
   1  -1 -16   36.80    4.80
  -1   1  16   34.20    5.10
  -1   1  16   53.79    5.80
   0  -1 -16   -2.50    3.80
   0  -1 -16    0.70    2.30
   0  -1 -16   -3.10    4.00
   0   1  16    7.40    3.70
   0   1  16   -9.30    3.20
   0   1  16    2.40    4.10
  -1  -1 -16  125.29    7.40
   1   1  16  117.99    7.40
   1   1  16  130.09   10.10
  -2  -1 -16   11.70    3.90
   2   1  16    9.90    4.80
   2   1  16    3.90    4.20
  -3  -1 -16   17.00    4.00
   3   1  16   34.20    8.60
   3   1  16   22.20    5.10
  -4  -1 -16    8.50    3.30
  -4  -1 -16    6.20    4.00
   4   1  16   15.60    6.70
   4   1  16    8.90    4.50
   4  -2 -16  125.09   10.40
  -4   2  16  110.49    9.90
   3  -2 -16   31.30    4.70
   3  -2 -16   39.80    7.30
   3  -2 -16   27.20    5.30
  -3   2  16   30.80    5.70
   2  -2 -16   66.89    5.20
   2  -2 -16   72.79    7.00
   2  -2 -16   76.49    8.10
  -2   2  16   78.09    6.20
   1  -2 -16   28.70    4.40
   1  -2 -16   32.50    4.70
   1  -2 -16   28.50    5.40
  -1   2  16   40.20    5.10
   0  -2 -16   26.90    4.40
   0  -2 -16   21.50    5.10
   0  -2 -16   22.80    4.80
   0   2  16   34.10    5.20
   0   2  16   32.20    5.20
   0   2  16   26.00    5.00
  -1  -2 -16   41.00    5.80
  -1  -2 -16   36.20    5.90
  -1  -2 -16   45.30    4.60
   1   2  16   42.60    5.60
   1   2  16   33.90    6.20
  -2  -2 -16   10.80    3.70
   2   2  16    6.70    3.20
   2   2  16   12.50    6.80
  -3  -2 -16   39.60    4.30
   3   2  16   43.20    9.00
   3   2  16   37.40    5.00
  -4  -2 -16    0.30    4.80
  -4  -2 -16    0.60    3.10
   4   2  16   -9.80    7.80
   4   2  16   -3.50    3.90
   4  -3 -16   90.69   10.00
  -4   3  16   81.39    8.30
   3  -3 -16   26.80    5.50
   3  -3 -16   22.70    4.70
  -3   3  16   23.40    5.40
   2  -3 -16   50.69    5.40
   2  -3 -16   49.40    7.00
   2  -3 -16   26.20    5.90
  -2   3  16   43.90    5.00
   1  -3 -16    2.00    2.80
   1  -3 -16    4.60    3.10
   1  -3 -16   -0.20    3.20
  -1   3  16   -2.40    3.40
   0  -3 -16   24.40    5.60
   0  -3 -16   24.40    4.20
   0  -3 -16   21.70    4.50
   0   3  16   21.60    4.60
   0   3  16   25.50    5.10
   0   3  16   31.00    5.10
  -1  -3 -16    9.60    3.40
  -1  -3 -16    7.30    4.80
  -1  -3 -16    9.20    3.50
   1   3  16    2.60    4.00
   1   3  16    1.50    4.80
   1   3  16   -1.20    4.20
  -2  -3 -16   12.10    3.10
  -2  -3 -16    6.70    3.40
   2   3  16   15.40    6.80
   2   3  16   12.50    4.40
  -3  -3 -16   14.10    3.80
   3   3  16    9.80    5.50
   3   3  16    8.20    4.40
  -4  -3 -16    2.80    3.10
   4   3  16    3.50    4.30
   4   3  16   -1.30    8.10
   3  -4 -16  174.98   11.90
   3  -4 -16  144.79   10.80
  -3   4  16  129.89    7.30
  -3   4  16  130.99    8.40
   2  -4 -16    6.90    5.10
   2  -4 -16   24.10    5.50
   2  -4 -16   18.80    4.00
  -2   4  16   15.30    3.90
  -2   4  16    5.10    3.40
   1  -4 -16  107.09    7.20
   1  -4 -16   98.89    7.10
   1  -4 -16  103.79    8.70
  -1   4  16  105.49    7.80
   0  -4 -16   31.20    4.60
   0  -4 -16   21.10    5.40
   0   4  16   28.30    4.00
   0   4  16   21.40    4.80
  -1  -4 -16   25.20    4.30
  -1  -4 -16   16.40    3.60
  -1  -4 -16   15.60    5.40
   1   4  16   29.10    5.30
   1   4  16   16.00    3.90
   1   4  16   23.60    5.40
  -2  -4 -16   33.00    4.70
  -2  -4 -16   38.90    5.50
  -2  -4 -16   34.40    4.60
   2   4  16   34.80    5.70
   2   4  16   32.10    7.20
  -3  -4 -16    1.00    2.30
   3   4  16    7.30    7.50
   3   4  16   -3.30    4.00
  -4  -4 -16   33.60    4.30
   4   4  16   34.00    7.50
   4   4  16   38.90    5.40
   3  -5 -16   58.59    7.70
   3  -5 -16   83.49    8.70
  -3   5  16   54.09    5.00
   2  -5 -16   23.80    5.10
   2  -5 -16   15.60    5.70
   2  -5 -16   14.90    3.90
  -2   5  16   13.90    3.80
  -2   5  16   13.90    2.90
   1  -5 -16   30.50    6.40
   1  -5 -16   56.29    6.30
   1  -5 -16   41.40    5.40
  -1   5  16   28.50    5.10
   0  -5 -16   -2.70    4.70
   0  -5 -16    6.40    3.60
   0   5  16    7.70    3.50
   0   5  16    3.20    4.10
  -1  -5 -16   48.30    5.10
  -1  -5 -16   57.79    6.40
  -1  -5 -16   54.09    5.70
   1   5  16   44.30    5.90
   1   5  16   45.70    5.40
  -2  -5 -16   55.79    7.40
  -2  -5 -16   56.09    5.70
  -2  -5 -16   40.10    6.00
   2   5  16   65.59    6.70
   2   5  16   52.69    7.90
   2   5  16   58.19    6.90
  -3  -5 -16    3.70    3.40
   3   5  16   11.30    3.00
   3   5  16    4.50    5.20
   3   5  16    3.00    4.60
  -4  -5 -16   12.70    3.50
   4   5  16   15.60    4.20
   4   5  16    8.70    7.90
   3  -6 -16   15.30    5.00
   2  -6 -16  106.59    9.10
   2  -6 -16  143.99    9.30
   2  -6 -16  100.69    7.50
  -2   6  16  105.69    6.40
   1  -6 -16   21.50    6.30
   1  -6 -16   15.50    4.00
  -1   6  16    9.10    4.20
  -1   6  16   18.10    3.10
   0  -6 -16   55.79    6.00
   0  -6 -16   60.79    7.60
   0   6  16   67.79    6.90
  -1  -6 -16   39.20    6.90
  -1  -6 -16   39.50    5.20
   1   6  16   30.10    5.50
  -2  -6 -16    3.50    3.60
  -2  -6 -16   -0.10    5.50
   2   6  16   -3.80    4.00
   2   6  16   13.20    4.50
  -3  -6 -16   35.10    4.80
   3   6  16   22.10    5.40
   3   6  16   40.20    5.40
   3   6  16   27.70    7.90
  -4  -6 -16   -1.60    3.00
   4   6  16    0.70    7.40
   4   6  16   -2.80    4.00
   2  -7 -16   11.60    3.20
   2  -7 -16    7.50    6.20
  -2   7  16    6.70    3.80
  -2   7  16   10.70    3.30
   1  -7 -16   -3.20    5.50
   1  -7 -16    5.80    3.60
  -1   7  16    5.20    4.10
  -1   7  16    2.40    2.40
   0  -7 -16   23.50    4.70
   0  -7 -16   22.00    6.20
   0   7  16   24.50    5.30
  -1  -7 -16    8.80    4.00
  -1  -7 -16    1.40    3.80
   1   7  16   -1.80    4.00
   1   7  16    9.00    4.30
  -2  -7 -16   51.09    7.60
  -2  -7 -16   56.49    5.40
   2   7  16   54.59    6.80
   2   7  16   56.09    6.50
  -3  -7 -16   24.80    3.90
   3   7  16   12.60    5.20
   3   7  16   41.00    5.80
   1  -8 -16   33.40    7.40
   1  -8 -16   38.70    5.10
  -1   8  16   46.90    5.40
  -1   8  16   40.80    4.20
   0  -8 -16   14.00    6.20
   0  -8 -16   14.70    3.70
   0   8  16   21.70    5.40
  -1  -8 -16   50.29    7.90
  -1  -8 -16   41.40    6.00
   1   8  16   49.70    6.00
   1   8  16   65.29    7.30
  -2  -8 -16   17.90    4.60
  -2  -8 -16   23.30    5.60
   2   8  16    5.50    4.90
   2   8  16   25.40    5.10
   1   9  16   37.70    5.60
   1   5 -17    1.30    8.00
   1   5 -17    7.80    4.40
  -1  -5  17   13.30    4.10
  -1  -5  17   28.30    6.50
   0   5 -17   39.80    6.20
   0   5 -17   51.29    9.00
   0  -5  17   53.29    7.10
   0  -5  17   43.70    5.90
  -1   5 -17    5.60    3.40
  -1   5 -17    6.90    5.70
   1  -5  17   -0.30    4.50
   1  -5  17   14.80    5.00
   2   4 -17   -7.10    7.70
   2   4 -17   -1.00    3.90
  -2  -4  17    0.90    3.90
   1   4 -17    9.70    4.50
   1   4 -17    7.60    7.70
  -1  -4  17    8.70    4.50
  -1  -4  17   16.50    5.70
   0   4 -17    3.70    7.00
   0   4 -17   -0.70    4.00
   0  -4  17    2.60    4.40
   0  -4  17    3.20    5.10
  -1   4 -17   54.59    6.50
  -1   4 -17   51.89    7.70
   1  -4  17   66.79    8.90
   1  -4  17   56.19    6.50
  -2   4 -17    7.20    4.40
   2  -4  17   19.50    5.80
   2  -4  17   15.30    5.30
   3   3 -17   11.50    8.10
   3   3 -17   12.00    3.50
  -3  -3  17    1.50    5.00
   2   3 -17   46.90    9.40
   2   3 -17   51.29    6.20
   1   3 -17   10.00    7.40
   1   3 -17    9.10    3.40
  -1  -3  17    8.20    4.90
  -1  -3  17   10.90    3.50
   0   3 -17    5.50    4.20
   0   3 -17   -0.20    6.70
   0  -3  17    3.10    4.30
   0  -3  17   10.00    5.50
  -1   3 -17   25.30    6.70
  -1   3 -17   37.30    5.80
   1  -3  17   39.10    6.70
  -2   3 -17    3.60    4.10
   2  -3  17   -2.40    6.20
   3   2 -17    3.70    6.80
   3   2 -17   11.10    4.20
  -3  -2  17    5.00    5.00
   2   2 -17   35.70    8.30
   2   2 -17   40.00    5.60
  -2  -2  17   42.00    4.80
  -2  -2  17   46.90    6.40
   1   2 -17    0.50    2.70
   1   2 -17  -10.00    6.00
  -1  -2  17    4.00    4.10
  -1  -2  17    8.10    4.70
   0   2 -17    3.80    2.90
   0   2 -17    7.30    6.60
   0  -2  17    7.10    5.30
   0  -2  17   -1.90    4.40
  -1   2 -17   -3.90    3.70
  -1   2 -17   -5.90    5.30
   1  -2  17    0.60    4.40
   1  -2  17    3.10    5.60
  -2   2 -17   18.60    4.60
   2  -2  17   11.20    6.90
   2  -2  17    9.90    5.00
  -3   2 -17   12.40    4.00
   3  -2  17   26.10    8.40
   3  -2  17   13.60    5.60
   3   1 -17   25.10    7.30
   3   1 -17   35.20    5.30
  -3  -1  17   24.70    6.00
   2   1 -17    3.30    2.70
   2   1 -17   -3.10    3.90
  -2  -1  17    4.20    3.80
  -2  -1  17   14.10    4.30
   1   1 -17   28.70    5.80
   1   1 -17   23.50    4.70
  -1  -1  17   25.70    4.60
  -1  -1  17   30.90    4.70
   0   1 -17    9.70    6.30
   0   1 -17   18.80    4.50
   0  -1  17   10.70    4.80
   0  -1  17   22.30    5.90
  -1   1 -17   -1.60    2.50
   1  -1  17    2.30    5.40
   1  -1  17   -1.40    3.90
  -2   1 -17   45.60    5.70
   2  -1  17   44.50    8.30
   2  -1  17   53.99    7.10
  -3   1 -17   60.99    6.00
   3  -1  17   61.09    8.30
   3  -1  17   64.19    7.70
   3   0 -17   60.09    7.70
   3   0 -17   62.19    6.00
  -3   0  17   70.49    7.60
   2   0 -17   11.70    4.00
   2   0 -17   11.20    4.60
   1   0 -17   25.70    6.40
   1   0 -17   23.70    4.50
   1   0 -17   24.30    4.70
  -1   0  17   40.90    5.70
  -1   0  17   28.40    5.20
   0   0 -17   25.80    4.60
   0   0 -17   13.80    5.80
   0   0  17   11.40    5.10
   0   0  17   19.00    5.00
  -1   0 -17   10.50    4.00
   1   0  17    8.40    5.60
   1   0  17    9.20    4.50
  -2   0 -17   12.30    4.10
   2   0  17    4.50    3.30
   2   0  17    7.70    4.70
  -3   0 -17   -4.10    3.20
   3   0  17    2.30    7.10
   3   0  17   -1.50    3.00
   3  -1 -17   85.79    9.60
  -3   1  17   52.39    7.00
   2  -1 -17    7.40    3.40
   2  -1 -17    3.40    3.70
   2  -1 -17    9.80    3.70
  -2   1  17   11.10    3.90
   1  -1 -17    1.80    2.40
   1  -1 -17    5.00    4.20
   1  -1 -17    4.90    4.90
  -1   1  17    6.50    4.10
  -1   1  17    2.60    3.60
   0  -1 -17  -10.10    3.70
   0  -1 -17   -3.00    4.30
   0  -1 -17    2.90    2.60
   0   1  17   -0.70    3.90
   0   1  17   -1.40    4.20
  -1  -1 -17   63.29    6.00
   1   1  17   65.59    7.00
   1   1  17   66.29    7.10
  -2  -1 -17   -3.50    3.20
   2   1  17    4.80    4.30
   2   1  17    2.20    6.10
  -3  -1 -17   41.90    5.20
   3   1  17   36.20    7.30
   3   1  17   58.09    7.10
  -4  -1 -17   44.40    6.50
  -4  -1 -17   42.00    4.80
   4   1  17   46.80    6.80
   4   1  17   47.00   10.20
   3  -2 -17   32.20    7.10
  -3   2  17   20.20    5.30
   2  -2 -17   11.40    3.80
   2  -2 -17   13.30    4.40
   2  -2 -17   16.70    5.00
  -2   2  17    5.70    3.70
   1  -2 -17    7.10    4.70
   1  -2 -17    8.60    4.60
   1  -2 -17    6.10    3.50
  -1   2  17    8.70    4.10
   0  -2 -17   31.30    4.70
   0  -2 -17   33.50    5.70
   0  -2 -17   23.60    6.30
   0   2  17   28.90    5.30
   0   2  17   30.00    4.60
  -1  -2 -17   36.00    5.00
   1   2  17   22.70    4.40
   1   2  17   27.20    6.00
  -2  -2 -17   30.30    4.70
   2   2  17   27.50    5.70
   2   2  17   31.10    7.70
  -3  -2 -17   13.00    4.10
   3   2  17   24.70    8.30
   3   2  17   12.90    5.20
  -4  -2 -17    3.50    5.30
  -4  -2 -17    0.70    3.10
   4   2  17   -3.90    4.30
   4   2  17   -1.80    5.60
   3  -3 -17   57.69    6.30
   3  -3 -17   92.89    9.80
  -3   3  17   71.49    7.70
   2  -3 -17   90.79    6.10
   2  -3 -17   96.59    9.40
   2  -3 -17   92.19    7.60
  -2   3  17   86.99    6.80
   1  -3 -17    3.00    4.10
   1  -3 -17   10.10    4.90
   1  -3 -17    7.80    3.60
  -1   3  17    7.10    4.10
   0  -3 -17   32.30    4.80
   0  -3 -17   16.80    5.30
   0   3  17   26.10    5.40
  -1  -3 -17    1.60    3.30
  -1  -3 -17    5.50    3.70
   1   3  17    3.60    4.70
   1   3  17    7.50    4.40
  -2  -3 -17   94.99    7.40
   2   3  17   76.19    6.90
  -3  -3 -17    4.20    3.50
   3   3  17   -0.60    2.90
   3   3  17   -1.10    7.20
  -4  -3 -17   29.20    4.40
   4   3  17   28.50    7.60
   4   3  17   36.10    6.30
   3  -4 -17   18.10    5.70
   3  -4 -17   40.80    6.30
   2  -4 -17    4.70    3.40
   2  -4 -17    7.50    4.90
   2  -4 -17    6.00    5.10
  -2   4  17    5.50    3.80
  -2   4  17    1.40    3.40
   1  -4 -17   30.50    5.20
   1  -4 -17   22.00    3.80
   1  -4 -17   22.70    4.90
  -1   4  17   20.50    4.80
   0  -4 -17    0.80    2.30
   0  -4 -17   -0.60    3.40
   0   4  17   -1.00    3.80
  -1  -4 -17   37.90    5.00
  -1  -4 -17   30.10    6.20
   1   4  17   27.60    5.40
  -2  -4 -17   32.10    4.30
   2   4  17   32.20    7.40
   2   4  17   35.60    5.10
  -3  -4 -17   13.70    4.10
   3   4  17    7.10    3.50
   3   4  17   14.70    7.70
   2  -5 -17   34.00    4.50
   2  -5 -17   31.70    6.80
   2  -5 -17   49.90    6.70
  -2   5  17   34.20    4.70
   1  -5 -17   59.49    7.70
   1  -5 -17   70.19    6.50
  -1   5  17   58.99    6.50
   0  -5 -17    8.30    3.10
   0  -5 -17    3.40    5.00
   0   5  17   10.30    4.60
  -1  -5 -17    7.60    3.80
  -1  -5 -17   12.20    4.20
   1   5  17   13.80    3.90
  -2  -5 -17    4.30    5.30
  -2  -5 -17    0.80    2.50
   2   5  17   -0.80    4.10
  -3  -5 -17   17.50    3.50
   3   5  17   12.50    4.00
   3   5  17   27.50    8.60
   2  -6 -17  103.29    8.70
   2  -6 -17   64.89    8.20
   2  -6 -17   91.39    7.60
  -2   6  17   91.29    7.70
   1  -6 -17   -2.90    3.60
   1  -6 -17    3.20    3.50
  -1   6  17   -2.50    3.70
   0  -6 -17   28.00    6.60
   0  -6 -17   41.30    5.50
   0   6  17   36.90    6.00
  -1  -6 -17    0.80    3.60
  -1  -6 -17    2.00    2.50
   1   6  17   -2.10    4.10
  -2  -6 -17   27.50    6.60
  -2  -6 -17   27.20    4.10
   2   6  17   23.50    5.70
  -3  -6 -17   14.20    4.30
   3   6  17   10.70    5.10
   1  -7 -17   26.70    6.90
   1  -7 -17   24.10    4.10
  -1   7  17   23.10    5.00
   0  -7 -17   31.10    5.30
   0  -7 -17   27.60    5.70
   0   7  17   36.10    6.00
  -1  -7 -17   11.50    4.20
  -1  -7 -17    8.30    5.80
   1   7  17   -2.90    3.00
  -2  -7 -17    5.50    5.70
  -2  -7 -17   16.20    4.40
   2   7  17   30.30    5.00
   2   7  17    8.30    3.90
   0   4 -18    5.80    3.50
   0  -4  18    9.70    5.60
   0  -4  18    0.90    3.30
   1   3 -18   30.30    5.50
   1   3 -18   36.50    8.80
  -1  -3  18   28.00    5.60
  -1  -3  18   32.50    6.10
   0   3 -18   17.00    7.40
   0   3 -18    7.40    4.30
   0  -3  18   18.70    5.50
   0  -3  18    6.80    5.30
  -1   3 -18   33.20    7.70
  -1   3 -18   52.39    5.90
   1  -3  18   69.49    8.00
   2   2 -18   66.09   10.00
   2   2 -18   77.99    7.00
  -2  -2  18   59.99    6.10
   1   2 -18    2.80    4.10
   1   2 -18   -4.00    6.70
  -1  -2  18   -3.20    3.90
  -1  -2  18   15.50    5.40
   0   2 -18   20.20    4.90
   0   2 -18   18.50    7.10
   0  -2  18   14.40    5.70
  -1   2 -18    1.00    3.90
   1  -2  18   -7.60    5.10
   1  -2  18   -2.10    4.40
  -2   2 -18   60.09    6.50
   2  -2  18   67.89    8.10
   2  -2  18   65.79    7.20
   2   1 -18    6.80    3.10
   2   1 -18    5.50    6.50
  -2  -1  18    4.50    4.00
   1   1 -18  132.59    8.80
   1   1 -18  115.99   10.90
  -1  -1  18  151.48   10.20
   0   1 -18   11.10    4.80
   0   1 -18   17.40    4.70
   0  -1  18   19.50    5.50
   0  -1  18   14.70    5.10
  -1   1 -18   13.00    4.50
   1  -1  18   16.00    5.20
   1  -1  18   12.60    6.10
  -2   1 -18   34.60    5.50
   2  -1  18   38.60    6.60
   2  -1  18   33.20    8.00
   2   0 -18    1.10    5.70
   2   0 -18    5.10    3.70
   1   0 -18   60.99    6.30
   1   0 -18   37.10    7.50
  -1   0  18   53.19    6.50
  -1   0  18   50.69    6.30
   0   0 -18   11.00    6.00
   0   0 -18   15.50    4.30
   0   0  18   14.80    4.90
   0   0  18    7.90    5.10
  -1   0 -18    7.60    4.10
   1   0  18    1.60    5.20
   1   0  18    8.50    4.70
  -2   0 -18    5.60    3.90
   2   0  18   -1.70    3.00
   2   0  18    0.30    6.10
  -3   0 -18   25.60    4.70
   3   0  18   27.80    6.60
   3   0  18   29.60    5.10
   2  -1 -18   60.29    8.10
   2  -1 -18   55.49    5.40
  -2   1  18   46.40    5.80
   1  -1 -18    4.10    3.60
   1  -1 -18    1.50    5.10
   1  -1 -18    1.00    3.00
  -1   1  18    7.30    4.40
   0  -1 -18   82.29    6.20
   0   1  18   70.89    7.50
   0   1  18   81.99    7.10
  -1  -1 -18    8.30    4.00
   1   1  18    4.70    4.40
   1   1  18    4.40    5.10
  -2  -1 -18   12.60    3.40
   2   1  18   15.20    5.20
   2   1  18   15.30    5.20
  -3  -1 -18   17.80    4.40
   3   1  18   15.20    5.30
   3   1  18   22.40    8.20
   2  -2 -18  102.19    7.50
   2  -2 -18   99.79    9.70
   2  -2 -18   92.99    7.90
  -2   2  18  100.89    7.60
   1  -2 -18   13.50    5.30
   1  -2 -18   14.40    4.20
   1  -2 -18   16.10    5.30
  -1   2  18   16.10    4.40
   0  -2 -18   25.10    4.70
   0  -2 -18   46.20    6.40
   0   2  18   41.70    6.00
  -1  -2 -18    6.90    3.80
   1   2  18    5.20    4.90
   1   2  18    3.00    4.40
  -2  -2 -18    9.70    4.00
   2   2  18    3.10    4.40
   2   2  18   13.30    5.10
  -3  -2 -18   -2.30    3.30
   3   2  18   -0.30    7.20
   3   2  18    2.80    4.60
   2  -3 -18   11.00    5.40
   2  -3 -18   15.70    4.20
   2  -3 -18   21.90    5.80
  -2   3  18    8.10    3.80
  -2   3  18   16.10    4.70
   1  -3 -18   13.30    5.40
   1  -3 -18   21.10    4.40
   1  -3 -18   14.10    4.30
  -1   3  18   22.50    4.90
   0  -3 -18   -5.60    4.70
   0  -3 -18   10.20    3.90
   0   3  18   15.20    4.70
  -1  -3 -18    9.60    3.10
  -1  -3 -18    3.60    3.60
   1   3  18   -2.40    4.60
   1   3  18    8.60    4.70
  -2  -3 -18   11.20    4.00
   2   3  18    8.40    4.60
   2   3  18    6.70    4.80
  -3  -3 -18    7.40    3.80
   3   3  18   -0.70    4.40
   3   3  18   -1.00    6.80
   2  -4 -18   48.30    7.30
   2  -4 -18   54.59    6.10
   2  -4 -18   57.59    7.30
  -2   4  18   45.60    6.40
  -2   4  18   58.29    5.80
   1  -4 -18   24.70    5.80
   1  -4 -18   37.30    5.20
  -1   4  18   41.00    5.80
   0  -4 -18   38.00    5.30
   0  -4 -18   30.20    6.50
   0   4  18   33.50    5.90
  -1  -4 -18   13.40    3.40
  -1  -4 -18    6.30    5.30
   1   4  18   11.50    4.80
  -2  -4 -18    2.20    3.80
   2   4  18    1.00    4.40
   2   4  18   -8.60    4.90
  -3  -4 -18   17.60    4.20
   3   4  18   15.90    5.20
   3   4  18    9.90    7.40
   1  -5 -18   29.90    5.00
   1  -5 -18   30.60    6.70
  -1   5  18   27.70    5.40
   0  -5 -18   10.20    4.10
   0  -5 -18    8.30    4.40
   0   5  18   21.30    4.30
  -1  -5 -18    8.30    3.10
  -1  -5 -18   12.40    5.60
   1   5  18   12.40    4.80
  -2  -5 -18   -0.60    3.70
  -2  -5 -18   -1.00    5.10
   2   5  18    5.00    4.60
   1  -6 -18    7.20    3.90
   1  -6 -18    3.30    5.60
   0  -6 -18   12.60    4.70
   0  -6 -18   15.60    3.70
   0   6  18    9.60    4.90
  -1  -6 -18    7.30    4.40
  -1  -6 -18    4.40    3.90
   1   6  18    3.40    3.50
  -2  -6 -18   18.70    4.50
  -2  -6 -18   22.20    6.30
   2   6  18   12.30    5.30
   0   2 -19    6.10    4.40
   1   1 -19  106.39   10.90
   1   1 -19  146.19    9.30
   0   1 -19   18.10    4.20
   0  -1  19   13.20    5.00
   0  -1  19   10.10    5.30
  -1   1 -19    8.00    4.50
   1  -1  19   11.50    5.20
   1  -1  19   10.10    6.10
   1   0 -19   77.59    7.10
   1   0 -19   75.69    9.40
  -1   0  19   77.39    7.50
   0   0 -19    8.60    4.20
   0   0  19   -0.90    4.20
   0   0  19   14.60    5.30
  -1   0 -19    4.20    4.10
   1   0  19    6.90    5.00
   1   0  19   14.90    6.00
   1  -1 -19   -4.30    5.40
   1  -1 -19    0.10    4.00
   1  -1 -19    0.90    3.70
  -1   1  19    2.40    4.10
   0  -1 -19  134.39    8.80
   0   1  19  144.59    8.70
   0   1  19  127.69    9.80
  -1  -1 -19   18.00    4.60
   1   1  19   18.30    6.00
   1   1  19   12.50    5.20
  -2  -1 -19    9.10    3.30
   2   1  19   13.40    4.10
   2   1  19    3.30    6.10
   1  -2 -19    3.60    2.90
   1  -2 -19    4.00    4.60
  -1   2  19   -0.60    4.00
   0  -2 -19   62.39    5.90
   0  -2 -19   49.99    6.10
   0   2  19   53.39    6.10
  -1  -2 -19   17.90    4.50
   1   2  19   13.40    5.00
   1   2  19   19.60    4.50
  -2  -2 -19    8.00    4.00
   2   2  19   -0.20    5.80
   2   2  19   13.80    5.20
   1  -3 -19   50.69    7.00
   1  -3 -19   74.19    6.50
  -1   3  19   68.39    7.00
   0  -3 -19   -0.10    4.90
   0  -3 -19    7.70    4.20
   0   3  19    3.30    3.40
  -1  -3 -19  125.29    8.60
   1   3  19  108.99    9.10
  -2  -3 -19    1.40    3.80
   2   3  19    6.50    4.90
   0  -4 -19    7.80    5.30
   0  -4 -19    9.00    3.20
   0   4  19    7.50    5.10
  -1  -4 -19   33.10    5.40
  -1  -4 -19   27.10    6.50
   1   4  19   37.50    6.30
   0   0   0    0.00    0.00
_computing_structure_solution     'SHELXT 2014/5 (Sheldrick, 2014)'
;
_shelx_hkl_checksum              38482
_shelx_res_file
;
TITL zeljko2017_6_0m_a.res in P-1
CELL  0.71073   5.0863   8.8110  12.7192   83.977   88.281   82.743
ZERR     1.00   0.0006   0.0009   0.0014    0.004    0.003    0.003
LATT   1
SFAC  C    H    CU   N    O
UNIT  14   20   2    8    12
temp -73
MERG   2
shel 6.0 0.5
FMAP   2
PLAN   10
ACTA
BOND   $H
EQIV $3 -x+2, -y, -z+1
HTAB O6 O2_$3
EQIV $4 x-1, y, z
HTAB O6 O1_$4
EQIV $5 x, y, z-1
HTAB C7 O3_$5
EQIV $2  1-x, 1-y, 1-z
HTAB C3 O5_$2
HTAB
LIST   6
L.S.   8
WGHT    0.028800    0.315300
FVAR       0.65483
CU1   3    0.783031    0.369794    0.430453    11.00000    0.01620    0.01963 =
         0.01646   -0.00367    0.00468    0.00359
N1    4    0.480444    0.467221    0.633637    11.00000    0.01943    0.02122 =
         0.01748   -0.00462    0.00447    0.00350
N2    4    0.683221    0.392256    0.580223    11.00000    0.01747    0.01810 =
         0.01824   -0.00331    0.00453    0.00323
N3    4    0.835420    0.250637    0.850946    11.00000    0.03140    0.03095 =
         0.01914   -0.00126    0.00154    0.00527
N4    4    1.214086    0.227113    0.172898    11.00000    0.02856    0.02340 =
         0.01927   -0.00534    0.00632    0.00280
O1    5    1.083677    0.236252    0.498157    11.00000    0.01997    0.03116 =
         0.02126   -0.00363    0.00403    0.00791
O2    5    1.199576    0.098227    0.650477    11.00000    0.04355    0.03121 =
         0.02607   -0.00401    0.00041    0.01973
O3    5    1.060990    0.184866    0.856989    11.00000    0.03983    0.08178 =
         0.02725   -0.00346   -0.00544    0.02837
O4    5    0.688413    0.268616    0.928088    11.00000    0.04148    0.04668 =
         0.01866   -0.00037    0.00755    0.00629
O5    5    0.957971    0.357098    0.289867    11.00000    0.02573    0.02880 =
         0.02142   -0.00295    0.00794    0.00661
O6    5    0.572359    0.173045    0.411677    11.00000    0.02361    0.02765 =
         0.07394   -0.02335    0.02021   -0.00461
AFIX   3
H62   2    0.645631    0.085029    0.406938    11.00000    0.02450
H61   2    0.449930    0.167329    0.455338    11.00000    0.04557
AFIX   0
C1    1    0.840406    0.299635    0.648336    11.00000    0.01834    0.01839 =
         0.01914   -0.00302    0.00254    0.00170
C2    1    0.735791    0.315577    0.749974    11.00000    0.02304    0.02145 =
         0.01705   -0.00179    0.00196    0.00160
C3    1    0.510459    0.420850    0.736651    11.00000    0.02173    0.02470 =
         0.01810   -0.00287    0.00425    0.00233
C4    1    1.061772    0.201848    0.598862    11.00000    0.02042    0.02005 =
         0.02300   -0.00509    0.00239    0.00366
C5    1    1.093479    0.237150    0.265210    11.00000    0.02283    0.02437 =
         0.01938   -0.00280    0.00439   -0.00011
C6    1    1.389293    0.089691    0.150322    11.00000    0.05838    0.03138 =
         0.03702   -0.00800    0.01598    0.01405
AFIX 137
H6A   2    1.390817    0.012027    0.211461    11.00000   -1.50000
H6B   2    1.569261    0.116085    0.135899    11.00000   -1.50000
H6C   2    1.325511    0.048633    0.088437    11.00000   -1.50000
AFIX   0
C7    1    1.187990    0.354971    0.090441    11.00000    0.05198    0.03277 =
         0.02081   -0.00032    0.00991    0.00321
AFIX 137
H7A   2    1.051569    0.435473    0.111463    11.00000   -1.50000
H7B   2    1.137088    0.319142    0.024455    11.00000   -1.50000
H7C   2    1.357705    0.396572    0.079768    11.00000   -1.50000
AFIX   0
H3    2    0.391656    0.453147    0.786629    11.00000    0.02323
H5    2    1.107143    0.144360    0.309970    11.00000    0.02596
HKLF 4
REM  zeljko2017_6_0m_a.res in P-1
REM R1 =  0.0306 for    3680 Fo > 4sig(Fo)  and  0.0413 for all    4331 data
REM    175 parameters refined using      0 restraints
END
WGHT      0.0288      0.3153
REM Instructions for potential hydrogen bonds
HTAB O6 O2_$3
HTAB O6 O1_$4
HTAB C7 O3_$5
HTAB C3 O5_$2
REM Highest difference peak  0.700,  deepest hole -0.482,  1-sigma level  0.074
Q1    1   0.6075  0.1362  0.4631  11.00000  0.05    0.70
Q2    1   0.9859  0.1116  0.8429  11.00000  0.05    0.44
Q3    1   1.1719  0.2427  0.2173  11.00000  0.05    0.42
Q4    1   0.6150  0.3561  0.7430  11.00000  0.05    0.42
Q5    1   0.9472  0.2429  0.6211  11.00000  0.05    0.41
Q6    1   0.6524  0.3982  0.7428  11.00000  0.05    0.40
Q7    1   0.8173  0.3183  0.7026  11.00000  0.05    0.39
Q8    1   0.7989  0.2772  0.7980  11.00000  0.05    0.36
Q9    1   0.4668  0.4247  0.6842  11.00000  0.05    0.35
Q10   1   1.0534  0.2248  0.5401  11.00000  0.05    0.34
;
_shelx_res_checksum              9053
_shelxl_version_number           2014/6
loop_
_space_group_symop_operation_xyz
'x, y, z'
'-x, -y, -z'
loop_
_atom_site_type_symbol
_atom_site_label
_atom_site_fract_x
_atom_site_fract_y
_atom_site_fract_z
_atom_site_U_iso_or_equiv
_atom_site_adp_type
_atom_site_calc_flag
_atom_site_occupancy
Cu Cu1 0.78303(3) 0.36979(2) 0.43045(2) 0.01790(6) Uani d 1
N N1 0.4804(2) 0.46722(15) 0.63364(10) 0.0198(2) Uani d 1
N N2 0.6832(2) 0.39226(14) 0.58022(10) 0.0184(2) Uani d 1
N N3 0.8354(3) 0.25064(17) 0.85095(11) 0.0281(3) Uani d 1
N N4 1.2141(3) 0.22711(16) 0.17290(11) 0.0242(3) Uani d 1
O O1 1.0837(2) 0.23625(14) 0.49816(9) 0.0251(2) Uani d 1
O O2 1.1996(3) 0.09823(15) 0.65048(10) 0.0357(3) Uani d 1
O O3 1.0610(3) 0.1849(2) 0.85699(12) 0.0528(5) Uani d 1
O O4 0.6884(3) 0.26862(17) 0.92809(10) 0.0370(3) Uani d 1
O O5 0.9580(2) 0.35710(14) 0.28987(9) 0.0263(2) Uani d 1
O O6 0.5724(3) 0.17305(15) 0.41168(13) 0.0407(4) Uani d 1
H H62 0.6456 0.0850 0.4069 0.025(5) Uiso d 1
H H61 0.4499 0.1673 0.4553 0.046(7) Uiso d 1
C C1 0.8404(3) 0.29964(17) 0.64834(11) 0.0189(3) Uani d 1
C C2 0.7358(3) 0.31558(18) 0.74997(12) 0.0209(3) Uani d 1
C C3 0.5105(3) 0.42085(18) 0.73665(12) 0.0220(3) Uani d 1
C C4 1.0618(3) 0.20185(17) 0.59886(12) 0.0215(3) Uani d 1
C C5 1.0935(3) 0.23715(19) 0.26521(12) 0.0225(3) Uani d 1
C C6 1.3893(5) 0.0897(2) 0.15032(17) 0.0440(5) Uani d 1
H H6A 1.3908 0.0120 0.2115 0.066 Uiso calc 1
H H6B 1.5693 0.1161 0.1359 0.066 Uiso calc 1
H H6C 1.3255 0.0486 0.0884 0.066 Uiso calc 1
C C7 1.1880(4) 0.3550(2) 0.09044(14) 0.0363(4) Uani d 1
H H7A 1.0516 0.4355 0.1115 0.054 Uiso calc 1
H H7B 1.1371 0.3191 0.0245 0.054 Uiso calc 1
H H7C 1.3577 0.3966 0.0798 0.054 Uiso calc 1
H H3 0.392(4) 0.453(2) 0.7866(16) 0.023(5) Uiso d 1
H H5 1.107(4) 0.144(2) 0.3100(17) 0.026(5) Uiso d 1
loop_
_atom_site_aniso_label
_atom_site_aniso_U_11
_atom_site_aniso_U_22
_atom_site_aniso_U_33
_atom_site_aniso_U_12
_atom_site_aniso_U_13
_atom_site_aniso_U_23
Cu1 0.01620(9) 0.01963(9) 0.01646(9) 0.00359(6) 0.00468(6) -0.00367(6)
N1 0.0194(6) 0.0212(6) 0.0175(5) 0.0035(4) 0.0045(4) -0.0046(4)
N2 0.0175(5) 0.0181(5) 0.0182(5) 0.0032(4) 0.0045(4) -0.0033(4)
N3 0.0314(7) 0.0310(7) 0.0191(6) 0.0053(6) 0.0015(5) -0.0013(5)
N4 0.0286(7) 0.0234(6) 0.0193(6) 0.0028(5) 0.0063(5) -0.0053(5)
O1 0.0200(5) 0.0312(6) 0.0213(5) 0.0079(4) 0.0040(4) -0.0036(4)
O2 0.0436(8) 0.0312(6) 0.0261(6) 0.0197(6) 0.0004(5) -0.0040(5)
O3 0.0398(8) 0.0818(12) 0.0272(7) 0.0284(8) -0.0054(6) -0.0035(7)
O4 0.0415(8) 0.0467(8) 0.0187(6) 0.0063(6) 0.0076(5) -0.0004(5)
O5 0.0257(6) 0.0288(6) 0.0214(5) 0.0066(4) 0.0079(4) -0.0029(4)
O6 0.0236(6) 0.0277(6) 0.0739(11) -0.0046(5) 0.0202(6) -0.0233(7)
C1 0.0183(6) 0.0184(6) 0.0191(6) 0.0017(5) 0.0025(5) -0.0030(5)
C2 0.0230(7) 0.0214(7) 0.0170(6) 0.0016(5) 0.0020(5) -0.0018(5)
C3 0.0217(7) 0.0247(7) 0.0181(6) 0.0023(5) 0.0042(5) -0.0029(5)
C4 0.0204(7) 0.0201(6) 0.0230(7) 0.0037(5) 0.0024(5) -0.0051(5)
C5 0.0228(7) 0.0244(7) 0.0194(7) -0.0001(5) 0.0044(5) -0.0028(5)
C6 0.0584(13) 0.0314(9) 0.0370(10) 0.0141(9) 0.0160(9) -0.0080(8)
C7 0.0520(12) 0.0328(9) 0.0208(8) 0.0032(8) 0.0099(7) -0.0003(7)
loop_
_atom_type_symbol
_atom_type_description
_atom_type_scat_dispersion_real
_atom_type_scat_dispersion_imag
_atom_type_scat_source
C C 0.0033 0.0016 'International Tables Vol C Tables 4.2.6.8 and 6.1.1.4'
H H 0.0000 0.0000 'International Tables Vol C Tables 4.2.6.8 and 6.1.1.4'
Cu Cu 0.3201 1.2651 'International Tables Vol C Tables 4.2.6.8 and 6.1.1.4'
N N 0.0061 0.0033 'International Tables Vol C Tables 4.2.6.8 and 6.1.1.4'
O O 0.0106 0.0060 'International Tables Vol C Tables 4.2.6.8 and 6.1.1.4'
loop_
_geom_angle_atom_site_label_1
_geom_angle_atom_site_label_2
_geom_angle_atom_site_label_3
_geom_angle_site_symmetry_1
_geom_angle_site_symmetry_3
_geom_angle
_geom_angle_publ_flag
N1 Cu1 N2 2_666 . 97.51(5) yes
O1 Cu1 N2 . . 81.12(5) yes
N1 Cu1 O5 2_666 . 88.89(5) yes
O1 Cu1 O5 . . 90.73(5) yes
N1 Cu1 O1 2_666 . 169.87(5) yes
N2 Cu1 O5 . . 167.70(5) yes
N1 Cu1 O6 2_666 . 98.19(6) ?
O1 Cu1 O6 . . 91.94(6) ?
N2 Cu1 O6 . . 97.68(6) ?
O5 Cu1 O6 . . 91.76(6) ?
C3 N1 N2 . . 107.73(12) ?
C3 N1 Cu1 . 2_666 127.14(10) ?
N2 N1 Cu1 . 2_666 124.82(10) ?
C1 N2 N1 . . 109.69(12) ?
C1 N2 Cu1 . . 113.22(9) ?
N1 N2 Cu1 . . 136.75(10) ?
O3 N3 O4 . . 123.38(15) ?
O3 N3 C2 . . 119.34(14) ?
O4 N3 C2 . . 117.25(14) ?
C5 N4 C7 . . 121.43(14) ?
C5 N4 C6 . . 121.52(15) ?
C7 N4 C6 . . 117.00(14) ?
C4 O1 Cu1 . . 116.11(9) ?
C5 O5 Cu1 . . 122.22(11) ?
Cu1 O6 H62 . . 124.2 ?
Cu1 O6 H61 . . 111.2 ?
H62 O6 H61 . . 107.6 ?
N2 C1 C2 . . 107.73(12) ?
N2 C1 C4 . . 115.04(13) ?
C2 C1 C4 . . 137.06(14) ?
C3 C2 C1 . . 105.61(13) ?
C3 C2 N3 . . 123.74(13) ?
C1 C2 N3 . . 130.52(14) ?
N1 C3 C2 . . 109.24(13) ?
N1 C3 H3 . . 122.5(13) ?
C2 C3 H3 . . 128.2(13) ?
O2 C4 O1 . . 125.08(14) ?
O2 C4 C1 . . 121.93(14) ?
O1 C4 C1 . . 112.96(13) ?
O5 C5 N4 . . 123.13(15) ?
O5 C5 H5 . . 122.2(13) ?
N4 C5 H5 . . 114.5(13) ?
N4 C6 H6A . . 109.5 ?
N4 C6 H6B . . 109.5 ?
H6A C6 H6B . . 109.5 ?
N4 C6 H6C . . 109.5 ?
H6A C6 H6C . . 109.5 ?
H6B C6 H6C . . 109.5 ?
N4 C7 H7A . . 109.5 ?
N4 C7 H7B . . 109.5 ?
H7A C7 H7B . . 109.5 ?
N4 C7 H7C . . 109.5 ?
H7A C7 H7C . . 109.5 ?
H7B C7 H7C . . 109.5 ?
loop_
_geom_bond_atom_site_label_1
_geom_bond_atom_site_label_2
_geom_bond_site_symmetry_2
_geom_bond_distance
_geom_bond_publ_flag
Cu1 N1 2_666 1.9637(13) yes
Cu1 N2 . 1.9803(12) yes
Cu1 O1 . 1.9688(11) yes
Cu1 O5 . 1.9807(11) yes
Cu1 O6 . 2.1868(13) yes
N1 C3 . 1.338(2) ?
N1 N2 . 1.3571(16) ?
N1 Cu1 2_666 1.9637(13) ?
N2 C1 . 1.3357(19) ?
N3 O3 . 1.219(2) ?
N3 O4 . 1.2270(18) ?
N3 C2 . 1.430(2) ?
N4 C5 . 1.3144(19) ?
N4 C7 . 1.452(2) ?
N4 C6 . 1.459(2) ?
O1 C4 . 1.2898(19) ?
O2 C4 . 1.2231(19) ?
O5 C5 . 1.2502(19) ?
O6 H62 . 0.8242 ?
O6 H61 . 0.8246 ?
C1 C2 . 1.397(2) ?
C1 C4 . 1.4941(19) ?
C2 C3 . 1.383(2) ?
C3 H3 . 0.91(2) ?
C5 H5 . 0.94(2) ?
C6 H6A . 0.9800 ?
C6 H6B . 0.9800 ?
C6 H6C . 0.9800 ?
C7 H7A . 0.9800 ?
C7 H7B . 0.9800 ?
C7 H7C . 0.9800 ?
loop_
_geom_hbond_atom_site_label_D
_geom_hbond_atom_site_label_H
_geom_hbond_atom_site_label_A
_geom_hbond_site_symmetry_A
_geom_hbond_distance_DH
_geom_hbond_distance_HA
_geom_hbond_distance_DA
_geom_hbond_angle_DHA
O6 H62 O2 2_756 0.82 1.91 2.7064(17) 161.8
O6 H61 O1 1_455 0.82 1.96 2.7043(16) 148.9
C7 H7B O3 1_554 0.98 2.60 3.574(3) 170.5
C3 H3 O5 2_666 0.91(2) 2.43(2) 2.8897(19) 111.5(15)

_cod_database_fobs_code 2021475
