#------------------------------------------------------------------------------
#$Date: 2018-02-15 09:30:48 +0200 (Thu, 15 Feb 2018) $
#$Revision: 206450 $
#$URL: file:///home/coder/svn-repositories/cod/cif/2/02/10/2021009.cif $
#------------------------------------------------------------------------------
#
# This file is available in the Crystallography Open Database (COD),
# http://www.crystallography.net/. The original data for this entry
# were provided by IUCr Journals, http://journals.iucr.org/.
#
# The file may be used within the scientific community so long as
# proper attribution is given to the journal article from which the
# data were obtained.
#
data_2021009
loop_
_publ_author_name
'Nestler, Robert'
'Schwarzer, Anke'
'Gruber, Tobias'
_publ_section_title
;
 Different supramolecular interactions mediated by Br atoms in the crystal
 structures of three anisole derivatives
;
_journal_coeditor_code           EG3234
_journal_issue                   3
_journal_name_full               'Acta Crystallographica Section C'
_journal_page_first
;
;
_journal_paper_doi               10.1107/S2053229618001997
_journal_volume                  74
_journal_year                    2018
_chemical_formula_iupac          'C12 H16 O5'
_chemical_formula_moiety         'C12 H16 O5'
_chemical_formula_sum            'C12 H16 O5'
_chemical_formula_weight         240.25
_chemical_melting_point          340.15
_chemical_name_common
;
Ethyl 3,5-bis(hydroxymethyl)-4-methoxybenzoate
;
_chemical_name_systematic
;
Ethyl 3,5-bis(hydroxymethyl)-4-methoxybenzoate
;
_space_group_crystal_system      triclinic
_space_group_IT_number           2
_space_group_name_Hall           '-P 1'
_space_group_name_H-M_alt        'P -1'
_symmetry_space_group_name_Hall  '-P 1'
_symmetry_space_group_name_H-M   'P -1'
_atom_sites_solution_hydrogens   mixed
_audit_creation_method           SHELXL-2014/7
_cell_angle_alpha                81.538(11)
_cell_angle_beta                 72.352(10)
_cell_angle_gamma                61.930(9)
_cell_formula_units_Z            2
_cell_length_a                   7.8601(10)
_cell_length_b                   8.2489(11)
_cell_length_c                   10.7883(14)
_cell_measurement_reflns_used    2183
_cell_measurement_temperature    203(2)
_cell_measurement_theta_max      27.35
_cell_measurement_theta_min      1.99
_cell_volume                     588.15(15)
_computing_cell_refinement
;
X-AREA (Stoe & Cie, 2002)
;
_computing_data_collection
;
X-AREA (Stoe & Cie, 2002)
;
_computing_data_reduction
;
X-RED (Stoe & Cie, 2002)
;
_computing_molecular_graphics
;
XP (Sheldrick, 2008)
;
_computing_publication_material
;
<i>WinGX</i> (Farrugia, 2012), <i>publCIF</i> (Westrip, 2010)
and
<i>SHELXLE</i> (H\"ubschle <i>et al.</i>, 2011)
;
_computing_structure_refinement
;
SHELXL2014 (Sheldrick, 2015b)
;
_computing_structure_solution
;
SHELXT (Sheldrick, 2015a)
;
_diffrn_ambient_temperature      203
_diffrn_detector_area_resol_mean 6.67
_diffrn_measured_fraction_theta_full 0.996
_diffrn_measured_fraction_theta_max 0.996
_diffrn_measurement_device       '2-circle goniometer'
_diffrn_measurement_device_type  'Stoe IPDS 2'
_diffrn_measurement_method       'rotation method'
_diffrn_radiation_monochromator  'plane graphite'
_diffrn_radiation_type           'Mo K\a'
_diffrn_radiation_wavelength     0.71073
_diffrn_reflns_av_R_equivalents  0.0519
_diffrn_reflns_limit_h_max       9
_diffrn_reflns_limit_h_min       -9
_diffrn_reflns_limit_k_max       9
_diffrn_reflns_limit_k_min       -9
_diffrn_reflns_limit_l_max       13
_diffrn_reflns_limit_l_min       -13
_diffrn_reflns_number            4748
_diffrn_reflns_theta_full        25.242
_diffrn_reflns_theta_max         25.500
_diffrn_reflns_theta_min         1.981
_exptl_absorpt_coefficient_mu    0.106
_exptl_absorpt_correction_type   none
_exptl_crystal_colour            colorless
_exptl_crystal_density_diffrn    1.357
_exptl_crystal_description       piece
_exptl_crystal_F_000             256
_exptl_crystal_size_max          0.350
_exptl_crystal_size_mid          0.320
_exptl_crystal_size_min          0.280
_refine_diff_density_max         0.229
_refine_diff_density_min         -0.259
_refine_ls_extinction_method     none
_refine_ls_goodness_of_fit_ref   1.123
_refine_ls_hydrogen_treatment    mixed
_refine_ls_matrix_type           full
_refine_ls_number_parameters     164
_refine_ls_number_reflns         2188
_refine_ls_number_restraints     0
_refine_ls_restrained_S_all      1.123
_refine_ls_R_factor_all          0.0687
_refine_ls_R_factor_gt           0.0503
_refine_ls_shift/su_max          0.000
_refine_ls_shift/su_mean         0.000
_refine_ls_structure_factor_coef Fsqd
_refine_ls_weighting_details
'w=1/[\s^2^(Fo^2^)+(0.0651P)^2^+0.2206P] where P=(Fo^2^+2Fc^2^)/3'
_refine_ls_weighting_scheme      calc
_refine_ls_wR_factor_gt          0.1233
_refine_ls_wR_factor_ref         0.1402
_reflns_number_gt                1705
_reflns_number_total             2188
_reflns_threshold_expression     'I > 2\s(I)'
_cod_data_source_file            eg3234sup1.cif
_cod_data_source_block           I
_cod_original_cell_volume        588.15(14)
_cod_database_code               2021009
_shelx_space_group_comment
;
The symmetry employed for this shelxl refinement is uniquely defined
by the following loop, which should always be used as a source of
symmetry information in preference to the above space-group names.
They are only intended as comments.
;
_shelx_estimated_absorpt_t_min   0.964
_shelx_estimated_absorpt_t_max   0.971
_shelx_hkl_file
;
  -1   0   0 3026.05   53.99   0
   1   0   0 3639.57   53.76   0
  -1   0   0 3556.66   27.19   0
   1   0   0 3439.25   26.53   0
  -2   0   0 1109.27   12.56   0
  -2   0   0  936.32   23.84   0
   2   0   0 1042.10   24.10   0
   2   0   0 1037.13   11.39   0
  -3   0   0   82.62   10.81   0
  -3   0   0   97.31    7.04   0
   3   0   0  100.82   11.50   0
   3   0   0   93.43    5.45   0
  -4   0   0  404.71    7.58   0
  -4   0   0  343.51   18.07   0
  -5   0   0   16.63    5.36   0
  -6   0   0   24.55    3.70   0
  -7   0   0   37.43    3.89   0
  -8   0   0    8.83    5.11   0
  -8   1   0    2.89    4.99   0
  -7   1   0   10.13    4.98   0
  -6   1   0  573.43    7.89   0
  -5   1   0    4.57    5.07   0
   4  -1   0  111.92    4.78   0
   4  -1   0  109.43    8.49   0
  -4   1   0   91.92    8.80   0
  -4   1   0  112.46    4.87   0
  -3   1   0  219.09    9.92   0
  -3   1   0  255.48    7.41   0
   3  -1   0  250.65    7.50   0
   3  -1   0  239.69   10.12   0
  -2   1   0   29.66    8.58   0
  -2   1   0   41.74    6.94   0
   2  -1   0   32.37    8.26   0
   2  -1   0   33.43    5.36   0
   1  -1   0 7857.77   33.85   0
  -1   1   0 6948.85   39.21   0
  -1   1   0 8061.66   33.43   0
   1  -1   0 7296.04   39.39   0
   0   1   0  153.85    9.25   0
   0   1   0  183.84   12.69   0
   0  -1   0  169.26   13.34   0
   0  -1   0  165.60    9.17   0
  -1  -1   0  711.02   15.88   0
  -2  -1   0 2179.77   17.46   0
  -2  -1   0 2018.28   23.89   0
  -3  -1   0 1284.42   12.04   0
  -3  -1   0 1147.41   18.22   0
  -4  -1   0   54.60    6.34   0
  -4  -1   0   45.60    8.01   0
  -5  -1   0    6.60    9.61   0
  -5  -1   0    1.76    5.47   0
  -5  -1   0    6.63    8.65   0
  -6  -1   0    1.24    3.66   0
  -7  -1   0   12.07    5.29   0
  -8  -1   0   42.55    4.04   0
  -7   2   0   71.12    4.55   0
  -6   2   0  149.02    4.43   0
   5  -2   0  115.66    8.65   0
  -5   2   0  124.90    5.72   0
  -4   2   0  371.59    7.08   0
   4  -2   0  355.36    9.35   0
  -3   2   0   79.44    4.48   0
   3  -2   0   73.58    5.92   0
   3  -2   0   89.44    5.77   0
  -3   2   0   70.16    7.01   0
   2  -2   0 1814.41   15.69   0
  -2   2   0 2062.41   13.70   0
   2  -2   0 2003.64   12.84   0
  -2   2   0 1703.15   15.27   0
   1  -2   0    6.51    5.48   0
   1  -2   0    6.67    6.20   0
  -1   2   0    8.11    7.18   0
  -1   2   0    7.48    6.56   0
   0  -2   0 3140.45   26.96   0
   0   2   0 2652.36   18.58   0
   0  -2   0 2784.31   18.68   0
   1   2   0 7162.01   29.67   0
  -1  -2   0 7623.57   30.55   0
  -3  -2   0 9582.88   35.97   0
  -3  -2   0 9999.99   31.48   0
  -3  -2   0 8592.96   33.29   0
  -4  -2   0  408.73    6.69   0
  -4  -2   0  379.87    9.35   0
  -4  -2   0  361.35    9.01   0
  -5  -2   0  791.00   12.18   0
  -5  -2   0  827.57    9.19   0
  -5  -2   0  731.56   12.38   0
  -6  -2   0   48.20    7.51   0
  -6  -2   0   45.98    6.28   0
  -6  -2   0   46.77    8.07   0
  -7  -2   0   11.54    3.74   0
  -8  -2   0   60.73    4.91   0
  -9  -2   0  -11.69    5.06   0
  -6   3   0    8.20    3.69   0
   5  -3   0  101.21    6.45   0
  -5   3   0  120.40    4.51   0
  -4   3   0  361.19    6.87   0
   4  -3   0  301.36    8.20   0
  -3   3   0  171.52    5.96   0
   3  -3   0  131.36    5.72   0
  -3   3   0  149.08    5.76   0
   3  -3   0  154.50    6.07   0
   2  -3   0   23.65    5.53   0
  -2   3   0   24.80    3.81   0
   2  -3   0   19.88    5.00   0
  -2   3   0   15.26    5.55   0
   1  -3   0 1225.19   11.47   0
   1  -3   0 1350.44   11.72   0
  -1   3   0 1215.70   11.59   0
  -1   3   0 1418.70   12.47   0
   0  -3   0  712.78   10.02   0
   0   3   0  658.99    9.94   0
   0  -3   0  749.53   12.53   0
  -1  -3   0  626.10   10.15   0
  -1  -3   0  720.63   17.43   0
   1   3   0  628.80    9.89   0
  -2  -3   0  336.46    8.44   0
  -3  -3   0   61.92    6.68   0
  -3  -3   0   61.66    6.99   0
  -4  -3   0 1068.36   10.69   0
  -4  -3   0  882.38   10.41   0
  -4  -3   0 1028.36   11.29   0
  -5  -3   0  200.66    6.45   0
  -5  -3   0  184.79    6.64   0
  -5  -3   0  204.45    6.74   0
  -6  -3   0    6.01    6.37   0
  -6  -3   0    2.68    5.66   0
  -6  -3   0   -3.40    5.37   0
  -7  -3   0   14.03    6.39   0
  -7  -3   0    4.42    6.44   0
  -7  -3   0    4.70    5.28   0
  -8  -3   0    8.34    3.98   0
  -9  -3   0    6.94    3.61   0
  -6   4   0   -7.97    4.94   0
   6  -4   0   11.03    6.95   0
   6  -4   0   11.54    6.88   0
   5  -4   0   30.79    5.75   0
  -5   4   0   31.19    4.65   0
  -4   4   0  273.02    6.44   0
   4  -4   0  257.74    6.88   0
   3  -4   0  123.89    4.53   0
  -3   4   0  101.78    4.47   0
   3  -4   0  108.41    6.03   0
   2  -4   0  173.30    4.91   0
  -2   4   0  175.22    6.12   0
   2  -4   0  160.09    5.81   0
  -2   4   0  153.22    4.95   0
   1  -4   0  342.13    7.31   0
   1  -4   0  290.26    6.66   0
  -1   4   0  287.53    7.07   0
   0   4   0  955.37    9.63   0
   0  -4   0  979.76    9.73   0
   0  -4   0 1098.41   13.07   0
  -1  -4   0 2136.04   13.57   0
  -1  -4   0 2481.11   24.77   0
  -2  -4   0  312.06    7.97   0
  -3  -4   0 2855.32   14.31   0
  -3  -4   0 3469.67   24.23   0
  -4  -4   0 6784.47   25.93   0
  -4  -4   0 5887.79   20.88   0
  -5  -4   0  784.63    9.38   0
  -5  -4   0  681.64    8.10   0
  -5  -4   0  861.05    9.44   0
  -6  -4   0  176.13    6.07   0
  -6  -4   0  141.65    6.05   0
  -6  -4   0  166.31    6.32   0
  -7  -4   0   70.32    6.07   0
  -7  -4   0   76.80    6.76   0
  -7  -4   0   87.04    5.30   0
  -8  -4   0   25.28    6.38   0
  -8  -4   0   33.34    5.14   0
  -8  -4   0   21.50    6.51   0
  -9  -4   0   62.49    4.33   0
   5  -5   0   21.18    5.31   0
   5  -5   0   15.81    5.55   0
   4  -5   0   31.82    4.92   0
   3  -5   0    7.95    5.27   0
   2  -5   0   -8.48    4.93   0
   2  -5   0   -4.04    4.74   0
   1  -5   0  190.53    6.12   0
   1  -5   0  163.38    6.60   0
   0  -5   0  184.91    6.98   0
   0  -5   0  179.44    6.46   0
  -1  -5   0  957.81    9.16   0
  -1  -5   0 1104.83   15.81   0
  -2  -5   0   71.71   10.40   0
  -2  -5   0   61.32    6.09   0
  -3  -5   0  972.02   16.33   0
  -3  -5   0  793.79    7.70   0
  -4  -5   0   74.57    4.42   0
  -4  -5   0   78.62    6.88   0
  -5  -5   0   23.12    5.34   0
  -5  -5   0   28.28    5.32   0
  -5  -5   0   17.38    5.31   0
  -6  -5   0  576.21    8.00   0
  -6  -5   0  673.26    8.26   0
  -6  -5   0  602.17    7.83   0
  -7  -5   0    1.08    5.11   0
  -7  -5   0   14.49    4.82   0
  -7  -5   0    9.16    5.27   0
  -8  -5   0   -0.20    5.34   0
  -8  -5   0   11.32    3.78   0
  -8  -5   0    1.99    5.61   0
  -9  -5   0   -3.10    5.55   0
  -9  -5   0   -3.21    5.62   0
  -9  -5   0   15.55    4.51   0
   4  -6   0   18.89    4.44   0
   3  -6   0   81.90    5.55   0
   2  -6   0   -5.24    5.19   0
   1  -6   0  101.56    4.47   0
   0  -6   0   60.51    5.53   0
   0  -6   0   65.45    5.86   0
  -1  -6   0  651.19   12.24   0
  -1  -6   0  604.87    7.11   0
  -2  -6   0  426.32    6.06   0
  -2  -6   0  465.50   18.03   0
  -3  -6   0  614.26    7.86   0
  -4  -6   0   90.15    8.24   0
  -4  -6   0   76.28    5.86   0
  -5  -6   0   -3.81    5.58   0
  -5  -6   0    1.64    6.54   0
  -6  -6   0 1269.78   12.09   0
  -6  -6   0 1259.60   10.06   0
  -6  -6   0 1152.08    9.91   0
  -7  -6   0   16.79    4.77   0
  -7  -6   0    3.25    5.35   0
  -7  -6   0   13.50    5.05   0
  -8  -6   0   25.48    5.38   0
  -8  -6   0   30.45    5.28   0
  -8  -6   0   36.84    3.92   0
  -9  -6   0   12.56    5.20   0
  -9  -6   0    0.44    4.62   0
  -9  -6   0    5.32    5.90   0
   3  -7   0    8.28    5.51   0
   2  -7   0    0.14    4.81   0
   1  -7   0    2.50    4.32   0
   0  -7   0    1.96    3.81   0
  -1  -7   0    2.04    5.59   0
  -2  -7   0    4.23    4.83   0
  -3  -7   0   16.96    3.59   0
  -4  -7   0    2.97    5.52   0
  -5  -7   0  145.72    4.99   0
  -5  -7   0  172.24    9.37   0
  -6  -7   0   26.16    3.78   0
  -6  -7   0   14.59    5.31   0
  -6  -7   0   22.12    3.89   0
  -7  -7   0    7.34    5.22   0
  -7  -7   0   12.06    4.50   0
  -7  -7   0    7.90    4.87   0
  -8  -7   0  154.12    5.85   0
  -8  -7   0  138.47    6.22   0
  -8  -7   0  179.74    6.53   0
  -9  -7   0   10.31    5.33   0
  -9  -7   0    6.14    5.29   0
  -9  -7   0    5.67    4.84   0
   2  -8   0    6.70    4.78   0
   1  -8   0   28.31    3.98   0
   0  -8   0   -5.48    5.34   0
  -1  -8   0  267.79    5.48   0
  -2  -8   0   13.99    5.18   0
  -3  -8   0   83.21    5.60   0
  -4  -8   0  421.53    5.99   0
  -5  -8   0  132.09    5.01   0
  -6  -8   0    2.45    5.64   0
  -6  -8   0    3.48    6.99   0
  -6  -8   0    6.83    4.22   0
  -7  -8   0    9.08    4.47   0
  -7  -8   0   -1.30    5.31   0
  -7  -8   0    1.63    6.07   0
  -8  -8   0   75.52    4.00   0
  -8  -8   0   49.39    5.30   0
  -8  -8   0   75.71    6.73   0
   0  -9   0   23.66    4.09   0
  -1  -9   0   -9.44    5.53   0
  -2  -9   0   -0.15    3.99   0
  -3  -9   0   -2.69    3.68   0
  -4  -9   0   31.84    5.11   0
  -5  -9   0   42.92    5.38   0
  -6  -9   0   21.99    5.33   0
  -6  -9   0   37.18    5.40   0
  -7  -9   0   10.56    5.48   0
  -7  -9   0    9.07    3.97   0
  -8  -9   0    3.40    3.69   0
  -8  -9   0    5.58    4.08   0
  -2 -10   0    5.89    4.92   0
  -3 -10   0  205.41    5.89   0
  -4 -10   0   -8.99    4.58   0
  -5 -10   0   25.72    5.44   0
  -6 -10   0   26.50    4.10   0
  -6 -10   0   16.25    3.94   0
  -6 -10   1   -2.43    3.83   0
  -5 -10   1   -7.70    5.17   0
  -5 -10   1    7.10    3.75   0
  -4 -10   1    8.22    3.43   0
  -4 -10   1   15.39    4.42   0
  -3 -10   1  130.42    5.92   0
  -3 -10   1  138.97    5.04   0
  -2 -10   1   70.42    5.40   0
  -7  -9   1    9.23    3.77   0
  -7  -9   1   -6.85    3.77   0
  -6  -9   1   81.55    4.60   0
  -6  -9   1  102.29    5.06   0
  -5  -9   1   88.54    5.54   0
  -5  -9   1   59.88    4.23   0
  -4  -9   1  -10.35    3.87   0
  -4  -9   1   15.15    4.99   0
  -3  -9   1   30.36    5.31   0
  -2  -9   1    6.85    5.45   0
  -1  -9   1   47.06    5.00   0
   0  -9   1    1.41    3.82   0
  -8  -8   1   25.97    4.76   0
  -8  -8   1   19.51    4.31   0
  -7  -8   1   -2.50    5.09   0
  -7  -8   1    0.23    3.72   0
  -6  -8   1   24.23    3.94   0
  -6  -8   1   17.21    5.62   0
  -5  -8   1   50.55    4.12   0
  -5  -8   1   26.12    5.50   0
  -4  -8   1    8.97    3.87   0
  -3  -8   1   42.65    5.28   0
  -2  -8   1   20.26    3.72   0
  -1  -8   1  387.50    6.78   0
   0  -8   1  232.72    5.43   0
   1  -8   1   12.27    5.26   0
   2  -8   1    0.52    4.08   0
   2  -8   1   17.83    4.47   0
  -8  -7   1   55.79    5.72   0
  -8  -7   1   57.78    4.79   0
  -8  -7   1   60.07    4.90   0
  -7  -7   1   50.06    5.84   0
  -7  -7   1   60.09    6.46   0
  -7  -7   1   50.01    5.50   0
  -6  -7   1  101.62    6.09   0
  -6  -7   1   87.44    5.81   0
  -6  -7   1  106.37    5.35   0
  -5  -7   1    2.93    5.63   0
  -5  -7   1    0.81    5.59   0
  -4  -7   1  115.36    4.72   0
  -3  -7   1  145.45    5.86   0
  -2  -7   1   61.87    5.07   0
  -1  -7   1  149.20    6.19   0
   0  -7   1    4.74    4.19   0
   1  -7   1  124.75    5.51   0
   2  -7   1    6.24    4.88   0
   3  -7   1   56.51    5.62   0
   3  -7   1   55.84    5.55   0
  -9  -6   1   19.61    5.37   0
  -9  -6   1   39.83    6.18   0
  -9  -6   1   35.02    3.89   0
  -8  -6   1   29.89    5.27   0
  -8  -6   1   31.36    4.98   0
  -8  -6   1   46.79    4.75   0
  -7  -6   1  236.82    6.90   0
  -7  -6   1  194.92    6.03   0
  -7  -6   1  198.68    5.11   0
  -6  -6   1    0.23    5.44   0
  -6  -6   1   -0.70    3.66   0
  -6  -6   1   -9.15    5.10   0
  -5  -6   1   35.19    7.11   0
  -5  -6   1   31.79    5.13   0
  -5  -6   1   37.30    5.54   0
  -4  -6   1   36.71    5.91   0
  -4  -6   1   43.89    5.79   0
  -3  -6   1    4.19    4.10   0
  -2  -6   1  519.41    6.57   0
  -1  -6   1    5.59    5.28   0
   0  -6   1   34.04    5.80   0
   1  -6   1  339.22    6.70   0
   2  -6   1  457.47    6.94   0
   3  -6   1    1.82    5.26   0
   4  -6   1    7.17    5.08   0
   4  -6   1   -4.55    5.03   0
  -9  -5   1   -3.80    5.18   0
  -9  -5   1   -6.54    4.57   0
  -9  -5   1    4.93    5.56   0
  -8  -5   1   33.12    6.35   0
  -8  -5   1   26.54    4.98   0
  -8  -5   1   29.42    5.55   0
  -7  -5   1    6.74    5.12   0
  -7  -5   1    5.92    4.11   0
  -7  -5   1    3.55    4.89   0
  -6  -5   1   72.57    5.30   0
  -6  -5   1   60.45    5.31   0
  -6  -5   1   61.02    3.92   0
  -5  -5   1   19.47    5.22   0
  -5  -5   1   23.39    5.33   0
  -5  -5   1   23.72    5.26   0
  -4  -5   1  932.48   12.81   0
  -4  -5   1  884.02    9.30   0
  -4  -5   1  803.42    7.76   0
  -3  -5   1   -3.79    3.83   0
  -2  -5   1   -1.42    4.05   0
  -1  -5   1  559.91    7.56   0
   0  -5   1  102.39    4.77   0
   1  -5   1   60.88    5.40   0
  -2   5  -1  284.88    6.39   0
   2  -5   1  252.23    6.23   0
  -3   5  -1    7.42    4.60   0
   3  -5   1   20.42    4.97   0
  -4   5  -1   -0.58    4.92   0
   4  -5   1    5.70    4.75   0
   4  -5   1    1.62    4.41   0
   5  -5   1  163.80    7.13   0
  -5   5  -1  168.51    6.03   0
   5  -5   1  150.02    6.67   0
  -9  -4   1    1.03    6.89   0
  -9  -4   1    7.73    5.55   0
  -9  -4   1    2.05    7.23   0
  -8  -4   1   14.38    6.49   0
  -8  -4   1   17.85    4.52   0
  -8  -4   1    6.45    5.41   0
  -7  -4   1   -3.82    5.76   0
  -7  -4   1    1.08    3.42   0
  -7  -4   1    5.79    6.23   0
  -6  -4   1   -0.68    4.63   0
  -6  -4   1   -0.44    5.30   0
  -6  -4   1    4.33    5.26   0
  -5  -4   1  825.14    9.21   0
  -5  -4   1  864.88    8.88   0
  -5  -4   1  812.17    9.24   0
  -4  -4   1   -4.23    5.13   0
  -4  -4   1    1.32    5.08   0
  -4  -4   1   -2.17    3.87   0
  -3  -4   1   82.77    4.51   0
  -3  -4   1  103.07    7.83   0
  -3  -4   1   96.19    4.66   0
  -2  -4   1  313.91    6.49   0
  -1  -4   1  338.19    6.63   0
   0  -4   1  749.08    8.83   0
   1  -4   1  603.57    7.43   0
  -1   4  -1  701.18    9.28   0
  -2   4  -1  463.97    6.68   0
   2  -4   1  391.52    6.37   0
  -3   4  -1  460.45    6.39   0
   3  -4   1  410.66    7.33   0
   4  -4   1  289.59    7.53   0
  -4   4  -1  326.15    6.51   0
   5  -4   1   -0.62    5.84   0
  -5   4  -1   -3.86    4.88   0
   5  -4   1    1.06    5.35   0
   6  -4   1    2.50    8.18   0
   6  -4   1   23.91    7.95   0
  -6   4  -1   33.80    5.27   0
  -9  -3   1    2.99    3.57   0
  -8  -3   1   11.77    7.39   0
  -8  -3   1    5.97    3.86   0
  -8  -3   1    6.06    8.20   0
  -7  -3   1   29.38    6.03   0
  -7  -3   1   29.29    6.61   0
  -7  -3   1   28.15    5.77   0
  -6  -3   1    3.31    6.40   0
  -6  -3   1   13.55    5.30   0
  -6  -3   1   18.98    5.44   0
  -5  -3   1  218.81    6.29   0
  -5  -3   1  189.16    6.62   0
  -5  -3   1  180.99    6.33   0
  -4  -3   1 1420.78   11.52   0
  -4  -3   1 1532.53   11.52   0
  -3  -3   1  133.23    7.14   0
  -3  -3   1  121.04    6.94   0
  -2  -3   1 2187.38   24.63   0
  -1  -3   1  340.82    8.51   0
   0   3  -1  771.53   13.48   0
   0  -3   1  655.10    8.39   0
   1  -3   1 6125.68   22.61   0
  -1   3  -1 7372.83   27.89   0
  -2   3  -1    8.38    3.91   0
   2  -3   1    5.31    5.32   0
   3  -3   1   38.71    4.89   0
  -3   3  -1   44.26    5.30   0
  -4   3  -1   31.42    5.55   0
   4  -3   1   33.65    5.60   0
   5  -3   1   31.44    5.99   0
   5  -3   1   30.90    6.44   0
  -5   3  -1   43.55    4.37   0
  -6   3  -1    7.70    4.37   0
  -7   3  -1   -0.02    4.72   0
  -8  -2   1   11.57    5.16   0
  -7  -2   1  100.46    8.85   0
  -7  -2   1  109.54    5.84   0
  -7  -2   1   91.87    8.93   0
  -6  -2   1   37.60    5.06   0
  -6  -2   1   23.72    6.70   0
  -6  -2   1   24.13    7.16   0
  -5  -2   1  347.17    9.11   0
  -5  -2   1  403.70    7.37   0
   4   2  -1  316.17    6.95   0
  -4  -2   1  271.84    7.91   0
  -4  -2   1  312.56    7.00   0
   3   2  -1 1325.48   12.45   0
  -3  -2   1 1258.67   13.28   0
  -3  -2   1 1337.89   11.70   0
  -2  -2   1  159.55    7.01   0
   2   2  -1  169.70    8.42   0
  -2  -2   1  168.47    8.18   0
   1   2  -1 1308.39   32.82   0
   0   2  -1 3660.40   32.57   0
   1  -2   1  593.53   10.49   0
  -1   2  -1  676.52   10.79   0
   2  -2   1 5052.96   24.90   0
  -2   2  -1 5642.31   21.64   0
  -3   2  -1  165.76    6.11   0
   3  -2   1  163.82    7.69   0
   4  -2   1  564.54   11.62   0
  -4   2  -1  601.11    7.70   0
   4  -2   1  545.27   10.99   0
   5  -2   1  212.02   11.81   0
  -5   2  -1  219.99    5.06   0
   5  -2   1  206.99   11.46   0
  -6   2  -1   86.76    4.49   0
  -7   2  -1   28.33    4.91   0
  -8  -1   1   23.64    3.72   0
  -7  -1   1   18.09    3.76   0
  -6  -1   1  134.93   10.63   0
  -6  -1   1  149.17    5.90   0
   5   1  -1  461.92    6.12   0
  -5  -1   1  546.53    7.69   0
  -5  -1   1  457.12   11.14   0
  -4  -1   1  710.35   11.76   0
   4   1  -1  808.95   12.79   0
   4   1  -1  756.06    8.87   0
  -4  -1   1  815.31    8.98   0
   3   1  -1  105.66    5.11   0
  -3  -1   1  116.30    6.79   0
   3   1  -1  109.69    7.43   0
  -3  -1   1   99.01    8.59   0
  -2  -1   1 3938.88   22.44   0
   2   1  -1 4062.43   25.41   0
   2   1  -1 3887.38   22.37   0
  -2  -1   1 3586.76   25.21   0
   1   1  -1   15.54    8.72   0
  -1  -1   1    9.50    9.17   0
  -1  -1   1    9.73    8.96   0
   1   1  -1   13.58    6.42   0
   0  -1   1 3239.60   25.96   0
  -1   1  -1 2125.24   19.68   0
  -2   1  -1   46.33    7.12   0
   2  -1   1   45.21    8.80   0
  -3   1  -1 2035.56   12.81   0
   3  -1   1 1834.90   22.09   0
   3  -1   1 1850.18   23.09   0
   4  -1   1 1779.56   30.51   0
  -4   1  -1 1862.92   10.70   0
   4  -1   1 1605.71   31.28   0
  -5   1  -1  302.73    5.43   0
  -6   1  -1  169.16    4.92   0
  -7   1  -1   91.82    5.55   0
  -8   1  -1   32.69    3.90   0
  -8   0   1    3.88    3.57   0
  -7   0   1   93.02    5.51   0
  -6   0   1  294.67    5.39   0
   5   0  -1    4.65    5.30   0
  -5   0   1   14.15    5.19   0
  -5   0   1    5.76    6.89   0
   5   0  -1    3.01    7.03   0
  -4   0   1  525.60   11.78   0
   4   0  -1  589.08    6.98   0
  -4   0   1  619.14    7.04   0
   4   0  -1  596.96   11.84   0
  -3   0   1  341.85    8.02   0
   3   0  -1  338.85    8.11   0
   3   0  -1  331.57    9.47   0
  -3   0   1  295.69    9.49   0
  -2   0   1   19.92    4.66   0
   2   0  -1   19.36    4.69   0
  -2   0   1   19.25    7.46   0
   2   0  -1   20.28    7.14   0
   1   0  -1 1844.57   21.44   0
   1   0  -1 1587.13   16.69   0
  -1   0   1 2088.26   19.22   0
  -1   0   1 1733.80   21.85   0
   0   0  -1 7350.07   45.83   0
   0   0   1 6872.26   46.07   0
   1   0   1  815.25   22.14   0
  -1   0  -1  976.47   23.15   0
   2   0   1 1160.22   42.29   0
   2   0   1 1222.69   41.50   0
  -3   0  -1  208.86    7.79   0
  -4   0  -1 3280.95   15.29   0
  -5   0  -1   75.36    5.71   0
  -6   0  -1  150.93    4.37   0
  -7   0  -1   35.42    3.98   0
  -8   0  -1   54.02    4.05   0
  -7   1   1    7.15    3.94   0
  -6   1   1   15.87    4.78   0
   5  -1  -1   -2.85    4.98   0
  -5   1   1   10.22    7.39   0
   5  -1  -1    0.36    6.91   0
  -5   1   1   -4.19    4.72   0
  -4   1   1   49.24    6.79   0
   4  -1  -1   57.88    5.86   0
  -4   1   1   49.28    5.68   0
   4  -1  -1   46.97    6.39   0
   3  -1  -1 1558.37   15.81   0
  -3   1   1 1512.40   15.78   0
  -3   1   1 1685.25   11.13   0
   3  -1  -1 1645.36   11.02   0
  -2   1   1    1.87    8.60   0
   2  -1  -1    0.95    6.74   0
   2  -1  -1    9.70    6.54   0
  -2   1   1    1.37    6.37   0
   1  -1  -1  942.15   13.36   0
  -1   1   1  787.87   13.90   0
  -1   1   1  961.63   11.63   0
   1  -1  -1  873.54   13.99   0
   0  -1  -1  290.66    9.69   0
   0   1   1  283.74   11.91   0
  -1  -1  -1   52.08    7.58   0
   1   1   1   50.93    9.93   0
  -3  -1  -1  152.67   11.25   0
  -3  -1  -1  176.91    7.75   0
  -4  -1  -1  266.26    7.61   0
  -5  -1  -1  638.46    8.06   0
  -6  -1  -1  793.36    7.14   0
  -7  -1  -1   32.99    5.25   0
  -8  -1  -1   89.62    4.22   0
  -9  -1  -1    0.55    3.64   0
  -7   2   1    2.87    4.92   0
  -6   2   1    6.00    3.68   0
   5  -2  -1   26.36    4.09   0
   5  -2  -1   11.84    6.37   0
  -5   2   1   32.21    5.38   0
  -5   2   1   14.63    6.45   0
  -4   2   1  125.22    7.36   0
  -4   2   1  140.55    4.89   0
   4  -2  -1  156.44    6.29   0
   4  -2  -1  123.42    6.53   0
  -3   2   1 1374.68   13.22   0
   3  -2  -1 1494.68   10.09   0
  -3   2   1 1536.98   10.15   0
   3  -2  -1 1377.70   13.67   0
   2  -2  -1  217.37    7.75   0
   2  -2  -1  239.39    5.72   0
  -2   2   1  205.12    7.52   0
  -2   2   1  220.72    7.05   0
   1  -2  -1  794.56   11.14   0
   1  -2  -1  857.24   10.99   0
  -1   2   1  805.11    9.43   0
  -1   2   1  763.53   10.35   0
   0   2   1 1081.16   13.57   0
   0  -2  -1 1095.26   12.53   0
   0  -2  -1 1170.46   15.14   0
  -1  -2  -1 3490.66   20.80   0
   1   2   1 3497.18   21.95   0
  -3  -2  -1 3266.92   21.75   0
  -4  -2  -1   52.50    6.22   0
  -4  -2  -1   43.96    8.16   0
  -5  -2  -1  191.02    6.46   0
  -5  -2  -1  176.95    9.67   0
  -5  -2  -1  177.03    8.87   0
  -6  -2  -1  402.40    6.22   0
  -7  -2  -1   63.30    4.14   0
  -8  -2  -1    7.57    5.11   0
  -9  -2  -1   21.09    4.79   0
   6  -3  -1    1.99    7.36   0
   6  -3  -1    1.40    6.36   0
  -6   3   1  -12.35    4.43   0
  -5   3   1   19.62    3.86   0
   5  -3  -1   21.42    5.71   0
   4  -3  -1  202.65    4.93   0
  -4   3   1  213.86    5.07   0
   4  -3  -1  183.04    6.71   0
  -4   3   1  188.45    7.08   0
  -3   3   1   16.81    3.95   0
   3  -3  -1    3.05    4.86   0
  -3   3   1    3.31    4.76   0
   3  -3  -1   -8.03    4.29   0
   2  -3  -1  136.92    6.19   0
   2  -3  -1  147.48    6.14   0
  -2   3   1  145.43    4.78   0
  -2   3   1  130.67    6.17   0
  -1   3   1  151.69    6.78   0
   1  -3  -1  138.69    6.60   0
   1  -3  -1  148.50    6.74   0
   0  -3  -1   43.21    4.81   0
   0  -3  -1   42.22    6.65   0
   0   3   1   41.47    5.09   0
  -1  -3  -1  216.09    8.20   0
   1   3   1  189.80    7.99   0
  -2  -3  -1  782.47    9.46   0
   2   3   1  730.56   10.64   0
  -3  -3  -1    4.79    6.50   0
   3   3   1    3.22    6.39   0
  -4  -3  -1 4384.04   21.50   0
  -5  -3  -1  216.54    7.20   0
  -5  -3  -1  238.17    7.24   0
  -5  -3  -1  229.53    5.29   0
  -6  -3  -1  112.18    7.77   0
  -6  -3  -1  123.08    6.07   0
  -6  -3  -1  112.47    6.71   0
  -7  -3  -1  270.92   10.84   0
  -7  -3  -1  293.00   11.18   0
  -7  -3  -1  323.61    6.93   0
  -8  -3  -1  145.50    6.13   0
  -9  -3  -1    8.00    5.12   0
   6  -4  -1    7.36    6.51   0
   6  -4  -1   12.06    6.54   0
   5  -4  -1   61.14    6.17   0
   4  -4  -1  240.14    6.71   0
   4  -4  -1  271.51    7.00   0
   3  -4  -1   96.74    5.56   0
   3  -4  -1   92.51    5.70   0
  -3   4   1   69.48    5.61   0
   2  -4  -1    5.67    3.54   0
  -2   4   1   -1.00    5.37   0
   2  -4  -1    1.90    4.94   0
   1  -4  -1  786.87    8.41   0
  -1   4   1  673.37    7.62   0
   1  -4  -1  669.67    8.26   0
   0  -4  -1    4.64    5.44   0
   0  -4  -1    8.68    5.61   0
   0   4   1    1.32    5.50   0
  -1  -4  -1   14.00    4.60   0
   1   4   1    9.70    4.61   0
  -2  -4  -1   24.97    6.61   0
   2   4   1   28.24    6.71   0
  -3  -4  -1  140.86    5.16   0
   3   4   1  133.27    5.12   0
  -4  -4  -1 2580.90   14.69   0
  -5  -4  -1 5419.79   21.64   0
  -5  -4  -1 6272.41   21.75   0
  -6  -4  -1   78.22    6.62   0
  -6  -4  -1   95.85    5.85   0
  -6  -4  -1   78.69    5.61   0
  -7  -4  -1   67.22    6.85   0
  -7  -4  -1   54.48    4.24   0
  -7  -4  -1   62.16    6.98   0
  -8  -4  -1   34.19    5.09   0
  -8  -4  -1   27.91    7.08   0
  -8  -4  -1   32.35    6.12   0
  -9  -4  -1   12.39    4.97   0
   5  -5  -1   63.87    6.62   0
   4  -5  -1   58.90    5.70   0
   3  -5  -1   35.37    4.36   0
  -3   5   1   23.08    4.01   0
   3  -5  -1   28.59    4.66   0
  -2   5   1    5.90    3.71   0
   2  -5  -1    0.05    4.80   0
   2  -5  -1    6.03    4.68   0
  -1   5   1  449.27    7.30   0
   1  -5  -1  521.10    7.75   0
   1  -5  -1  463.22    6.44   0
   0   5   1   24.81    4.28   0
   0  -5  -1   26.30    5.69   0
   0  -5  -1   11.96    5.06   0
   1   5   1   23.37    5.55   0
  -1  -5  -1   25.60    6.47   0
  -1  -5  -1   21.36    5.63   0
   2   5   1  125.48    6.30   0
  -2  -5  -1  130.73    6.49   0
  -3  -5  -1  276.55    6.66   0
   3   5   1  288.49    6.86   0
  -4  -5  -1  893.08    9.17   0
  -5  -5  -1  307.72    6.86   0
  -5  -5  -1  372.62    7.56   0
  -6  -5  -1 1126.46    9.89   0
  -6  -5  -1  934.60    9.51   0
  -7  -5  -1  123.84    6.28   0
  -7  -5  -1  111.89    5.68   0
  -7  -5  -1  118.33    5.75   0
  -8  -5  -1    6.52    3.63   0
  -8  -5  -1    9.12    5.25   0
  -8  -5  -1    2.13    6.14   0
  -9  -5  -1   24.55    6.33   0
  -9  -5  -1   29.76    5.13   0
  -9  -5  -1   26.25    5.63   0
   4  -6  -1    2.08    4.45   0
   3  -6  -1   56.26    4.83   0
   2  -6  -1  167.12    6.07   0
   2  -6  -1  158.13    5.86   0
   1  -6  -1   40.11    5.03   0
   1  -6  -1   36.33    5.38   0
  -1   6   1   41.45    4.86   0
   0  -6  -1  113.25    5.99   0
   0  -6  -1  111.88    6.13   0
   0   6   1   95.20    6.08   0
   1   6   1   -6.25    5.76   0
  -1  -6  -1   -0.74    6.47   0
  -1  -6  -1   12.86    5.54   0
   2   6   1   12.27    5.20   0
  -2  -6  -1    8.64    5.63   0
  -2  -6  -1   18.54    6.53   0
  -3  -6  -1  129.87    4.97   0
  -4  -6  -1   79.81    5.94   0
  -5  -6  -1  127.45    6.30   0
  -5  -6  -1  135.86    6.40   0
  -6  -6  -1 1659.09   12.67   0
  -6  -6  -1 1476.42   10.77   0
  -7  -6  -1 1025.03    9.97   0
  -7  -6  -1 1077.07   10.38   0
  -7  -6  -1 1009.45   10.03   0
  -8  -6  -1    5.78    4.72   0
  -8  -6  -1    1.57    5.22   0
  -8  -6  -1   -0.02    4.71   0
  -9  -6  -1    4.30    5.27   0
  -9  -6  -1   -5.72    5.99   0
  -9  -6  -1   -6.57    4.35   0
   3  -7  -1   28.14    4.08   0
   2  -7  -1  257.14    5.54   0
   1  -7  -1    0.54    4.76   0
   1  -7  -1    3.12    4.42   0
   0  -7  -1   -0.12    5.30   0
   0  -7  -1    5.37    5.61   0
  -1  -7  -1  201.34    8.18   0
  -1  -7  -1  161.83    4.78   0
  -2  -7  -1    4.35    6.58   0
  -2  -7  -1    0.41    3.73   0
  -3  -7  -1   -2.36    4.97   0
  -3  -7  -1    1.11    7.22   0
  -4  -7  -1   42.47    4.23   0
  -5  -7  -1  399.76   10.01   0
  -5  -7  -1  347.02    7.10   0
  -6  -7  -1  294.89    7.85   0
  -6  -7  -1  279.79    5.29   0
  -7  -7  -1   65.85    5.96   0
  -7  -7  -1   58.57    4.88   0
  -7  -7  -1   53.09    3.77   0
  -8  -7  -1  532.88    8.09   0
  -8  -7  -1  501.74    7.78   0
  -8  -7  -1  487.22    8.18   0
  -9  -7  -1   75.92    5.74   0
  -9  -7  -1   58.66    5.66   0
  -9  -7  -1   61.60    5.45   0
   2  -8  -1   -0.63    3.67   0
   1  -8  -1   -1.36    5.01   0
   0  -8  -1   27.19    4.27   0
   0  -8  -1   30.80    5.25   0
  -1  -8  -1   11.42    5.57   0
  -1  -8  -1   11.25    5.21   0
  -2  -8  -1   -0.31    5.74   0
  -2  -8  -1   -6.87    3.89   0
  -3  -8  -1    2.76    8.85   0
  -3  -8  -1    2.05    3.79   0
  -4  -8  -1   33.79    5.39   0
  -5  -8  -1    9.92    5.49   0
  -5  -8  -1    2.93    6.85   0
  -6  -8  -1   38.66    6.46   0
  -6  -8  -1   37.34    5.15   0
  -7  -8  -1    0.72    5.29   0
  -7  -8  -1    2.60    5.10   0
  -7  -8  -1   -3.84    3.98   0
  -8  -8  -1  322.72    7.37   0
  -8  -8  -1  360.49    8.73   0
  -8  -8  -1  383.61    7.27   0
  -9  -8  -1  183.54    6.37   0
  -9  -8  -1  149.48    6.58   0
  -9  -8  -1  153.75    6.92   0
   0  -9  -1   70.24    4.59   0
  -1  -9  -1   -2.91    5.29   0
  -2  -9  -1    1.05    3.97   0
  -3  -9  -1   48.34    3.88   0
  -4  -9  -1   -0.07    3.67   0
  -5  -9  -1   10.05    3.74   0
  -6  -9  -1   19.01    4.02   0
  -7  -9  -1   84.96    4.74   0
  -7  -9  -1   93.12    8.13   0
  -7  -9  -1   78.59    5.50   0
  -8  -9  -1   63.64    6.17   0
  -8  -9  -1   88.69    6.46   0
  -8  -9  -1   91.00    5.99   0
  -2 -10  -1   44.44    4.19   0
  -3 -10  -1   10.46    3.91   0
  -4 -10  -1   -6.85    3.71   0
  -5 -10  -1   -2.21    4.70   0
  -6 -10  -1   35.39    5.22   0
  -7 -10  -1    7.38    4.23   0
  -5 -10   2   -5.43    3.79   0
  -4 -10   2    5.05    3.68   0
  -4 -10   2    2.59    3.75   0
  -3 -10   2   -9.91    4.38   0
  -3 -10   2   24.47    4.60   0
  -7  -9   2   -3.18    4.17   0
  -7  -9   2  -12.62    4.98   0
  -6  -9   2   55.68    4.00   0
  -6  -9   2   50.60    4.38   0
  -5  -9   2    8.49    3.83   0
  -5  -9   2   25.91    5.23   0
  -4  -9   2    1.52    3.71   0
  -4  -9   2    1.35    4.52   0
  -3  -9   2   56.77    5.22   0
  -3  -9   2   53.41    5.31   0
  -2  -9   2   16.05    3.85   0
  -2  -9   2   15.99    5.23   0
  -1  -9   2   -2.59    4.77   0
  -1  -9   2   16.34    5.09   0
   0  -9   2   49.47    5.64   0
   0  -9   2   58.19    4.15   0
  -8  -8   2   25.68    5.16   0
  -8  -8   2   22.84    4.96   0
  -7  -8   2    1.26    5.06   0
  -7  -8   2    4.71    4.58   0
  -6  -8   2   -0.70    3.63   0
  -6  -8   2   -4.47    5.36   0
  -5  -8   2   12.86    3.83   0
  -5  -8   2   -1.43    3.58   0
  -4  -8   2   -7.20    5.14   0
  -4  -8   2    4.78    5.14   0
  -3  -8   2  123.00    4.29   0
  -3  -8   2  125.04    5.78   0
  -2  -8   2   -2.77    3.90   0
  -2  -8   2   -0.58    3.80   0
  -1  -8   2   56.22    5.51   0
  -1  -8   2   54.89    5.14   0
   0  -8   2   17.47    3.85   0
   0  -8   2   13.58    3.74   0
   1  -8   2   31.40    5.26   0
   1  -8   2   34.21    3.85   0
   2  -8   2    3.79    3.57   0
   2  -8   2    2.90    4.78   0
  -8  -7   2   -3.23    4.40   0
  -8  -7   2    7.42    4.53   0
  -7  -7   2   38.79    5.04   0
  -7  -7   2   26.75    5.19   0
  -6  -7   2   80.72    5.61   0
  -6  -7   2   61.22    5.39   0
  -5  -7   2   70.28    4.39   0
  -5  -7   2   67.05    5.75   0
  -4  -7   2  407.71    6.71   0
  -4  -7   2  459.69    6.28   0
  -3  -7   2   11.43    3.99   0
  -3  -7   2   24.08    3.71   0
  -2  -7   2   -8.79    5.31   0
  -2  -7   2    6.06    3.80   0
  -1  -7   2   20.05    5.47   0
  -1  -7   2   22.26    4.09   0
   0  -7   2    0.18    3.81   0
   0  -7   2   -2.06    4.02   0
   1  -7   2  185.93    5.82   0
   1  -7   2  182.90    5.99   0
   2  -7   2   26.08    5.21   0
   2  -7   2   43.37    4.89   0
   3  -7   2   29.24    5.36   0
   3  -7   2    3.76    5.47   0
  -8  -6   2    6.88    4.29   0
  -8  -6   2   -4.15    4.88   0
  -8  -6   2    8.55    5.02   0
  -7  -6   2    0.45    4.89   0
  -7  -6   2    3.89    4.94   0
  -7  -6   2    4.05    5.14   0
  -6  -6   2   90.16    5.26   0
  -6  -6   2   69.92    3.97   0
  -5  -6   2    9.95    4.64   0
  -5  -6   2   -1.42    3.51   0
  -4  -6   2  169.83    6.62   0
  -4  -6   2  167.58    5.02   0
  -3  -6   2   14.41    3.89   0
  -3  -6   2   19.22    5.23   0
  -2  -6   2   20.38    4.05   0
  -2  -6   2   16.80    3.90   0
  -1  -6   2  454.31    7.49   0
   0  -6   2   35.44    5.22   0
   1  -6   2   66.78    5.52   0
  -2   6  -2  254.21    6.88   0
   2  -6   2  237.05    6.10   0
   2  -6   2  227.18    6.43   0
   3  -6   2    9.84    4.78   0
   3  -6   2    0.92    5.20   0
  -3   6  -2    1.48    3.62   0
   4  -6   2   -0.48    4.71   0
  -4   6  -2   -7.46    5.11   0
   4  -6   2    3.93    4.95   0
  -9  -5   2   -0.76    5.08   0
  -9  -5   2    1.99    3.75   0
  -9  -5   2    0.02    5.88   0
  -8  -5   2   42.59    5.31   0
  -8  -5   2   41.81    5.81   0
  -8  -5   2   33.92    5.79   0
  -7  -5   2   23.86    5.22   0
  -7  -5   2   32.65    4.81   0
  -7  -5   2   32.54    4.09   0
  -6  -5   2   14.05    4.98   0
  -6  -5   2   22.20    4.49   0
  -6  -5   2   -3.95    5.24   0
  -5  -5   2   10.58    5.69   0
  -5  -5   2   25.73    5.26   0
  -5  -5   2   22.89    5.63   0
  -4  -5   2   80.99    4.72   0
  -4  -5   2   62.74    6.05   0
  -3  -5   2   91.55    4.86   0
  -3  -5   2   85.02    4.31   0
  -2  -5   2  643.30    7.33   0
  -2  -5   2  557.98    6.91   0
  -1  -5   2  440.40    7.51   0
   0  -5   2  166.04    5.08   0
   1  -5   2  109.15    5.92   0
  -1   5  -2  129.21    5.85   0
   2  -5   2    1.35    3.90   0
   2  -5   2    5.42    5.17   0
  -2   5  -2   12.32    4.86   0
  -3   5  -2  158.78    6.09   0
   3  -5   2  143.70    6.17   0
   3  -5   2  139.30    5.93   0
  -4   5  -2  188.52    5.69   0
   4  -5   2  165.45    5.85   0
   4  -5   2  164.07    6.09   0
   5  -5   2    4.19    4.62   0
  -5   5  -2    6.94    4.34   0
   5  -5   2   -4.56    4.87   0
  -9  -4   2   75.63    5.69   0
  -9  -4   2   58.00    6.94   0
  -9  -4   2   54.27    6.76   0
  -8  -4   2   25.20    5.73   0
  -8  -4   2   35.45    5.69   0
  -8  -4   2    7.75    4.23   0
  -7  -4   2   64.96    4.88   0
  -7  -4   2   46.72    6.01   0
  -7  -4   2   55.55    6.54   0
  -6  -4   2   45.90    4.88   0
  -6  -4   2   40.49    5.29   0
  -6  -4   2   63.09    5.15   0
  -5  -4   2  223.14    6.43   0
  -5  -4   2  232.08    5.58   0
  -4  -4   2  134.90    6.01   0
  -4  -4   2  140.76    6.10   0
  -3  -4   2    2.39    3.89   0
  -2  -4   2  187.36    5.74   0
  -1  -4   2   25.87    4.56   0
  -1  -4   2   14.62    6.42   0
   0   4  -2  151.96    7.39   0
   0  -4   2  121.01    4.69   0
   1  -4   2  478.75    6.67   0
  -1   4  -2  562.32    9.38   0
  -2   4  -2  262.79    6.63   0
   2  -4   2  239.31    6.64   0
   2  -4   2  259.99    6.46   0
   3  -4   2   56.81    5.46   0
  -3   4  -2   61.84    5.06   0
   3  -4   2   39.78    5.27   0
   4  -4   2  184.20    6.68   0
  -4   4  -2  195.87    4.70   0
   4  -4   2  187.54    7.39   0
   5  -4   2   68.66    5.83   0
  -5   4  -2   87.81    4.98   0
   5  -4   2   88.57    5.78   0
   6  -4   2    6.90    7.23   0
  -6   4  -2   13.88    5.34   0
   6  -4   2   11.85    7.70   0
  -8  -3   2   29.57    6.29   0
  -8  -3   2   33.17    3.77   0
  -8  -3   2   21.51    5.93   0
  -7  -3   2   68.73    4.53   0
  -7  -3   2   67.24    6.25   0
  -7  -3   2   59.51    5.79   0
  -6  -3   2    4.54    5.44   0
  -6  -3   2   26.15    5.26   0
  -5  -3   2  132.32    5.90   0
  -5  -3   2  114.18    5.94   0
  -4  -3   2  206.87    6.76   0
   4   3  -2  221.61    6.51   0
  -4  -3   2  190.77    5.40   0
  -3  -3   2  532.90    9.63   0
   3   3  -2  490.82    9.35   0
  -3  -3   2  499.58    8.39   0
  -2  -3   2  292.34    6.46   0
   2   3  -2  325.81   10.87   0
   1   3  -2   68.42   13.69   0
  -1  -3   2   63.18    6.74   0
   0   3  -2 2491.87   23.74   0
   0  -3   2 2338.76   14.60   0
  -1   3  -2  357.82    8.47   0
   1  -3   2  357.72    7.79   0
   1  -3   2  315.25    6.28   0
  -2   3  -2    8.34    5.48   0
   2  -3   2   19.34    5.27   0
   2  -3   2   17.79    5.27   0
   3  -3   2    4.09    4.52   0
  -3   3  -2    3.57    3.57   0
   3  -3   2    5.77    4.73   0
   4  -3   2  548.96    9.55   0
   4  -3   2  534.80    9.09   0
  -4   3  -2  599.73    7.85   0
   5  -3   2  117.96    6.81   0
   5  -3   2  114.71    7.10   0
  -5   3  -2  121.63    5.02   0
  -6   3  -2  148.85    6.06   0
  -7   3  -2    5.58    4.06   0
  -8  -2   2  380.20   18.92   0
  -8  -2   2  367.96   19.20   0
  -8  -2   2  462.42    7.12   0
  -7  -2   2   42.92    6.60   0
  -7  -2   2   50.66    5.61   0
  -7  -2   2   48.61    6.49   0
  -6  -2   2  164.20    7.58   0
  -6  -2   2  178.06    4.77   0
   5   2  -2   26.65    5.53   0
  -5  -2   2   33.53    5.49   0
  -5  -2   2   27.12    4.27   0
   4   2  -2  331.04    7.35   0
  -4  -2   2  298.00    7.38   0
  -4  -2   2  342.34    7.22   0
   4   2  -2  328.13    6.96   0
  -3  -2   2  239.81    7.41   0
   3   2  -2  220.14    7.05   0
   3   2  -2  227.83    7.13   0
  -3  -2   2  213.68    7.20   0
   2   2  -2 2045.60   14.86   0
   2   2  -2 2028.80   17.18   0
  -2  -2   2 1874.94   13.92   0
   1   2  -2  255.28    7.06   0
  -1  -2   2  229.31    6.58   0
   0  -2   2  324.80    7.80   0
   1  -2   2   51.41    6.74   0
  -2   2  -2  200.98    5.72   0
   2  -2   2  181.16    7.68   0
   2  -2   2  194.37    7.60   0
   3  -2   2  213.44    7.16   0
  -3   2  -2  231.02    5.28   0
   3  -2   2  223.04    7.24   0
   4  -2   2   30.93    6.08   0
  -4   2  -2   34.49    4.13   0
   4  -2   2   28.22    6.31   0
  -5   2  -2  195.68    4.87   0
   5  -2   2  175.39   11.06   0
   5  -2   2  170.86   10.76   0
  -6   2  -2  167.52    5.07   0
  -7   2  -2   81.00    4.14   0
  -8  -1   2    7.28    3.58   0
  -7  -1   2   65.36    8.92   0
  -7  -1   2   69.89    4.85   0
   6   1  -2   72.64    5.53   0
  -6  -1   2   81.73    4.30   0
  -6  -1   2   76.12    6.93   0
   5   1  -2    7.04    5.40   0
   5   1  -2    5.49    5.07   0
  -5  -1   2   12.69    5.28   0
  -5  -1   2    9.25    5.59   0
   4   1  -2   -0.24    4.03   0
  -4  -1   2   -3.44    5.24   0
   4   1  -2    0.81    4.96   0
  -4  -1   2   -5.27    5.67   0
   3   1  -2  275.61    8.11   0
  -3  -1   2  247.61    6.81   0
   3   1  -2  269.84    5.95   0
  -3  -1   2  280.17    7.39   0
  -2  -1   2 3031.04   18.53   0
   2   1  -2 3020.51   18.40   0
   2   1  -2 2827.09   18.47   0
  -2  -1   2 2536.66   17.88   0
  -1  -1   2 1106.67   12.96   0
   1   1  -2 1238.50   13.41   0
   0  -1   2  150.40    9.75   0
   0   1  -2  175.39    9.79   0
  -1   1  -2 1176.74   13.78   0
   1  -1   2 1105.74   14.70   0
   2  -1   2 3989.61   26.45   0
   3  -1   2  190.13    8.40   0
  -3   1  -2  204.71    6.96   0
   3  -1   2  179.29    8.34   0
   4  -1   2  247.17   12.08   0
   4  -1   2  223.92   12.03   0
  -4   1  -2  254.08    6.82   0
  -5   1  -2  178.25    6.04   0
  -6   1  -2  120.07    5.73   0
  -7   1  -2  399.59    6.49   0
  -8   1  -2    8.22    3.72   0
  -8   0   2   -5.51    3.88   0
  -7   0   2  840.75    8.93   0
   6   0  -2  469.26   11.68   0
  -6   0   2  474.78    6.84   0
  -6   0   2  423.35   10.94   0
   6   0  -2  481.72    7.31   0
   5   0  -2   42.01    5.25   0
  -5   0   2   17.46    5.29   0
  -5   0   2   25.88    5.95   0
   5   0  -2   18.13    6.55   0
   4   0  -2    8.37    4.10   0
   4   0  -2   -0.70    6.11   0
  -4   0   2    8.23    6.68   0
  -4   0   2    2.21    3.89   0
  -3   0   2  402.49    9.14   0
   3   0  -2  426.44    9.02   0
   3   0  -2  437.53    6.94   0
  -3   0   2  469.76    8.38   0
   2   0  -2    5.33    4.73   0
  -2   0   2    6.05    6.60   0
   2   0  -2    7.10    6.31   0
  -2   0   2    3.97    6.72   0
  -1   0   2  711.26   13.08   0
   1   0  -2  778.85   11.88   0
   1   0  -2  811.11   11.53   0
   0   0   2 1572.49   17.59   0
   0   0  -2 1633.05   17.60   0
   1   0   2  465.57   12.70   0
  -1   0  -2  499.38   12.78   0
   2   0   2  510.83   13.11   0
  -2   0  -2  522.85   13.21   0
   3   0   2  374.98   15.51   0
  -4   0  -2 1247.75   10.41   0
  -5   0  -2    0.04    5.41   0
  -6   0  -2   -2.59    3.70   0
  -7   0  -2   -3.47    4.52   0
  -8   0  -2  186.87    5.93   0
  -7   1   2   -3.98    3.79   0
  -6   1   2    6.68    7.20   0
   6  -1  -2    8.65    6.65   0
   6  -1  -2    9.66    4.15   0
  -6   1   2   21.16    3.59   0
   5  -1  -2  301.16    9.18   0
  -5   1   2  271.80    8.38   0
   5  -1  -2  310.41    5.30   0
  -5   1   2  314.94    5.39   0
   4  -1  -2   85.42    5.73   0
  -4   1   2   85.82    6.66   0
   4  -1  -2   89.31    4.68   0
  -4   1   2   91.50    6.04   0
  -3   1   2  481.95    7.90   0
  -3   1   2  412.02    8.72   0
   3  -1  -2  415.61    8.40   0
   3  -1  -2  469.17    7.84   0
   2  -1  -2  363.62    8.86   0
   2  -1  -2  368.38    8.35   0
  -2   1   2  337.60    8.96   0
  -2   1   2  391.43    8.01   0
  -1   1   2   -5.92    6.82   0
   1  -1  -2    4.84    7.06   0
   1  -1  -2   -1.92    7.06   0
   0   1   2 3308.36   21.44   0
   0  -1  -2 3585.54   22.60   0
   1   1   2 2367.78   20.65   0
  -1  -1  -2 2414.01   19.58   0
   2   1   2  823.18   14.39   0
  -2  -1  -2  856.21   14.90   0
  -3  -1  -2  314.31   12.05   0
   3   1   2  310.53   10.75   0
  -4  -1  -2    2.88   11.43   0
  -5  -1  -2  125.47    6.21   0
  -6  -1  -2 2016.14   11.22   0
  -7  -1  -2  258.02    5.14   0
  -8  -1  -2   31.32    3.99   0
  -9  -1  -2  174.10    5.89   0
   6  -2  -2    5.28    3.77   0
  -6   2   2   -1.48    3.95   0
   6  -2  -2    1.22    6.35   0
  -6   2   2    3.74    6.76   0
  -5   2   2 1086.78   13.27   0
   5  -2  -2 1150.04    8.51   0
  -5   2   2 1231.21    9.51   0
   5  -2  -2 1077.08   12.52   0
  -4   2   2  107.45    6.31   0
   4  -2  -2   91.96    5.85   0
  -4   2   2   93.13    4.44   0
   4  -2  -2  111.45    5.82   0
   3  -2  -2   11.74    4.93   0
   3  -2  -2   14.46    4.25   0
  -3   2   2   16.76    5.11   0
  -3   2   2    9.09    3.95   0
  -2   2   2   18.18    5.94   0
   2  -2  -2   10.81    5.37   0
   2  -2  -2    1.81    6.07   0
   1  -2  -2   44.71    5.04   0
  -1   2   2   46.27    6.84   0
   1  -2  -2   46.98    4.94   0
   0   2   2 2986.91   17.80   0
   0  -2  -2 3056.48   18.41   0
  -1  -2  -2 2572.16   16.94   0
   1   2   2 2568.21   17.80   0
   2   2   2  559.28   10.53   0
  -2  -2  -2  538.99   10.69   0
   3   2   2  710.48   11.38   0
  -3  -2  -2  713.43   11.55   0
  -4  -2  -2   16.55    7.48   0
   4   2   2   15.34    7.37   0
  -5  -2  -2  583.44    7.98   0
  -5  -2  -2  583.58   13.31   0
  -5  -2  -2  565.92   13.36   0
  -6  -2  -2  295.60    6.33   0
  -7  -2  -2  189.67    5.84   0
  -8  -2  -2   -6.10    3.62   0
  -9  -2  -2    1.30    4.18   0
   6  -3  -2   -1.89    6.39   0
   5  -3  -2    6.65    5.08   0
  -5   3   2   13.60    5.31   0
   5  -3  -2   17.26    4.98   0
  -4   3   2   20.14    5.63   0
   4  -3  -2   21.14    5.48   0
   4  -3  -2   24.58    5.39   0
  -3   3   2  212.53    6.78   0
   3  -3  -2  208.60    6.66   0
   3  -3  -2  216.45    6.56   0
  -2   3   2   13.01    5.47   0
   2  -3  -2   20.16    4.09   0
   2  -3  -2   11.73    5.48   0
  -1   3   2  718.66    8.33   0
   1  -3  -2  718.76    8.24   0
   1  -3  -2  774.32    8.34   0
   0  -3  -2  610.70    9.10   0
   0   3   2  637.53    9.36   0
   0  -3  -2  670.41   10.26   0
  -1  -3  -2 4298.49   19.12   0
   1   3   2 4283.98   19.96   0
  -2  -3  -2  413.35    9.05   0
   2   3   2  423.36    8.97   0
  -3  -3  -2 1202.61   11.92   0
   3   3   2 1142.36   10.84   0
  -4  -3  -2 1316.68   12.59   0
   4   3   2 1193.11   12.17   0
  -5  -3  -2   39.57    5.94   0
  -6  -3  -2   99.01    6.18   0
  -6  -3  -2   88.17    7.36   0
  -6  -3  -2   87.24    7.21   0
  -7  -3  -2   61.68    9.50   0
  -7  -3  -2   65.02    4.23   0
  -7  -3  -2   63.32    9.36   0
  -8  -3  -2  366.19    7.33   0
  -9  -3  -2   -6.90    4.88   0
   5  -4  -2    5.09    4.97   0
   5  -4  -2    9.75    3.89   0
  -5   4   2    3.15    5.19   0
  -4   4   2   45.31    5.38   0
   4  -4  -2   42.88    5.23   0
   4  -4  -2   42.32    3.92   0
  -3   4   2  247.30    6.32   0
   3  -4  -2  289.64    5.25   0
   3  -4  -2  249.81    6.51   0
   2  -4  -2  168.36    6.23   0
  -2   4   2  168.38    6.20   0
   2  -4  -2  160.74    4.72   0
   1  -4  -2 2013.34   11.78   0
   1  -4  -2 2296.61   13.45   0
  -1   4   2 2069.90   12.67   0
   0  -4  -2  344.59    7.58   0
   0   4   2  300.54    7.00   0
   0  -4  -2  329.72    6.85   0
   1   4   2  255.68    7.54   0
  -1  -4  -2  239.03    5.97   0
  -2  -4  -2  644.23    8.04   0
   2   4   2  627.29    9.21   0
   3   4   2  320.51    7.51   0
  -3  -4  -2  351.90    6.46   0
  -4  -4  -2   21.48    5.86   0
   4   4   2    3.49    5.51   0
  -5  -4  -2   46.38    5.59   0
  -6  -4  -2  280.23    6.70   0
  -6  -4  -2  253.12    7.15   0
  -7  -4  -2    6.58    6.37   0
  -7  -4  -2   16.64    5.39   0
  -7  -4  -2   25.94    5.10   0
  -8  -4  -2   61.66    7.12   0
  -8  -4  -2   53.90    7.72   0
  -8  -4  -2   75.68    5.84   0
  -9  -4  -2  101.54    5.04   0
   5  -5  -2   21.03    5.55   0
   4  -5  -2    2.50    3.69   0
  -4   5   2    4.84    5.18   0
   4  -5  -2    2.05    5.23   0
   3  -5  -2   40.12    5.06   0
  -3   5   2   37.92    5.34   0
   3  -5  -2   30.15    5.22   0
   2  -5  -2   44.65    3.98   0
   2  -5  -2   53.33    5.16   0
  -2   5   2   49.70    5.14   0
   1  -5  -2   28.78    5.61   0
  -1   5   2   30.32    4.12   0
   1  -5  -2   39.08    5.05   0
   0   5   2  167.86    5.83   0
   0  -5  -2  157.44    6.48   0
   0  -5  -2  170.82    6.08   0
   1   5   2    9.56    3.99   0
  -1  -5  -2   13.02    4.89   0
  -1  -5  -2    7.41    5.63   0
  -2  -5  -2  270.28    7.00   0
   2   5   2  237.45    6.68   0
  -3  -5  -2  612.28    7.18   0
   3   5   2  626.29    7.11   0
  -4  -5  -2  177.99    5.18   0
   4   5   2  197.89    6.43   0
  -5  -5  -2   77.19    5.72   0
  -6  -5  -2  328.81    5.95   0
  -6  -5  -2  342.72    6.79   0
  -7  -5  -2  493.47    8.14   0
  -7  -5  -2  510.79    6.59   0
  -7  -5  -2  475.71    8.47   0
  -8  -5  -2   10.11    5.90   0
  -8  -5  -2   -2.73    5.01   0
  -8  -5  -2    6.72    5.98   0
  -9  -5  -2   64.97    6.48   0
  -9  -5  -2   88.64    5.53   0
  -9  -5  -2   57.63    6.50   0
   4  -6  -2  295.14    7.39   0
   3  -6  -2   68.10    5.42   0
   3  -6  -2   51.65    4.74   0
  -3   6   2   56.42    4.04   0
   2  -6  -2   41.89    5.33   0
   2  -6  -2   24.95    4.96   0
  -2   6   2   29.56    3.94   0
   1  -6  -2   11.21    5.18   0
  -1   6   2   19.54    4.99   0
   1  -6  -2   25.02    3.72   0
   0  -6  -2    7.69    4.05   0
   0  -6  -2    2.16    5.15   0
   0   6   2   10.74    5.36   0
   1   6   2  601.02    7.98   0
  -1  -6  -2  643.53    6.99   0
  -1  -6  -2  681.18    9.25   0
  -2  -6  -2  131.39    6.10   0
   2   6   2   99.64    6.13   0
  -3  -6  -2   44.25    5.95   0
   3   6   2   46.76    5.31   0
  -4  -6  -2    8.53    5.54   0
   4   6   2    4.70    5.59   0
  -5  -6  -2    0.03    4.17   0
  -6  -6  -2   60.12    5.38   0
  -6  -6  -2   43.44    3.92   0
  -7  -6  -2  281.81    6.96   0
  -7  -6  -2  342.39    7.05   0
  -8  -6  -2   39.64    4.88   0
  -8  -6  -2   32.79    5.32   0
  -8  -6  -2   44.65    5.01   0
  -9  -6  -2   27.58    5.12   0
  -9  -6  -2   22.09    5.96   0
  -9  -6  -2   36.27    6.13   0
   3  -7  -2   -3.68    4.90   0
   3  -7  -2   -3.39    3.49   0
   2  -7  -2   79.49    5.35   0
   2  -7  -2   59.09    5.28   0
   1  -7  -2   43.55    5.14   0
   1  -7  -2   32.03    4.73   0
  -1   7   2   28.60    5.09   0
   0  -7  -2   13.90    4.00   0
   0  -7  -2    4.85    5.09   0
   0   7   2    7.01    4.10   0
  -1  -7  -2   13.90    5.64   0
  -1  -7  -2   31.00    5.42   0
   1   7   2    6.52    5.44   0
  -2  -7  -2    1.61    5.31   0
  -2  -7  -2   -5.93    4.96   0
   2   7   2    9.12    4.75   0
   3   7   2   23.51    5.22   0
  -3  -7  -2   37.13    3.88   0
  -4  -7  -2   11.90    5.69   0
   4   7   2   15.41    4.06   0
  -5  -7  -2   61.22    4.28   0
  -6  -7  -2   17.12    5.11   0
  -6  -7  -2    4.31    5.48   0
  -7  -7  -2   10.36    5.01   0
  -7  -7  -2   21.53    5.20   0
  -8  -7  -2  207.94    6.25   0
  -8  -7  -2  208.42    6.70   0
  -8  -7  -2  208.01    5.86   0
  -9  -7  -2  125.03    5.44   0
  -9  -7  -2  115.26    5.99   0
  -9  -7  -2  136.03    6.32   0
   1  -8  -2   15.10    5.22   0
   1  -8  -2   19.29    5.10   0
   0  -8  -2    6.11    5.40   0
   0  -8  -2   26.25    3.65   0
  -1  -8  -2  119.39    6.34   0
  -1  -8  -2   93.87    5.46   0
   1   8   2  100.84    5.56   0
   2   8   2   55.17    4.91   0
  -2  -8  -2   55.49    5.01   0
  -2  -8  -2   61.90    5.56   0
  -3  -8  -2  118.39    4.42   0
  -3  -8  -2  113.52    7.20   0
  -4  -8  -2   34.50    4.06   0
  -5  -8  -2   26.17    5.42   0
  -6  -8  -2   -2.22    6.03   0
  -6  -8  -2    9.32    5.22   0
  -7  -8  -2   24.61    5.03   0
  -7  -8  -2    6.15    5.02   0
  -8  -8  -2   32.07    5.28   0
  -8  -8  -2   36.52    3.93   0
  -8  -8  -2   19.36    5.91   0
  -9  -8  -2   47.06    4.96   0
  -9  -8  -2   51.47    5.72   0
  -9  -8  -2   74.40    5.79   0
   0  -9  -2  101.81    4.87   0
   0  -9  -2   86.99    6.26   0
  -1  -9  -2   -3.86    5.33   0
  -1  -9  -2   16.48    5.07   0
  -2  -9  -2    8.72    4.27   0
  -2  -9  -2    0.83    5.77   0
  -3  -9  -2   13.99    3.58   0
  -3  -9  -2    0.96    6.74   0
  -4  -9  -2   -2.02    4.00   0
  -4  -9  -2   -0.40    7.72   0
  -5  -9  -2    4.49    3.66   0
  -5  -9  -2    6.21    7.10   0
  -6  -9  -2    4.92    3.77   0
  -6  -9  -2   19.17    6.12   0
  -7  -9  -2    1.24    5.20   0
  -7  -9  -2   -0.04    5.13   0
  -8  -9  -2   19.09    6.00   0
  -8  -9  -2    1.84    5.45   0
  -8  -9  -2   13.18    3.83   0
  -2 -10  -2    6.92    5.05   0
  -3 -10  -2   20.06    4.68   0
  -4 -10  -2   10.83    5.36   0
  -5 -10  -2   21.14    5.41   0
  -6 -10  -2    1.02    4.17   0
  -7 -10  -2    7.88    3.49   0
  -7 -10  -2    0.12    7.29   0
  -6  -9   3    5.11    5.34   0
  -6  -9   3   33.38    4.98   0
  -5  -9   3    0.88    5.01   0
  -5  -9   3   -7.24    3.86   0
  -4  -9   3   25.60    5.19   0
  -4  -9   3    9.90    3.82   0
  -3  -9   3   38.25    5.16   0
  -3  -9   3   55.68    5.32   0
  -2  -9   3  -13.37    3.90   0
  -2  -9   3    6.06    4.95   0
  -1  -9   3   -0.88    4.78   0
  -1  -9   3   13.97    3.71   0
   0  -9   3   74.02    4.39   0
   0  -9   3   66.37    4.32   0
  -7  -8   3   35.81    4.06   0
  -7  -8   3   24.14    4.80   0
  -6  -8   3    9.19    4.63   0
  -6  -8   3   15.60    5.04   0
  -5  -8   3    6.52    3.77   0
  -5  -8   3   -1.61    5.11   0
  -4  -8   3   74.06    5.51   0
  -4  -8   3   44.66    5.31   0
  -3  -8   3    5.79    5.12   0
  -3  -8   3   15.23    3.54   0
  -2  -8   3   91.95    4.18   0
  -2  -8   3   92.58    5.72   0
  -1  -8   3   31.40    3.96   0
  -1  -8   3   32.65    4.10   0
   0  -8   3  139.04    5.83   0
   0  -8   3  141.29    4.67   0
   1  -8   3   34.64    3.83   0
   1  -8   3   38.07    5.28   0
   2  -8   3   -3.40    4.67   0
   2  -8   3   -4.97    4.45   0
  -8  -7   3   -2.82    4.79   0
  -8  -7   3    5.45    4.43   0
  -7  -7   3   -9.47    5.17   0
  -7  -7   3   -2.60    5.41   0
  -6  -7   3  248.31    6.72   0
  -6  -7   3  276.65    6.54   0
  -5  -7   3   -2.58    5.43   0
  -5  -7   3    1.46    5.29   0
  -4  -7   3   -9.09    5.45   0
  -4  -7   3    7.03    5.37   0
  -3  -7   3  119.71    5.80   0
  -3  -7   3  114.23    5.60   0
  -2  -7   3   18.64    5.13   0
  -2  -7   3   35.67    5.12   0
  -1  -7   3  142.62    6.01   0
  -1  -7   3  162.56    6.19   0
   0  -7   3    7.42    5.51   0
   0  -7   3    9.41    5.43   0
   1  -7   3   -0.67    3.75   0
   1  -7   3    8.80    4.89   0
   2  -7   3   57.88    4.70   0
   2  -7   3   53.86    5.16   0
   3  -7   3    7.23    5.49   0
   3  -7   3   16.85    5.13   0
  -8  -6   3   23.65    4.15   0
  -8  -6   3    9.32    5.31   0
  -7  -6   3   96.88    5.60   0
  -7  -6   3   75.97    5.06   0
  -6  -6   3    4.21    5.00   0
  -6  -6   3   12.17    3.35   0
  -5  -6   3   89.02    5.45   0
  -5  -6   3   80.15    5.51   0
  -4  -6   3   19.20    5.56   0
  -4  -6   3   22.51    4.00   0
  -3  -6   3   63.37    5.44   0
  -3  -6   3   78.28    4.29   0
  -2  -6   3   69.39    4.11   0
  -2  -6   3   60.26    5.47   0
  -1  -6   3   70.89    6.23   0
  -1  -6   3   54.36    5.83   0
   0  -6   3   96.87    4.43   0
   0  -6   3   87.42    5.27   0
  -1   6  -3   76.98    5.84   0
   1  -6   3   68.12    4.95   0
   1  -6   3   63.85    5.52   0
   2  -6   3  165.20    5.46   0
  -2   6  -3  171.63    5.90   0
   2  -6   3  146.66    4.50   0
  -3   6  -3   -4.72    4.79   0
   3  -6   3   -3.56    4.60   0
   3  -6   3   14.79    4.89   0
  -4   6  -3   20.47    5.32   0
   4  -6   3   15.99    4.59   0
   4  -6   3    5.50    4.76   0
  -8  -5   3    0.37    4.96   0
  -8  -5   3  -14.24    5.08   0
  -7  -5   3  199.71    5.53   0
  -7  -5   3  232.54    6.04   0
  -6  -5   3    1.81    5.17   0
  -6  -5   3    1.01    4.98   0
  -5  -5   3   74.51    5.48   0
  -4  -5   3 1099.41    9.97   0
  -3  -5   3   62.74    5.61   0
  -2  -5   3   40.19    4.42   0
  -1  -5   3  104.97    5.26   0
  -1  -5   3  119.17    4.54   0
   0   5  -3   83.45    7.08   0
   0  -5   3   87.91    5.72   0
   0  -5   3   56.40    4.56   0
   1  -5   3  150.04    5.91   0
   1  -5   3  169.26    5.10   0
  -1   5  -3  174.50    6.46   0
   2  -5   3  109.51    5.70   0
  -2   5  -3  110.35    5.49   0
   2  -5   3  102.65    4.63   0
   3  -5   3  112.86    4.56   0
  -3   5  -3  116.92    4.85   0
   3  -5   3  108.57    4.72   0
   4  -5   3   54.94    5.10   0
   4  -5   3   62.79    5.20   0
  -4   5  -3   76.65    5.28   0
   5  -5   3   26.10    5.25   0
   5  -5   3   27.94    5.21   0
  -5   5  -3   32.93    4.65   0
  -8  -4   3   33.94    5.98   0
  -8  -4   3   28.37    5.39   0
  -7  -4   3  106.25    5.89   0
  -7  -4   3   96.17    6.09   0
  -6  -4   3  180.06    6.41   0
  -5  -4   3  471.05    7.61   0
   4   4  -3    7.05    4.84   0
  -4  -4   3    2.83    5.64   0
   3   4  -3  546.52    9.88   0
  -3  -4   3  535.77    8.17   0
   2   4  -3  932.34   17.96   0
  -2  -4   3  856.70    8.14   0
   1   4  -3  114.39   12.88   0
  -1  -4   3   98.39    6.08   0
   0  -4   3    9.88    3.99   0
   0   4  -3    4.02    5.03   0
   1  -4   3   11.30    5.28   0
   1  -4   3    9.46    5.42   0
  -1   4  -3   17.08    5.22   0
   2  -4   3   19.40    5.33   0
   2  -4   3   30.36    3.99   0
  -2   4  -3   30.96    4.12   0
   3  -4   3  100.80    5.64   0
   3  -4   3  126.04    5.61   0
  -3   4  -3  113.96    5.16   0
   4  -4   3    8.00    5.45   0
  -4   4  -3   12.30    4.40   0
   4  -4   3   14.54    5.38   0
  -5   4  -3    8.66    3.85   0
   5  -4   3    6.61    5.05   0
   5  -4   3    5.99    5.81   0
   6  -4   3    3.92    6.64   0
   6  -4   3    2.75    6.42   0
  -6   4  -3    9.07    5.01   0
  -8  -3   3   20.87    5.94   0
  -8  -3   3   21.67    5.84   0
  -7  -3   3    7.06    5.02   0
  -7  -3   3    5.73    5.71   0
   6   3  -3   66.91    5.22   0
  -6  -3   3   55.24    5.48   0
  -6  -3   3   68.98    5.44   0
  -5  -3   3  357.67    6.86   0
   5   3  -3  377.61    6.24   0
  -5  -3   3  419.58    6.40   0
   4   3  -3   58.53    5.50   0
  -4  -3   3   52.96    4.18   0
   3   3  -3   10.34    5.37   0
  -3  -3   3   10.02    5.55   0
   2   3  -3   29.50    5.67   0
  -2  -3   3   24.06    4.64   0
  -1  -3   3  428.80    8.41   0
   0  -3   3  297.07    7.57   0
  -1   3  -3  707.29   10.29   0
   1  -3   3  692.12    8.93   0
   2  -3   3   23.44    5.43   0
  -2   3  -3   18.39    5.45   0
   2  -3   3   22.27    5.53   0
   3  -3   3  123.13    4.57   0
   3  -3   3  136.69    5.94   0
  -3   3  -3  135.51    5.79   0
   4  -3   3    6.94    5.33   0
  -4   3  -3   -5.70    5.04   0
   4  -3   3    9.38    6.32   0
   5  -3   3   17.74    5.02   0
  -5   3  -3   29.87    4.58   0
   5  -3   3   16.74    5.71   0
  -6   3  -3  177.92    5.72   0
  -7   3  -3   21.68    4.44   0
  -8  -2   3   44.81    8.80   0
  -8  -2   3  122.03    8.54   0
  -7  -2   3   15.96    6.65   0
  -7  -2   3    1.58    5.76   0
  -6  -2   3  309.04    7.67   0
   6   2  -3  353.65    5.94   0
  -6  -2   3  352.63    6.53   0
  -5  -2   3  414.72    7.72   0
  -5  -2   3  459.19    6.45   0
   5   2  -3  472.34    7.76   0
   5   2  -3  469.88    7.48   0
  -4  -2   3  257.27    6.92   0
   4   2  -3  275.46    6.43   0
   4   2  -3  280.81    5.73   0
   3   2  -3  358.06    7.63   0
   3   2  -3  368.56    7.74   0
  -3  -2   3  326.55    6.53   0
  -2  -2   3   21.92    5.99   0
   2   2  -3   23.04    6.20   0
   2   2  -3   33.33    6.25   0
  -1  -2   3   25.93    4.93   0
   1   2  -3   25.06    6.34   0
   0   2  -3 1791.71   13.70   0
   0  -2   3 1687.01   13.58   0
   1  -2   3 1303.40   12.20   0
   2  -2   3  179.92    7.08   0
   3  -2   3  254.66    7.14   0
   3  -2   3  236.87    6.91   0
  -3   2  -3  270.30    6.67   0
   4  -2   3  108.93    6.80   0
   4  -2   3  112.42    6.21   0
  -4   2  -3  103.38    4.84   0
   5  -2   3    3.72    6.84   0
  -5   2  -3   10.48    5.33   0
   5  -2   3    6.17    6.66   0
  -6   2  -3   96.58    5.72   0
  -7   2  -3   33.62    4.81   0
  -7  -1   3  279.56    9.58   0
   6   1  -3  115.21    5.70   0
  -6  -1   3  115.17    6.27   0
  -6  -1   3  117.40    5.81   0
   6   1  -3  115.99    6.77   0
   5   1  -3  363.88    8.11   0
   5   1  -3  381.56    6.05   0
  -5  -1   3  344.80    7.83   0
  -5  -1   3  364.94    6.10   0
   4   1  -3  504.11    7.79   0
   4   1  -3  478.50    7.90   0
  -4  -1   3  402.10    7.72   0
  -4  -1   3  486.50    6.70   0
   3   1  -3  130.00    6.04   0
   3   1  -3  114.48    6.32   0
  -3  -1   3  115.83    5.00   0
   2   1  -3 1696.20   12.54   0
   2   1  -3 1755.43   13.47   0
  -2  -1   3 1564.93   13.13   0
  -1  -1   3    3.78    5.31   0
   1   1  -3   10.72    7.24   0
   0  -1   3   41.31    7.65   0
   0   1  -3   42.68    5.85   0
  -1   1  -3 1251.92   13.39   0
   1  -1   3 1135.24   11.84   0
  -2   1  -3  320.04    7.45   0
   2  -1   3  292.36    8.68   0
   3  -1   3  782.79   11.81   0
  -4   1  -3  146.84    6.08   0
   4  -1   3  120.64    7.64   0
   4  -1   3  118.31    7.60   0
  -5   1  -3  316.18    7.04   0
  -6   1  -3   42.54    4.04   0
  -7   1  -3   86.67    4.09   0
  -8   1  -3   38.95    4.57   0
  -7   0   3  197.17    9.95   0
   7   0  -3  246.86    5.21   0
   6   0  -3 1239.83    8.86   0
  -6   0   3 1151.94   13.61   0
   6   0  -3 1206.66   13.38   0
   5   0  -3  212.18    6.18   0
   5   0  -3  202.29    7.71   0
  -5   0   3  206.44    7.34   0
  -5   0   3  224.97    5.37   0
   4   0  -3  855.17    9.81   0
   4   0  -3  887.65    7.77   0
  -4   0   3  803.84    9.81   0
   3   0  -3  283.26    5.75   0
   3   0  -3  286.70    7.25   0
  -3   0   3  276.73    7.42   0
  -2   0   3  710.64   10.18   0
   2   0  -3  803.72   10.28   0
   2   0  -3  783.96    9.66   0
  -1   0   3  580.28    9.90   0
   1   0  -3  614.55    9.15   0
   0   0   3  338.32    9.84   0
   0   0  -3  355.40    9.28   0
   1   0   3  623.65   10.05   0
  -1   0  -3  680.24   11.39   0
   2   0   3 6512.34   30.63   0
  -2   0  -3 6942.84   31.43   0
   3   0   3  548.56   11.42   0
  -3   0  -3  579.60   11.71   0
   4   0   3  235.35   11.65   0
  -5   0  -3  239.23    6.72   0
  -6   0  -3   15.14    3.63   0
  -7   0  -3   40.69    5.47   0
  -8   0  -3   14.55    4.40   0
  -7   1   3   11.75    7.89   0
  -6   1   3   48.94    6.70   0
   6  -1  -3   51.24    5.99   0
   6  -1  -3   62.04    4.88   0
   5  -1  -3 1104.53   12.03   0
  -5   1   3 1058.69   12.63   0
   5  -1  -3 1133.81    8.41   0
   4  -1  -3   21.10    5.10   0
   4  -1  -3   20.42    3.92   0
  -4   1   3   14.33    5.42   0
   3  -1  -3  160.22    5.07   0
   3  -1  -3  137.50    5.80   0
  -3   1   3  125.69    6.19   0
   2  -1  -3    9.48    6.09   0
  -2   1   3   16.98    6.24   0
   2  -1  -3   24.77    6.50   0
   1  -1  -3  888.65   10.94   0
  -1   1   3  896.74   10.06   0
   0  -1  -3  742.10   11.14   0
   0   1   3  724.88   10.89   0
   1   1   3 7344.24   28.39   0
  -1  -1  -3 7749.95   29.04   0
  -2  -1  -3   30.49    7.00   0
   2   1   3   25.48    5.66   0
  -3  -1  -3  347.48   10.64   0
   3   1   3  325.07   10.64   0
   4   1   3  176.54    9.95   0
  -4  -1  -3  185.53    9.74   0
  -6  -1  -3    2.11    3.94   0
  -7  -1  -3   11.80    5.05   0
  -8  -1  -3    1.25    3.51   0
  -9  -1  -3  171.18    5.09   0
   6  -2  -3   -5.56    4.80   0
   6  -2  -3   -1.34    5.36   0
  -6   2   3    4.19    5.04   0
  -5   2   3 1018.96   11.85   0
   5  -2  -3 1080.43    9.54   0
   5  -2  -3 1062.98   11.74   0
  -4   2   3 1754.24   13.72   0
   4  -2  -3 1835.50   10.91   0
   4  -2  -3 1763.33   14.18   0
   3  -2  -3  636.28    6.94   0
   3  -2  -3  592.20    8.38   0
  -3   2   3  574.67    8.57   0
  -2   2   3 1019.76   10.52   0
   2  -2  -3 1110.90    8.95   0
   2  -2  -3 1055.27   10.44   0
   1  -2  -3 1446.29   11.80   0
  -1   2   3 1267.65   10.77   0
   1  -2  -3 1360.31   11.70   0
   0   2   3    4.40    7.05   0
   0  -2  -3    4.88    6.43   0
   1   2   3  -10.44    7.48   0
  -1  -2  -3    9.92    5.18   0
  -2  -2  -3    2.31    5.35   0
   2   2   3   -3.29    7.17   0
   3   2   3  707.37   10.74   0
  -3  -2  -3  759.62   10.90   0
   4   2   3 1137.64   13.35   0
  -4  -2  -3 1237.24   13.83   0
  -5  -2  -3  389.40   10.41   0
   5   2   3  345.00   10.02   0
  -6  -2  -3   99.99    4.48   0
  -7  -2  -3  -14.58    5.03   0
  -8  -2  -3   95.80    4.97   0
  -9  -2  -3    4.45    4.05   0
   6  -3  -3   14.67    5.18   0
  -6   3   3    4.44    6.08   0
   6  -3  -3    5.73    5.67   0
  -5   3   3   29.65    5.76   0
   5  -3  -3   27.59    5.47   0
   5  -3  -3   21.36    3.89   0
  -4   3   3   -2.40    4.94   0
   4  -3  -3    3.17    5.41   0
   4  -3  -3   -2.76    5.30   0
   3  -3  -3 2546.39   14.42   0
   3  -3  -3 2871.14   13.52   0
  -3   3   3 2568.89   14.50   0
   2  -3  -3   51.66    6.01   0
  -2   3   3   43.84    4.06   0
   2  -3  -3   41.42    5.55   0
   1  -3  -3  170.52    6.53   0
  -1   3   3  179.55    5.31   0
   1  -3  -3  213.65    6.47   0
   0   3   3   -2.87    5.94   0
   0  -3  -3   -1.49    6.17   0
   1   3   3  396.08    8.74   0
  -1  -3  -3  396.23    8.29   0
   2   3   3   24.28    6.51   0
  -2  -3  -3   16.30    6.43   0
   3   3   3  102.01    6.78   0
  -3  -3  -3  105.25    6.93   0
   4   3   3  702.95    9.86   0
  -4  -3  -3  719.33    9.68   0
  -5  -3  -3   38.69    5.53   0
   5   3   3   35.27    5.16   0
  -6  -3  -3  113.79    6.58   0
  -7  -3  -3  571.62   15.27   0
  -7  -3  -3  637.26    7.88   0
  -7  -3  -3  613.34   15.31   0
  -8  -3  -3  197.41    4.82   0
  -9  -3  -3   -2.30    5.05   0
  -5   4   3   34.54    5.54   0
   5  -4  -3  -10.77    5.41   0
   5  -4  -3   26.24    5.24   0
  -4   4   3   48.99    5.53   0
   4  -4  -3   44.08    5.14   0
   4  -4  -3   51.07    3.86   0
  -3   4   3  847.38    9.21   0
   3  -4  -3  865.07    8.03   0
   3  -4  -3  910.68    9.53   0
  -2   4   3 2921.46   14.69   0
   2  -4  -3 2958.03   14.59   0
   2  -4  -3 3212.62   14.65   0
  -1   4   3  201.70    6.44   0
   1  -4  -3  184.77    6.24   0
   1  -4  -3  207.75    6.18   0
   0   4   3  722.60    8.61   0
   0  -4  -3  588.64    7.27   0
   0  -4  -3  711.86    8.32   0
   1   4   3    7.49    6.41   0
  -1  -4  -3   10.65    6.30   0
   2   4   3  629.34    9.12   0
  -2  -4  -3  658.49    8.05   0
  -3  -4  -3  126.84    6.35   0
   3   4   3  121.17    6.46   0
  -4  -4  -3  101.56    4.86   0
   4   4   3   99.60    4.65   0
  -5  -4  -3  213.16    6.40   0
   5   4   3  205.39    6.18   0
  -6  -4  -3  108.69    5.93   0
  -7  -4  -3   40.88    5.66   0
  -7  -4  -3   35.98    4.86   0
  -8  -4  -3   -6.59    5.41   0
  -8  -4  -3    0.16    6.36   0
  -8  -4  -3    2.09    6.90   0
  -9  -4  -3   34.21    5.19   0
  -4   5   3    3.83    4.74   0
   4  -5  -3   11.14    4.51   0
   4  -5  -3    0.98    5.07   0
  -3   5   3   69.51    5.48   0
   3  -5  -3   65.13    5.51   0
   3  -5  -3   66.87    5.91   0
  -2   5   3   94.10    4.35   0
   2  -5  -3   98.73    5.31   0
   2  -5  -3   86.18    5.15   0
   1  -5  -3 1219.93    9.83   0
  -1   5   3 1222.32    9.28   0
   1  -5  -3 1367.19   10.13   0
   0   5   3  439.64    7.38   0
   0  -5  -3  476.69    6.36   0
   0  -5  -3  495.80    6.83   0
   1   5   3  265.16    6.89   0
  -1  -5  -3  281.71    7.00   0
   2   5   3  624.56    7.90   0
  -2  -5  -3  630.72    8.30   0
   3   5   3  419.49    7.37   0
  -3  -5  -3  419.81    7.35   0
   4   5   3    8.88    3.96   0
  -4  -5  -3   14.57    5.61   0
  -5  -5  -3  184.23    4.98   0
   5   5   3  169.09    5.91   0
  -6  -5  -3  108.19    5.64   0
  -7  -5  -3    7.31    5.45   0
  -7  -5  -3   -2.45    4.90   0
  -8  -5  -3    1.00    6.26   0
  -8  -5  -3    6.71    4.75   0
  -8  -5  -3    4.67    6.08   0
  -9  -5  -3    2.32    6.62   0
  -9  -5  -3    5.07    5.90   0
  -9  -5  -3    8.15    3.64   0
 -10  -5  -3    5.28    5.12   0
   3  -6  -3    9.64    5.31   0
   3  -6  -3   -8.90    5.06   0
  -3   6   3    6.45    4.91   0
  -2   6   3    9.55    3.80   0
   2  -6  -3   18.85    4.86   0
   2  -6  -3   12.01    5.11   0
   1  -6  -3  311.20    6.73   0
   1  -6  -3  294.51    6.34   0
  -1   6   3  287.47    5.28   0
   0   6   3 2074.25   12.05   0
   0  -6  -3 2174.70   12.38   0
   0  -6  -3 2181.14   13.53   0
  -1  -6  -3  101.38    6.28   0
   1   6   3  109.69    4.82   0
  -1  -6  -3  100.57    5.62   0
  -2  -6  -3  137.42    4.76   0
   2   6   3  163.98    6.02   0
   3   6   3   27.62    5.44   0
  -3  -6  -3   30.92    5.75   0
  -4  -6  -3   16.65    4.28   0
   4   6   3    6.92    4.33   0
  -5  -6  -3   19.20    4.05   0
   5   6   3   15.19    4.93   0
  -6  -6  -3   28.25    5.56   0
  -7  -6  -3   33.39    5.19   0
  -7  -6  -3   33.12    5.34   0
  -8  -6  -3    7.85    4.59   0
  -8  -6  -3   16.72    5.45   0
  -9  -6  -3    2.30    5.12   0
  -9  -6  -3   -2.00    3.73   0
  -9  -6  -3    6.00    6.06   0
  -2   7   3   63.76    5.08   0
   2  -7  -3   92.12    5.62   0
   2  -7  -3   95.11    5.38   0
   1  -7  -3   -0.36    4.68   0
   1  -7  -3    5.85    3.78   0
  -1   7   3   18.00    5.01   0
   0   7   3   57.55    5.58   0
   0  -7  -3   58.52    5.70   0
   0  -7  -3   77.38    5.75   0
   1   7   3  477.83    7.41   0
  -1  -7  -3  456.44    6.23   0
  -1  -7  -3  505.13    8.30   0
   2   7   3  501.44    6.29   0
  -2  -7  -3  542.45    8.88   0
  -2  -7  -3  550.33    7.59   0
   3   7   3   78.70    4.05   0
  -3  -7  -3   97.53    4.92   0
  -4  -7  -3  105.77    4.81   0
   4   7   3  119.50    6.19   0
   5   7   3    7.22    5.17   0
  -5  -7  -3   10.40    5.61   0
  -6  -7  -3  211.03    5.23   0
  -7  -7  -3   30.76    3.59   0
  -7  -7  -3   23.69    5.21   0
  -8  -7  -3   -8.40    4.98   0
  -8  -7  -3   -0.35    5.05   0
  -9  -7  -3   28.15    3.84   0
  -9  -7  -3   37.75    4.95   0
  -9  -7  -3   62.09    5.18   0
   1  -8  -3   -1.67    4.95   0
   1  -8  -3   -3.20    3.64   0
  -1   8   3   -0.49    4.05   0
   0  -8  -3    5.20    4.55   0
   0  -8  -3   -9.72    5.02   0
   0   8   3   28.20    3.79   0
  -1  -8  -3  149.43    4.65   0
  -1  -8  -3  138.20    6.25   0
   1   8   3  153.74    5.23   0
  -2  -8  -3  441.39    6.89   0
  -2  -8  -3  443.52    8.84   0
   2   8   3  449.52    6.96   0
  -3  -8  -3   25.94    5.35   0
  -3  -8  -3   26.31    4.91   0
   3   8   3    7.41    5.27   0
  -4  -8  -3  118.78    4.53   0
   4   8   3  123.59    4.39   0
  -5  -8  -3   82.63    4.43   0
   5   8   3   72.58    4.69   0
  -6  -8  -3    5.77    4.40   0
  -7  -8  -3   10.83    5.34   0
  -7  -8  -3   12.81    4.76   0
  -8  -8  -3    2.99    4.68   0
  -8  -8  -3   13.57    4.60   0
  -9  -8  -3    4.32    4.92   0
  -9  -8  -3   10.84    4.86   0
  -9  -8  -3   -3.42    4.89   0
   0  -9  -3   83.15    5.59   0
   0  -9  -3   88.88    5.82   0
   1   9   3   -1.79    5.22   0
  -1  -9  -3   -2.33    3.91   0
  -1  -9  -3    0.62    5.28   0
  -2  -9  -3   -3.54    5.24   0
  -2  -9  -3    4.19    5.36   0
   2   9   3   -7.16    3.72   0
  -3  -9  -3  137.33    5.80   0
  -3  -9  -3  119.62    7.40   0
   3   9   3  124.63    5.75   0
  -4  -9  -3  138.99    5.96   0
  -4  -9  -3  114.74    7.50   0
  -5  -9  -3   11.07    4.91   0
  -6  -9  -3    1.13    3.88   0
  -7  -9  -3    7.51    5.19   0
  -7  -9  -3    2.57    5.31   0
  -8  -9  -3   38.60    5.69   0
  -8  -9  -3   30.89    4.99   0
  -2 -10  -3   12.08    6.08   0
  -3 -10  -3   86.30    5.47   0
  -3 -10  -3   38.30    6.88   0
  -4 -10  -3   49.35    5.65   0
  -4 -10  -3   36.16    6.88   0
  -5 -10  -3   34.67    4.21   0
  -5 -10  -3   26.59    8.04   0
  -6 -10  -3   28.62    5.36   0
  -6 -10  -3   18.46    7.01   0
  -7 -10  -3   -2.78    5.18   0
  -7 -10  -3    0.93    6.11   0
  -5  -9   4   12.87    5.05   0
  -5  -9   4    9.72    3.93   0
  -4  -9   4  274.40    5.79   0
  -4  -9   4  309.92    6.70   0
  -3  -9   4   77.64    4.15   0
  -3  -9   4   86.15    5.52   0
  -2  -9   4   22.62    4.78   0
  -2  -9   4   13.19    5.05   0
  -1  -9   4   17.05    5.31   0
  -1  -9   4   17.56    5.26   0
  -7  -8   4   23.47    3.98   0
  -6  -8   4   48.42    4.01   0
  -6  -8   4   28.60    5.08   0
  -5  -8   4   13.08    5.10   0
  -5  -8   4   -6.21    3.82   0
  -4  -8   4  295.36    5.38   0
  -4  -8   4  309.30    5.64   0
  -3  -8   4    9.95    3.67   0
  -3  -8   4   10.07    4.53   0
  -2  -8   4   -3.15    3.99   0
  -2  -8   4   -9.26    3.92   0
  -1  -8   4    5.10    4.05   0
  -1  -8   4   26.40    5.10   0
   0  -8   4   27.95    4.65   0
   0  -8   4   13.19    3.86   0
   1  -8   4   -6.75    5.04   0
   1  -8   4   -1.19    5.11   0
  -7  -7   4   14.77    4.96   0
  -7  -7   4    8.69    3.80   0
  -6  -7   4  115.47    4.89   0
  -6  -7   4  113.41    5.09   0
  -5  -7   4  117.51    4.80   0
  -5  -7   4   97.41    5.89   0
  -4  -7   4   -4.64    5.51   0
  -4  -7   4    8.54    5.10   0
  -3  -7   4  -11.90    5.23   0
  -3  -7   4    3.66    5.23   0
  -2  -7   4  842.29    8.45   0
  -2  -7   4  807.40    8.21   0
  -1  -7   4    2.92    3.93   0
  -1  -7   4    7.09    5.13   0
   0  -7   4    3.81    4.01   0
   0  -7   4   -4.12    5.51   0
   1  -7   4   12.17    3.67   0
   1  -7   4   16.61    5.19   0
   2  -7   4    0.77    3.63   0
   2  -7   4   -1.46    4.86   0
   3  -7   4    2.70    5.03   0
   3  -7   4   -4.03    3.55   0
  -3   7  -4   -0.07    4.79   0
  -8  -6   4   30.88    5.32   0
  -8  -6   4   30.83    5.33   0
  -7  -6   4    7.76    4.51   0
  -7  -6   4    8.39    4.64   0
  -6  -6   4   52.19    5.26   0
  -6  -6   4   45.61    4.17   0
  -5  -6   4  237.40    6.99   0
  -4  -6   4   47.83    4.32   0
  -3  -6   4   65.94    5.62   0
  -2  -6   4  209.04    4.82   0
  -2  -6   4  243.27    4.86   0
  -1  -6   4  281.81    6.68   0
  -1  -6   4  264.14    6.40   0
   0  -6   4  302.29    6.52   0
   0  -6   4  282.89    6.72   0
  -1   6  -4   58.88    6.13   0
   1  -6   4   43.96    5.06   0
   1  -6   4   38.10    5.09   0
   2  -6   4  184.10    4.79   0
   2  -6   4  193.26    6.08   0
  -2   6  -4  229.58    6.67   0
   3  -6   4    5.73    4.60   0
  -3   6  -4   -0.09    5.05   0
   3  -6   4   -4.16    4.93   0
   4  -6   4    0.14    4.88   0
   4  -6   4    1.75    4.94   0
  -4   6  -4    0.29    4.56   0
  -8  -5   4    9.37    4.08   0
  -8  -5   4   14.44    4.75   0
  -7  -5   4   77.17    4.43   0
  -6  -5   4   11.99    4.74   0
  -5  -5   4   63.89    5.03   0
  -4  -5   4  854.39    9.05   0
  -3  -5   4  351.09    6.05   0
  -2  -5   4    4.93    5.42   0
  -1  -5   4  252.00    6.47   0
   0  -5   4  392.96    7.45   0
   0   5  -4  419.40   10.53   0
   0  -5   4  370.65    7.32   0
   1  -5   4   -0.03    5.63   0
  -1   5  -4    3.31    5.15   0
   1  -5   4    3.22    5.46   0
   2  -5   4  203.13    6.07   0
  -2   5  -4  271.75    6.85   0
   2  -5   4  238.81    5.25   0
  -3   5  -4   -0.45    4.87   0
   3  -5   4    0.89    5.29   0
   3  -5   4    1.33    3.66   0
  -4   5  -4    3.49    5.07   0
   4  -5   4   -0.31    4.93   0
   4  -5   4    4.41    4.27   0
   5  -5   4   20.48    5.28   0
   5  -5   4   12.61    4.65   0
  -5   5  -4   15.76    4.27   0
  -8  -4   4    6.54    5.59   0
  -8  -4   4    7.11    5.51   0
  -7  -4   4   55.62    5.29   0
   6   4  -4   -0.34    5.16   0
  -6  -4   4   -4.41    4.99   0
   5   4  -4    3.48    3.67   0
  -5  -4   4    6.80    4.07   0
  -4  -4   4  225.56    6.55   0
   4   4  -4  248.39    6.72   0
  -3  -4   4  932.75    8.34   0
   3   4  -4  994.28   11.52   0
   2   4  -4   27.03    6.07   0
  -2  -4   4   32.66    4.39   0
  -1  -4   4  764.63    7.83   0
   0  -4   4   57.23    5.85   0
   1  -4   4  178.36    4.75   0
  -1   4  -4  199.38    6.64   0
   2  -4   4  133.03    5.74   0
  -2   4  -4  148.15    5.65   0
   2  -4   4  111.72    5.67   0
  -3   4  -4  111.94    4.45   0
   3  -4   4  108.59    5.48   0
   3  -4   4  100.98    5.38   0
   4  -4   4  115.59    6.19   0
   4  -4   4  118.33    6.27   0
  -4   4  -4  136.03    5.65   0
   5  -4   4   62.60    5.79   0
   5  -4   4   66.44    5.61   0
  -5   4  -4   68.53    5.33   0
   6  -4   4   32.49    6.47   0
   6  -4   4   43.95    7.11   0
  -6   4  -4   55.73    5.24   0
  -8  -3   4    3.91    5.42   0
  -7  -3   4   10.78    5.23   0
  -6  -3   4   25.89    5.06   0
   6   3  -4   23.53    4.38   0
  -5  -3   4 1082.23    9.59   0
   5   3  -4 1240.08   10.31   0
   4   3  -4   -0.08    5.11   0
   4   3  -4    2.49    5.11   0
  -4  -3   4    4.38    5.39   0
  -3  -3   4   17.84    4.09   0
   3   3  -4   17.56    3.78   0
   3   3  -4   11.64    5.58   0
   2   3  -4 2670.93   13.75   0
  -2  -3   4 2402.90   12.66   0
   2   3  -4 2747.34   18.10   0
  -1  -3   4 1993.43   11.98   0
   1   3  -4 2202.40   12.21   0
   0  -3   4  567.62    8.56   0
   1  -3   4   20.07    5.21   0
   2  -3   4    7.35    5.10   0
   3  -3   4  177.29    6.34   0
  -3   3  -4  182.93    6.05   0
   3  -3   4  176.48    6.20   0
   4  -3   4  456.40    8.21   0
   4  -3   4  462.73    8.46   0
  -4   3  -4  484.93    7.26   0
   5  -3   4    3.86    4.55   0
  -5   3  -4    0.55    4.61   0
   5  -3   4   -0.96    4.46   0
   6  -3   4    8.78    7.63   0
   6  -3   4   10.08    7.53   0
  -6   3  -4   12.47    5.09   0
  -7   3  -4  -11.07    3.40   0
  -8  -2   4   -5.03    5.81   0
  -7  -2   4   95.71    6.71   0
   7   2  -4  119.65    5.22   0
  -6  -2   4    8.29    5.53   0
   6   2  -4   14.67    5.09   0
   6   2  -4    6.71    5.60   0
   5   2  -4   12.79    5.34   0
  -5  -2   4   11.26    4.99   0
   5   2  -4   13.28    5.21   0
   4   2  -4   44.94    4.09   0
  -4  -2   4   37.71    5.43   0
   4   2  -4   43.22    5.26   0
  -3  -2   4  279.66    5.68   0
   3   2  -4  309.88    6.74   0
   3   2  -4  313.47    6.96   0
   2   2  -4  917.55    8.40   0
   2   2  -4  955.21   10.39   0
  -2  -2   4  818.62    8.38   0
  -1  -2   4 1464.01   12.03   0
   1   2  -4 1443.79   11.04   0
   0  -2   4  116.17    7.08   0
   0   2  -4  134.55    7.09   0
   1  -2   4    7.13    4.32   0
  -1   2  -4   23.34    5.91   0
   2  -2   4 1005.46   10.40   0
   3  -2   4    7.44    4.95   0
  -4   2  -4   44.63    5.47   0
   4  -2   4   35.18    6.21   0
   4  -2   4   33.95    5.32   0
   5  -2   4   90.48    6.98   0
   5  -2   4   91.60    7.46   0
  -5   2  -4  102.22    4.27   0
  -6   2  -4  146.27    5.86   0
  -7   2  -4    9.77    5.19   0
   7   1  -4  104.76    4.43   0
  -7  -1   4   83.66    6.33   0
   6   1  -4   -2.59    5.13   0
   6   1  -4   -0.14    5.43   0
  -6  -1   4   -1.21    5.71   0
   5   1  -4   11.82    4.68   0
   5   1  -4   -2.52    5.29   0
  -5  -1   4    4.34    5.10   0
   4   1  -4  527.30    7.90   0
   4   1  -4  474.19    7.57   0
  -4  -1   4  454.97    7.55   0
   3   1  -4 1861.50   12.00   0
  -3  -1   4 1615.06   12.14   0
   3   1  -4 1764.14   12.19   0
  -2  -1   4 1002.51    9.25   0
   2   1  -4 1076.93    9.51   0
   2   1  -4 1189.58   10.77   0
   1   1  -4  290.15    7.79   0
  -1  -1   4  287.58    6.37   0
   0  -1   4  613.55    9.97   0
   0   1  -4  671.95    9.85   0
  -1   1  -4 6911.99   24.40   0
   1  -1   4 6214.72   23.29   0
  -2   1  -4 1025.30   11.24   0
   2  -1   4  999.98   11.03   0
   3  -1   4  589.22    9.56   0
  -3   1  -4  693.11   10.08   0
   4  -1   4    5.28    5.49   0
   5  -1   4  263.33    9.89   0
   5  -1   4  281.37   10.53   0
  -5   1  -4  316.15    6.92   0
  -6   1  -4  359.67    5.83   0
  -7   1  -4    7.89    5.05   0
  -8   1  -4   18.53    4.42   0
   7   0  -4  -13.43    4.29   0
   7   0  -4   -0.77    5.68   0
  -7   0   4    6.22    5.73   0
   6   0  -4   26.64    4.87   0
   6   0  -4   12.30    5.69   0
  -6   0   4   14.43    5.52   0
  -5   0   4  316.10    7.74   0
   5   0  -4  356.14    7.64   0
   5   0  -4  355.34    6.84   0
   4   0  -4   37.30    5.36   0
   4   0  -4   36.44    5.34   0
  -4   0   4   29.91    5.41   0
   3   0  -4  410.58    6.06   0
  -3   0   4  388.34    7.65   0
   3   0  -4  388.13    7.31   0
   2   0  -4   39.77    5.63   0
  -2   0   4   43.92    6.06   0
   2   0  -4   41.55    4.39   0
  -1   0   4  534.68    8.98   0
   1   0  -4  607.26    7.93   0
   0   0   4 3278.64   17.60   0
   0   0  -4 3264.38   17.48   0
   1   0   4  207.80    6.63   0
  -1   0  -4  221.88    6.44   0
   2   0   4  228.54    7.67   0
  -2   0  -4  248.76    6.75   0
   3   0   4   99.85    7.00   0
  -3   0  -4  110.17    7.04   0
  -4   0  -4   -1.65    6.72   0
   4   0   4    3.98    5.13   0
   5   0   4  259.68   12.03   0
  -6   0  -4  105.25    5.66   0
  -7   0  -4    4.11    4.80   0
  -8   0  -4  138.78    5.97   0
  -7   1   4    7.93    7.02   0
   7  -1  -4   19.79    6.66   0
   7  -1  -4   40.18    4.96   0
  -6   1   4  128.59    6.56   0
   6  -1  -4  148.44    4.91   0
   6  -1  -4  142.41    6.42   0
   5  -1  -4   31.32    5.46   0
   5  -1  -4   28.10    4.04   0
  -5   1   4   29.82    6.54   0
  -4   1   4  959.24   10.18   0
   4  -1  -4 1065.24    8.97   0
   4  -1  -4  957.40   10.05   0
   3  -1  -4  377.24    7.30   0
   3  -1  -4  387.37    7.19   0
  -3   1   4  367.24    7.31   0
   2  -1  -4  912.26    9.61   0
   2  -1  -4  963.99    9.64   0
  -2   1   4  893.56    9.55   0
   1  -1  -4 6318.59   21.53   0
  -1   1   4 5928.42   21.49   0
   0  -1  -4 2014.18   13.19   0
   0   1   4 1946.83   13.22   0
  -1  -1  -4    3.95    7.07   0
   1   1   4   -0.13    7.32   0
  -2  -1  -4 1714.11   13.28   0
   2   1   4 1613.86   13.67   0
   3   1   4   85.55    6.99   0
  -3  -1  -4   90.26    7.04   0
   4   1   4  115.70    6.86   0
  -4  -1  -4  110.56    6.85   0
   5   1   4  196.80    8.77   0
  -5  -1  -4  201.14    8.80   0
  -6  -1  -4   17.47    5.21   0
  -7  -1  -4  157.08    5.74   0
  -8  -1  -4  229.47    5.86   0
  -9  -1  -4   -1.47    3.82   0
  -6   2   4   -5.57    5.98   0
   6  -2  -4    5.14    5.23   0
   6  -2  -4    1.95    3.65   0
  -5   2   4   14.88    5.12   0
   5  -2  -4   24.45    5.63   0
   5  -2  -4   27.93    5.17   0
   4  -2  -4  201.48    4.79   0
  -4   2   4  167.31    6.03   0
   4  -2  -4  180.92    6.18   0
   3  -2  -4   70.73    5.58   0
   3  -2  -4   63.87    5.71   0
  -3   2   4   65.16    5.44   0
   2  -2  -4  141.05    5.98   0
   2  -2  -4  170.41    6.19   0
  -2   2   4  157.40    6.16   0
   1  -2  -4  159.01    6.26   0
  -1   2   4  150.91    5.11   0
   1  -2  -4  152.65    6.98   0
   0   2   4  310.31    6.42   0
   0  -2  -4  326.02    7.78   0
  -1  -2  -4  263.69    8.16   0
   1   2   4  269.58    7.85   0
   2   2   4 1667.38   12.34   0
  -2  -2  -4 1748.91   13.32   0
   3   2   4 1047.59   11.25   0
  -3  -2  -4 1074.60   11.44   0
  -4  -2  -4  367.92    9.26   0
   4   2   4  353.25    8.31   0
  -5  -2  -4  146.03    6.89   0
   5   2   4  156.40    6.61   0
   6   2   4   23.22    7.41   0
  -6  -2  -4   21.97    7.86   0
  -7  -2  -4   69.54    4.34   0
  -8  -2  -4   -4.80    4.37   0
  -9  -2  -4  -11.32    4.91   0
  -6   3   4   -2.34    4.82   0
   6  -3  -4    2.05    5.25   0
   6  -3  -4  -21.02    3.96   0
  -5   3   4   17.08    6.44   0
   5  -3  -4    8.29    5.29   0
   5  -3  -4   18.36    5.77   0
  -4   3   4   81.78    5.96   0
   4  -3  -4   77.03    5.88   0
   4  -3  -4   95.17    4.45   0
   3  -3  -4  615.05    7.98   0
  -3   3   4  619.32    8.22   0
   3  -3  -4  673.77    7.05   0
   2  -3  -4  515.20    7.60   0
  -2   3   4  532.17    7.88   0
   2  -3  -4  585.51    6.79   0
  -1   3   4   78.90    5.91   0
   1  -3  -4   92.74    5.89   0
   1  -3  -4   58.42    4.51   0
   0  -3  -4   27.89    4.10   0
   0   3   4   34.35    5.77   0
   1   3   4 7687.40   23.34   0
  -1  -3  -4 8031.36   24.02   0
   2   3   4  344.38    8.05   0
  -2  -3  -4  350.48    6.60   0
   3   3   4  974.62   10.09   0
  -3  -3  -4 1004.57   10.32   0
   4   3   4    1.17    5.61   0
  -4  -3  -4    5.22    4.03   0
   5   3   4  210.78    6.59   0
  -5  -3  -4  209.65    6.75   0
   6   3   4  288.39    8.30   0
  -6  -3  -4  308.09    8.84   0
  -7  -3  -4   -0.32    7.33   0
  -7  -3  -4   15.67    5.35   0
  -8  -3  -4   -2.18    5.48   0
  -9  -3  -4    6.43    4.73   0
  -5   4   4   11.68    5.82   0
   5  -4  -4   12.09    4.87   0
   5  -4  -4    2.73    4.01   0
  -4   4   4   18.71    5.15   0
   4  -4  -4   30.68    4.56   0
   4  -4  -4   31.22    3.91   0
   3  -4  -4    3.36    5.40   0
  -3   4   4   15.40    5.34   0
   3  -4  -4    7.05    5.25   0
  -2   4   4  357.20    7.11   0
   2  -4  -4  410.15    6.73   0
   2  -4  -4  367.35    6.76   0
  -1   4   4    7.73    5.40   0
   1  -4  -4    6.05    5.33   0
   1  -4  -4   12.53    5.70   0
   0   4   4   27.93    5.79   0
   0  -4  -4   17.30    5.90   0
   1   4   4  190.51    6.58   0
  -1  -4  -4  198.25    5.22   0
  -2  -4  -4   56.39    4.74   0
   2   4   4   49.69    6.53   0
   3   4   4   58.96    4.43   0
  -3  -4  -4   53.60    5.93   0
   4   4   4  507.50    6.94   0
  -4  -4  -4  533.80    8.10   0
   5   4   4  298.10    6.64   0
  -5  -4  -4  288.08    7.06   0
   6   4   4   -2.18    5.05   0
  -6  -4  -4    2.46    5.39   0
  -7  -4  -4  503.28    9.93   0
  -8  -4  -4    4.26    3.71   0
  -8  -4  -4   -1.42    6.13   0
  -8  -4  -4    1.88    5.82   0
  -9  -4  -4   -7.53    5.09   0
  -4   5   4    3.41    5.18   0
   4  -5  -4    2.56    5.12   0
   4  -5  -4   15.42    3.51   0
  -3   5   4   17.86    4.79   0
   3  -5  -4   39.30    4.10   0
   3  -5  -4   21.82    3.60   0
  -2   5   4   78.16    5.39   0
   2  -5  -4   76.61    5.32   0
   2  -5  -4   73.22    4.04   0
  -1   5   4 1562.19   10.80   0
   1  -5  -4 1694.35   10.63   0
   1  -5  -4 1615.36   11.00   0
   0   5   4 1623.35   11.10   0
   0  -5  -4 1591.35   10.08   0
   0  -5  -4 1726.01   10.90   0
   1   5   4   26.15    4.13   0
  -1  -5  -4   18.85    5.49   0
   2   5   4  167.77    6.23   0
  -2  -5  -4  186.69    6.61   0
   3   5   4 1670.77   10.45   0
  -3  -5  -4 1743.93   10.52   0
   4   5   4  877.40    8.21   0
  -4  -5  -4 1005.41    9.52   0
   5   5   4   49.46    5.22   0
  -5  -5  -4   52.06    4.02   0
   6   5   4  398.86    7.22   0
  -6  -5  -4  403.99    7.18   0
  -7  -5  -4   52.98    5.35   0
  -8  -5  -4  152.78    5.81   0
  -8  -5  -4  116.28    7.01   0
  -9  -5  -4    4.05    5.93   0
  -9  -5  -4   11.16    4.87   0
  -9  -5  -4    2.55    5.80   0
 -10  -5  -4   -6.74    4.90   0
  -3   6   4   14.38    5.18   0
   3  -6  -4   15.33    3.79   0
   3  -6  -4   12.45    5.11   0
  -2   6   4    4.76    3.89   0
   2  -6  -4   30.73    5.05   0
   2  -6  -4   19.05    4.87   0
  -1   6   4   10.81    3.91   0
   1  -6  -4   26.49    4.96   0
   1  -6  -4   27.52    5.20   0
   0   6   4 1181.73    8.63   0
   0  -6  -4 1205.03    9.64   0
   0  -6  -4 1282.19   10.36   0
   1   6   4   16.17    4.39   0
  -1  -6  -4   13.68    4.41   0
  -1  -6  -4    2.05    4.87   0
   2   6   4   21.04    5.29   0
  -2  -6  -4   22.65    5.75   0
  -3  -6  -4   65.74    4.48   0
   3   6   4   40.25    4.10   0
  -4  -6  -4   34.71    5.73   0
   4   6   4   47.65    4.20   0
   5   6   4   44.94    5.57   0
  -5  -6  -4   46.09    5.32   0
  -6  -6  -4    4.76    4.17   0
   6   6   4   25.66    5.22   0
  -7  -6  -4   35.53    4.02   0
  -8  -6  -4   25.94    4.86   0
  -8  -6  -4   -1.31    5.17   0
  -9  -6  -4  104.00    6.00   0
  -9  -6  -4  108.22    5.81   0
  -9  -6  -4  108.52    6.71   0
 -10  -6  -4   -4.39    6.16   0
 -10  -6  -4    0.83    6.11   0
  -2   7   4   -5.68    4.13   0
   2  -7  -4   -8.60    4.99   0
   2  -7  -4   -6.88    4.72   0
  -1   7   4   16.93    5.18   0
   1  -7  -4   16.30    3.63   0
   1  -7  -4   12.29    3.90   0
   0   7   4  158.30    6.18   0
   0  -7  -4  140.87    4.74   0
   0  -7  -4  129.77    6.03   0
   1   7   4  680.40    7.99   0
  -1  -7  -4  677.82    7.81   0
  -1  -7  -4  636.47    9.12   0
  -2  -7  -4 2232.02   10.94   0
   2   7   4 2237.41   11.78   0
   3   7   4   33.63    5.14   0
  -3  -7  -4   29.10    5.13   0
   4   7   4  147.80    5.98   0
  -4  -7  -4  154.98    4.57   0
   5   7   4  153.66    4.60   0
  -5  -7  -4  171.20    6.43   0
  -6  -7  -4  167.16    4.42   0
   6   7   4  150.45    5.29   0
  -7  -7  -4   -0.99    4.54   0
  -8  -7  -4   45.44    5.20   0
  -8  -7  -4   31.55    5.26   0
  -9  -7  -4   10.22    4.94   0
  -9  -7  -4   12.16    4.37   0
   1  -8  -4   21.03    3.61   0
   1  -8  -4    9.32    5.16   0
  -1   8   4    9.97    4.84   0
   0   8   4   -6.71    5.11   0
   0  -8  -4    1.49    4.68   0
   0  -8  -4    2.22    5.03   0
   1   8   4   -5.26    3.75   0
  -1  -8  -4    9.17    3.86   0
  -1  -8  -4   10.14    4.86   0
   2   8   4  522.10    7.01   0
  -2  -8  -4  625.46    7.67   0
  -2  -8  -4  606.66    9.51   0
   3   8   4    2.03    5.19   0
  -3  -8  -4   19.19    4.95   0
  -4  -8  -4   21.41    3.91   0
   4   8   4    0.76    3.82   0
  -5  -8  -4   58.92    4.62   0
   5   8   4   50.46    5.61   0
  -6  -8  -4   -2.20    4.43   0
   6   8   4   -0.27    5.53   0
  -7  -8  -4    6.53    5.12   0
  -8  -8  -4    0.86    5.10   0
  -8  -8  -4   -8.81    4.83   0
  -9  -8  -4   11.17    5.29   0
  -9  -8  -4    8.67    5.25   0
  -1  -9  -4    5.80    3.67   0
  -1  -9  -4    0.56    4.28   0
   1   9   4   14.53    4.82   0
  -2  -9  -4  143.72    5.77   0
  -2  -9  -4  114.63    6.96   0
   2   9   4  110.12    5.27   0
  -3  -9  -4  465.25    7.02   0
  -3  -9  -4  477.51    9.54   0
   3   9   4  444.96    6.21   0
   4   9   4  838.73    7.64   0
  -4  -9  -4  915.89    8.38   0
  -5  -9  -4   -0.98    5.07   0
   5   9   4   22.54    3.94   0
  -6  -9  -4  -10.82    4.95   0
  -7  -9  -4  121.37    4.73   0
  -8  -9  -4   -0.97    4.26   0
  -8  -9  -4    3.72    5.35   0
  -3 -10  -4    3.19    3.60   0
   3  10   4   10.19    4.91   0
  -3 -10  -4   -3.40    5.76   0
  -4 -10  -4  120.75    5.18   0
   4  10   4  138.24    5.01   0
  -4 -10  -4  120.35    8.10   0
  -5 -10  -4    6.31    4.62   0
  -5 -10  -4   -1.18    5.34   0
  -6 -10  -4   54.92    4.22   0
  -7 -10  -4   -8.60    4.80   0
  -4  -9   5  273.53    5.80   0
  -4  -9   5  263.50    6.92   0
  -3  -9   5  208.82    5.16   0
  -3  -9   5  242.77    6.29   0
  -2  -9   5   51.36    5.52   0
  -2  -9   5   68.51    4.30   0
  -6  -8   5   -0.47    4.59   0
  -6  -8   5   -4.35    4.55   0
  -5  -8   5    7.59    4.82   0
  -5  -8   5    2.31    5.63   0
  -4  -8   5  195.63    6.17   0
  -4  -8   5  186.87    4.88   0
  -3  -8   5   41.53    3.88   0
  -3  -8   5    9.72    4.62   0
  -2  -8   5   10.22    5.30   0
  -2  -8   5    7.79    5.27   0
  -1  -8   5   17.26    3.94   0
  -1  -8   5    2.61    5.09   0
   0  -8   5  175.47    6.18   0
   0  -8   5  155.37    4.70   0
   1  -8   5    0.06    5.33   0
   1  -8   5    6.11    5.11   0
  -7  -7   5   32.85    4.57   0
  -7  -7   5    7.07    3.99   0
  -6  -7   5    3.00    5.33   0
  -6  -7   5   15.51    4.73   0
  -5  -7   5   57.21    5.33   0
  -5  -7   5   49.43    4.79   0
  -4  -7   5   37.09    3.70   0
  -4  -7   5   25.92    5.22   0
  -3  -7   5    8.92    5.16   0
  -3  -7   5    4.35    3.54   0
  -2  -7   5 1320.88   10.11   0
  -2  -7   5 1253.53    9.76   0
  -1  -7   5  936.80    8.86   0
  -1  -7   5  800.80    7.67   0
   0  -7   5  322.78    6.40   0
   0  -7   5  392.89    6.21   0
   1  -7   5  -12.94    5.24   0
   1  -7   5   -3.98    3.42   0
   2  -7   5   32.87    5.33   0
   2  -7   5    7.47    4.14   0
  -2   7  -5   32.96    5.35   0
   3  -7   5   -0.49    4.75   0
  -7  -6   5   10.14    4.28   0
  -7  -6   5    0.97    4.38   0
  -6  -6   5  107.97    5.94   0
  -5  -6   5    0.38    5.41   0
  -4  -6   5   72.34    4.51   0
  -3  -6   5   56.09    5.36   0
  -2  -6   5  121.81    4.40   0
  -1  -6   5   69.64    5.68   0
   0   6  -5  200.34    9.68   0
   0  -6   5  182.30    5.41   0
   0  -6   5  167.26    5.15   0
  -1   6  -5  238.00    7.81   0
   1  -6   5  227.09    6.18   0
   1  -6   5  204.11    5.68   0
   2  -6   5   32.25    5.27   0
  -2   6  -5   46.68    5.17   0
   2  -6   5   44.98    5.17   0
   3  -6   5   79.06    4.52   0
  -3   6  -5   78.74    5.92   0
   3  -6   5   62.91    5.25   0
   4  -6   5   53.10    4.78   0
   4  -6   5   60.16    5.19   0
  -4   6  -5   75.51    5.23   0
  -7  -5   5   19.49    5.12   0
  -6  -5   5   -4.94    4.88   0
  -5  -5   5   25.11    5.16   0
   5   5  -5   22.19    5.34   0
   4   5  -5   50.31    5.52   0
  -4  -5   5   50.01    5.64   0
   3   5  -5  109.90    7.35   0
  -3  -5   5  103.24    5.91   0
  -2  -5   5  181.76    4.61   0
   2   5  -5  197.07    9.67   0
  -1  -5   5   -0.33    3.61   0
   0  -5   5 2789.10   12.73   0
   0   5  -5 2974.33   22.62   0
   1  -5   5 1875.92   10.67   0
  -1   5  -5 2281.91   16.95   0
   1  -5   5 2109.79   11.40   0
  -2   5  -5  273.37    7.70   0
   2  -5   5  231.67    6.16   0
   2  -5   5  202.97    5.82   0
   3  -5   5   70.12    4.36   0
   3  -5   5   88.45    5.62   0
  -3   5  -5   92.54    5.52   0
   4  -5   5    2.03    4.95   0
  -4   5  -5    3.18    4.84   0
   4  -5   5    0.14    5.14   0
   5  -5   5   12.58    5.53   0
   5  -5   5    6.18    5.23   0
  -5   5  -5    3.73    4.26   0
  -7  -4   5   71.64    5.41   0
   6   4  -5   46.46    5.18   0
  -6  -4   5   44.47    5.25   0
   5   4  -5  142.14    5.95   0
  -5  -4   5  128.73    5.39   0
  -4  -4   5   91.51    5.84   0
   4   4  -5   95.16    5.48   0
  -3  -4   5  525.23    7.78   0
   3   4  -5  532.62    8.96   0
  -2  -4   5    4.14    4.37   0
   2   4  -5   12.81    5.80   0
  -1  -4   5   43.12    4.31   0
   0  -4   5   34.18    5.91   0
   1  -4   5  408.15    7.36   0
  -2   4  -5  971.26   10.12   0
   2  -4   5  902.21    9.33   0
   3  -4   5  150.96    5.62   0
  -3   4  -5  168.72    5.53   0
   3  -4   5  148.37    5.39   0
   4  -4   5   97.42    5.74   0
  -4   4  -5  118.90    5.43   0
   4  -4   5   93.51    5.61   0
   5  -4   5    8.86    5.37   0
  -5   4  -5    0.75    4.80   0
   5  -4   5   11.55    5.02   0
   6  -4   5    1.36    5.91   0
   6  -4   5    6.81    5.49   0
  -6   4  -5    1.17    4.51   0
  -7  -3   5   18.53    5.00   0
   7   3  -5   -3.56    3.57   0
  -6  -3   5  113.54    4.74   0
   6   3  -5  108.24    5.05   0
   5   3  -5   11.38    5.08   0
  -5  -3   5    9.53    5.05   0
   5   3  -5   15.20    4.51   0
   4   3  -5  420.96    7.17   0
  -4  -3   5  386.70    7.35   0
   4   3  -5  415.53    6.33   0
   3   3  -5   85.30    5.52   0
   3   3  -5   79.84    5.43   0
  -3  -3   5   54.09    4.39   0
  -2  -3   5  175.27    6.37   0
   2   3  -5  196.12    5.26   0
   2   3  -5  205.29    6.10   0
  -1  -3   5 1400.64   10.67   0
   1   3  -5 1529.97    9.87   0
   0   3  -5  397.90    7.08   0
   0  -3   5  388.24    6.08   0
   1  -3   5   -2.60    5.29   0
   2  -3   5 1903.49   12.28   0
   3  -3   5 3376.40   16.02   0
  -3   3  -5 3643.33   16.29   0
  -4   3  -5   19.48    3.77   0
   4  -3   5   10.51    5.15   0
   4  -3   5   13.47    5.59   0
   5  -3   5   12.05    5.77   0
  -5   3  -5   11.98    3.71   0
   5  -3   5    3.00    5.53   0
   6  -3   5    1.53    6.27   0
   6  -3   5    5.76    5.70   0
  -6   3  -5    7.06    4.85   0
  -7   3  -5    0.44    5.07   0
   7   2  -5   14.96    5.10   0
  -7  -2   5    4.41    4.78   0
  -6  -2   5   16.82    4.48   0
   6   2  -5    9.03    5.05   0
   6   2  -5   12.64    4.92   0
  -5  -2   5   79.26    5.80   0
   5   2  -5  105.84    5.58   0
   5   2  -5  103.55    5.36   0
   4   2  -5   32.52    4.13   0
  -4  -2   5   19.59    5.40   0
   4   2  -5   20.23    5.18   0
   3   2  -5 2373.01   12.23   0
   3   2  -5 2435.77   13.34   0
  -3  -2   5 2190.22   11.98   0
   2   2  -5  206.72    6.46   0
  -2  -2   5  182.56    5.03   0
   2   2  -5  206.71    6.63   0
   1   2  -5 1137.61    9.32   0
  -1  -2   5 1032.79    8.95   0
   0   2  -5  116.83    5.11   0
   0  -2   5  107.63    6.77   0
  -1   2  -5  111.49    5.87   0
   1  -2   5  105.90    6.10   0
   2  -2   5   -2.54    3.74   0
  -2   2  -5   -3.33    5.31   0
   3  -2   5   -3.76    5.45   0
   4  -2   5  104.91    5.65   0
   5  -2   5   62.32    6.33   0
   5  -2   5   69.80    6.32   0
  -5   2  -5   81.06    5.00   0
   6  -2   5   76.82    8.73   0
   6  -2   5   89.97    8.32   0
  -6   2  -5  102.74    4.63   0
  -7   2  -5    9.96    5.34   0
   7   1  -5   -2.43    5.61   0
  -7  -1   5    7.86    5.30   0
   7   1  -5   -3.94    5.06   0
   6   1  -5   -5.54    3.69   0
   6   1  -5    1.18    4.31   0
  -6  -1   5    1.88    5.10   0
   5   1  -5   46.72    5.79   0
   5   1  -5   35.56    5.12   0
  -5  -1   5   28.91    5.39   0
  -4  -1   5  903.52    9.26   0
   4   1  -5  996.63    9.25   0
   4   1  -5  989.99    9.40   0
  -3  -1   5   81.91    5.92   0
   3   1  -5   86.40    4.50   0
   3   1  -5   90.48    5.78   0
   2   1  -5    9.54    5.31   0
   2   1  -5   -1.83    5.28   0
  -2  -1   5   -1.13    5.26   0
   1   1  -5  441.04    8.27   0
  -1  -1   5  423.85    8.40   0
   0   1  -5  604.10    7.78   0
   0  -1   5  564.31    8.97   0
  -1   1  -5 5601.43   19.75   0
   1  -1   5 5326.42   20.06   0
  -2   1  -5  326.61    6.33   0
   2  -1   5  256.14    5.99   0
   3  -1   5    1.65    5.15   0
  -3   1  -5   11.20    5.30   0
  -4   1  -5 1122.39   12.15   0
   4  -1   5  951.41   10.78   0
   5  -1   5  870.47   12.96   0
  -5   1  -5  997.77    7.94   0
   6  -1   5    4.61    8.40   0
   6  -1   5    6.63    9.13   0
  -6   1  -5  -10.36    3.86   0
  -7   1  -5   29.94    3.96   0
  -8   1  -5    2.04    3.40   0
  -7   0   5   -2.52    6.03   0
   7   0  -5   16.87    5.73   0
   7   0  -5   -3.71    4.51   0
   6   0  -5    1.30    5.23   0
   6   0  -5    5.72    3.79   0
  -6   0   5    3.66    5.46   0
   5   0  -5   47.36    5.02   0
   5   0  -5   31.64    5.25   0
  -5   0   5   30.36    5.56   0
   4   0  -5   -2.16    4.67   0
   4   0  -5    8.11    5.62   0
  -4   0   5    3.15    4.84   0
   3   0  -5   22.08    5.25   0
   3   0  -5   26.63    4.15   0
  -3   0   5   26.72    4.04   0
  -2   0   5    0.68    5.45   0
   2   0  -5   15.33    5.48   0
   2   0  -5   -2.23    5.39   0
  -1   0   5  937.57    9.72   0
   1   0  -5  985.34    9.66   0
   0   0   5  132.96    7.11   0
   0   0  -5  138.10    7.16   0
   1   0   5   21.80    6.39   0
  -1   0  -5   15.56    6.16   0
   2   0   5 1068.80    9.91   0
  -2   0  -5 1091.07    9.74   0
   3   0   5  184.21    6.75   0
  -3   0  -5  202.06    6.92   0
   4   0   5  390.73    8.09   0
  -4   0  -5  428.13    8.35   0
  -5   0  -5   33.83    6.81   0
   5   0   5   29.90    6.42   0
   6   0   5  169.23   15.64   0
   6   0   5  180.30   15.91   0
  -6   0  -5  198.12    6.20   0
  -7   0  -5   22.75    3.55   0
  -8   0  -5   -6.23    4.92   0
  -6   1   5   82.16    6.35   0
   6  -1  -5  105.03    5.23   0
   6  -1  -5   76.99    6.43   0
   5  -1  -5   31.89    5.07   0
  -5   1   5   41.78    5.37   0
   5  -1  -5   34.70    5.29   0
   4  -1  -5    2.98    5.41   0
  -4   1   5    8.17    4.95   0
   4  -1  -5   14.99    4.52   0
   3  -1  -5   73.72    5.89   0
   3  -1  -5   76.06    5.29   0
  -3   1   5   77.29    4.26   0
  -2   1   5   41.63    4.14   0
   2  -1  -5   43.56    5.48   0
   2  -1  -5   49.72    5.74   0
   1  -1  -5   13.44    5.22   0
  -1   1   5   16.79    4.07   0
   0  -1  -5  832.03    9.79   0
   0   1   5  833.11   10.01   0
   1   1   5  571.19    9.19   0
  -1  -1  -5  596.23    7.91   0
  -2  -1  -5  810.56    9.94   0
   2   1   5  788.75    9.73   0
  -3  -1  -5 6637.73   23.64   0
   3   1   5 6291.48   23.31   0
  -4  -1  -5  699.71    9.62   0
   4   1   5  681.96    9.61   0
  -5  -1  -5  279.24    7.43   0
   5   1   5  260.45    8.23   0
   6   1   5  244.83   10.70   0
  -6  -1  -5  273.95   11.09   0
  -7  -1  -5  332.87    6.72   0
  -8  -1  -5  160.29    4.72   0
  -9  -1  -5    9.57    3.74   0
  -6   2   5    6.45    5.72   0
   6  -2  -5   17.90    6.00   0
   6  -2  -5   27.86    3.53   0
  -5   2   5    5.66    5.07   0
   5  -2  -5   13.75    3.63   0
   5  -2  -5    6.77    5.03   0
  -4   2   5   11.79    5.35   0
   4  -2  -5   21.04    4.90   0
   4  -2  -5   11.13    5.00   0
   3  -2  -5  180.37    5.28   0
   3  -2  -5  163.04    4.87   0
  -3   2   5  158.51    5.62   0
   2  -2  -5  249.50    5.32   0
  -2   2   5  225.23    6.63   0
   2  -2  -5  260.49    6.56   0
   1  -2  -5  120.71    5.95   0
  -1   2   5  129.83    4.84   0
   0  -2  -5  339.96    7.26   0
   0   2   5  321.67    6.22   0
  -1  -2  -5 1052.42   10.71   0
   1   2   5 1012.20   10.71   0
  -2  -2  -5  674.41    7.97   0
   2   2   5  665.87    9.01   0
  -3  -2  -5   34.20    6.05   0
   3   2   5   39.45    4.34   0
  -4  -2  -5  254.00    7.11   0
   4   2   5  230.18    6.96   0
  -5  -2  -5   68.99    5.99   0
   5   2   5   62.90    6.63   0
   6   2   5   27.16    5.70   0
  -6  -2  -5   29.75    6.11   0
  -8  -2  -5  134.44    4.41   0
  -9  -2  -5    5.27    4.77   0
  -5   3   5    8.31    5.79   0
   5  -3  -5   17.87    3.59   0
   5  -3  -5    5.84    4.34   0
  -4   3   5  136.75    6.19   0
   4  -3  -5  113.22    4.94   0
   4  -3  -5  132.84    5.58   0
   3  -3  -5  329.61    6.66   0
  -3   3   5  314.74    6.87   0
   3  -3  -5  319.86    6.63   0
   2  -3  -5  181.90    6.23   0
  -2   3   5  172.54    6.08   0
   2  -3  -5  187.17    4.90   0
   1  -3  -5  129.52    5.90   0
  -1   3   5  119.26    6.00   0
   1  -3  -5  135.18    4.91   0
   0   3   5  478.85    7.64   0
   0  -3  -5  447.28    6.46   0
   1   3   5 2066.19   12.00   0
  -1  -3  -5 2156.32   12.15   0
   2   3   5  656.09    7.95   0
  -2  -3  -5  630.34    7.86   0
   3   3   5   16.43    3.96   0
  -3  -3  -5   25.22    5.27   0
   4   3   5 1135.90   10.48   0
  -4  -3  -5 1150.52   10.53   0
   5   3   5 1296.17   11.31   0
  -5  -3  -5 1331.83   11.27   0
  -6  -3  -5  271.99    7.49   0
   6   3   5  262.69    7.38   0
  -7  -3  -5   52.29    6.66   0
   7   3   5   45.87    6.09   0
  -8  -3  -5   11.76    4.49   0
  -9  -3  -5   45.74    4.98   0
  -4   4   5   57.84    5.22   0
   4  -4  -5   63.42    5.47   0
   4  -4  -5   61.81    5.55   0
   3  -4  -5   16.39    5.01   0
  -3   4   5   13.84    4.74   0
   3  -4  -5   15.00    4.78   0
   2  -4  -5   -3.93    5.07   0
  -2   4   5    1.41    5.17   0
   2  -4  -5   -1.93    3.67   0
  -1   4   5  157.44    4.99   0
   1  -4  -5  169.87    5.19   0
   1  -4  -5  151.62    6.22   0
   0   4   5  607.81    8.08   0
   0  -4  -5  587.65    6.99   0
   1   4   5  181.84    6.74   0
  -1  -4  -5  195.64    6.36   0
   2   4   5  143.70    6.38   0
  -2  -4  -5  131.40    6.33   0
   3   4   5  753.32    8.41   0
  -3  -4  -5  829.06    8.95   0
   4   4   5  595.63    7.05   0
  -4  -4  -5  636.16    8.39   0
   5   4   5   -8.63    5.13   0
  -5  -4  -5    1.21    5.03   0
   6   4   5   -2.70    4.88   0
  -6  -4  -5   -7.06    5.18   0
   7   4   5   -3.58    5.03   0
  -7  -4  -5    3.27    5.45   0
  -8  -4  -5    6.60    6.01   0
  -9  -4  -5   19.87    4.96   0
  -4   5   5   -1.69    5.12   0
   4  -5  -5   -1.13    4.29   0
   4  -5  -5   -2.88    4.84   0
   3  -5  -5    8.96    4.32   0
  -3   5   5    2.14    4.52   0
   3  -5  -5    4.31    4.88   0
  -2   5   5  319.37    6.55   0
   2  -5  -5  322.22    5.98   0
   2  -5  -5  301.20    6.20   0
  -1   5   5   64.77    5.70   0
   1  -5  -5   67.38    3.89   0
   1  -5  -5   61.53    4.07   0
   0   5   5    5.16    5.72   0
   0  -5  -5    7.11    4.28   0
   0  -5  -5    3.74    5.26   0
   1   5   5  109.90    5.80   0
  -1  -5  -5   88.33    4.64   0
   2   5   5  267.51    5.59   0
  -2  -5  -5  271.99    5.60   0
   3   5   5 1343.28    9.74   0
  -3  -5  -5 1387.16   10.39   0
   4   5   5 1021.99    8.56   0
  -4  -5  -5 1048.83    9.69   0
   5   5   5    4.77    3.76   0
  -5  -5  -5   -7.49    5.60   0
   6   5   5   46.29    4.06   0
  -6  -5  -5   43.68    4.04   0
  -7  -5  -5  767.59    9.19   0
   7   5   5  736.30    8.98   0
  -8  -5  -5    7.69    5.48   0
  -9  -5  -5   12.34    5.66   0
  -9  -5  -5   22.56    5.21   0
  -9  -5  -5   19.08    5.91   0
 -10  -5  -5    0.90    3.45   0
   3  -6  -5    6.35    4.14   0
  -3   6   5   -2.52    4.51   0
   3  -6  -5    6.27    4.98   0
  -2   6   5   67.39    5.53   0
   2  -6  -5  102.71    5.37   0
   2  -6  -5   72.98    5.08   0
  -1   6   5   -2.52    4.98   0
   1  -6  -5    3.41    4.94   0
   1  -6  -5   -1.78    3.72   0
   0   6   5   21.01    5.19   0
   0  -6  -5   -6.83    4.85   0
   0  -6  -5    0.28    3.69   0
   1   6   5  274.86    5.21   0
  -1  -6  -5  273.14    6.07   0
   2   6   5  152.50    5.88   0
  -2  -6  -5  181.67    5.87   0
   3   6   5   88.55    5.90   0
  -3  -6  -5   93.65    5.84   0
   4   6   5   18.48    4.27   0
  -4  -6  -5    6.56    4.42   0
   5   6   5  142.23    4.74   0
  -5  -6  -5  147.03    6.05   0
   6   6   5   43.39    5.30   0
  -6  -6  -5   33.07    5.32   0
  -7  -6  -5   47.72    6.06   0
   7   6   5   72.08    5.52   0
  -8  -6  -5   74.90    5.72   0
  -9  -6  -5   90.07    4.44   0
  -9  -6  -5   75.40    6.48   0
  -2   7   5    3.24    4.30   0
   2  -7  -5   -9.44    5.08   0
   2  -7  -5   -8.28    4.06   0
  -1   7   5    2.98    4.74   0
   1  -7  -5  -11.57    5.44   0
   1  -7  -5  -10.65    3.77   0
   0   7   5  228.14    5.42   0
   0  -7  -5  234.94    5.43   0
   0  -7  -5  237.09    5.55   0
   1   7   5   17.10    4.22   0
  -1  -7  -5   46.18    5.12   0
  -1  -7  -5   24.45    3.88   0
   2   7   5  326.80    6.64   0
  -2  -7  -5  334.70    6.49   0
   3   7   5   10.61    5.07   0
  -3  -7  -5    0.89    3.96   0
   4   7   5    7.03    5.49   0
  -4  -7  -5   16.31    5.49   0
   5   7   5  265.60    6.58   0
  -5  -7  -5  266.04    5.73   0
   6   7   5  864.67    8.75   0
  -6  -7  -5  902.22    8.89   0
   7   7   5   31.80    5.01   0
  -7  -7  -5   56.93    5.22   0
  -8  -7  -5    4.72    4.47   0
  -9  -7  -5   90.41    5.70   0
  -9  -7  -5   65.57    5.78   0
  -1   8   5    0.43    3.76   0
   1  -8  -5    5.64    4.76   0
   0   8   5   33.43    5.43   0
   0  -8  -5   37.68    3.80   0
   0  -8  -5   49.24    5.08   0
   1   8   5   10.47    4.02   0
  -1  -8  -5   42.60    5.09   0
  -1  -8  -5   36.97    5.01   0
   2   8   5   33.55    4.96   0
  -2  -8  -5   36.60    4.03   0
  -2  -8  -5    4.04    5.41   0
   3   8   5   37.76    3.94   0
  -3  -8  -5   41.88    5.34   0
   4   8   5  212.82    5.13   0
  -4  -8  -5  248.85    5.79   0
   5   8   5   11.85    5.23   0
  -5  -8  -5    7.76    4.16   0
  -6  -8  -5   -0.85    4.30   0
   6   8   5  -12.68    4.10   0
   7   8   5   15.34    5.07   0
  -7  -8  -5   33.91    3.80   0
  -8  -8  -5   -3.33    5.10   0
  -9  -8  -5    5.60    4.88   0
  -9  -8  -5    6.19    5.47   0
   1   9   5   27.11    4.36   0
  -1  -9  -5   38.71    5.04   0
  -1  -9  -5   23.52    5.06   0
   2   9   5   -8.12    3.87   0
  -2  -9  -5  -15.14    4.85   0
  -2  -9  -5   -7.74    4.96   0
   3   9   5    7.98    3.73   0
  -3  -9  -5    4.23    3.98   0
  -3  -9  -5    3.97    5.47   0
   4   9   5  464.51    7.15   0
  -4  -9  -5  508.85    6.30   0
  -5  -9  -5   -2.74    4.00   0
   5   9   5    1.16    5.10   0
  -6  -9  -5   -3.80    5.09   0
   6   9   5   10.81    5.08   0
  -7  -9  -5   84.89    5.66   0
   7   9   5   75.92    4.55   0
  -8  -9  -5  127.09    5.12   0
  -3 -10  -5    6.89    4.50   0
   3  10   5  -12.77    4.96   0
  -4 -10  -5   -9.83    3.76   0
  -4 -10  -5   -0.74    4.41   0
   4  10   5   -0.43    4.06   0
  -5 -10  -5   -3.26    5.45   0
   5  10   5    3.61    5.21   0
  -6 -10  -5  110.00    4.29   0
   6  10   5  107.22    5.57   0
  -7 -10  -5    2.38    3.34   0
  -5  -8   6   16.33    5.05   0
  -5  -8   6   -5.24    5.28   0
  -4  -8   6   46.60    5.31   0
  -4  -8   6   33.32    5.20   0
  -3  -8   6   63.64    4.26   0
  -3  -8   6   59.82    3.73   0
  -2  -8   6   33.13    4.86   0
  -2  -8   6   32.64    4.44   0
  -1  -8   6   51.21    5.52   0
  -1  -8   6   69.46    4.27   0
   0  -8   6   25.27    5.03   0
   0  -8   6   22.44    4.82   0
  -6  -7   6    8.69    5.13   0
  -6  -7   6   12.14    5.18   0
  -5  -7   6    7.87    3.62   0
  -4  -7   6   -9.21    5.72   0
  -3  -7   6   -2.55    4.60   0
  -2  -7   6  113.07    5.33   0
  -2  -7   6   83.51    5.67   0
  -1  -7   6   31.66    4.74   0
  -1  -7   6   44.73    3.84   0
   0  -7   6   35.55    5.30   0
   0  -7   6   35.47    4.82   0
   1  -7   6   -3.91    5.48   0
   1  -7   6   -5.10    5.04   0
  -1   7  -6   -1.37    5.95   0
   2  -7   6  204.87    5.49   0
   2  -7   6  210.95    6.49   0
  -2   7  -6  229.38    7.66   0
  -6  -6   6   14.17    5.09   0
  -5  -6   6   23.64    5.66   0
  -4  -6   6    4.97    5.11   0
  -3  -6   6  144.85    4.57   0
  -2  -6   6  168.64    4.63   0
  -1  -6   6  134.37    5.67   0
   0  -6   6  132.50    4.88   0
   0   6  -6  173.87    8.97   0
   1  -6   6  135.59    6.29   0
  -1   6  -6  134.19    7.05   0
   1  -6   6   98.69    5.93   0
   2  -6   6   14.29    3.67   0
   2  -6   6    0.99    3.73   0
  -2   6  -6   11.36    5.20   0
   3  -6   6   12.48    4.27   0
   3  -6   6   -3.51    4.27   0
  -3   6  -6   21.32    5.12   0
   4  -6   6  170.29    7.21   0
  -7  -5   6    6.42    4.30   0
   6   5  -6   23.32    5.02   0
  -6  -5   6   26.27    5.53   0
   5   5  -6   67.06    5.67   0
  -5  -5   6   40.52    5.34   0
  -4  -5   6   72.64    4.60   0
   4   5  -6   88.98    5.95   0
  -3  -5   6   31.86    4.10   0
   3   5  -6   30.36    5.19   0
  -2  -5   6  324.36    5.55   0
   2   5  -6  348.47    9.96   0
  -1  -5   6   97.56    4.14   0
   0  -5   6  432.04    5.87   0
   1  -5   6  517.05    7.56   0
  -1   5  -6  613.76    9.58   0
   2  -5   6  154.76    5.66   0
  -2   5  -6  189.69    6.70   0
   2  -5   6  163.05    5.56   0
   3  -5   6   35.23    5.01   0
  -3   5  -6   38.53    4.79   0
   3  -5   6   29.95    5.18   0
   4  -5   6   81.52    5.62   0
   4  -5   6   71.35    5.36   0
  -4   5  -6   92.77    4.95   0
   5  -5   6   80.24    5.84   0
  -5   5  -6   52.75    5.63   0
   5  -5   6   53.57    6.58   0
  -7  -4   6   -0.72    4.81   0
   7   4  -6   19.92    4.27   0
  -6  -4   6    9.25    5.27   0
   6   4  -6   21.60    5.11   0
   5   4  -6    1.16    5.08   0
  -5  -4   6    1.02    3.67   0
   4   4  -6   33.54    5.34   0
  -4  -4   6   37.05    5.07   0
   3   4  -6  237.99    6.30   0
  -3  -4   6  213.69    6.54   0
   3   4  -6  216.92    6.79   0
  -2  -4   6   28.64    3.95   0
   2   4  -6   58.66    5.34   0
   2   4  -6   37.43    5.29   0
  -1  -4   6   22.50    5.56   0
   0  -4   6   62.31    4.72   0
   1  -4   6  352.90    6.93   0
   2  -4   6  786.91    8.43   0
   3  -4   6   61.64    5.48   0
  -3   4  -6   62.66    5.50   0
   4  -4   6   -2.96    4.52   0
  -4   4  -6   -2.11    5.05   0
   4  -4   6    1.29    5.09   0
   5  -4   6   29.21    5.86   0
  -5   4  -6   32.20    5.02   0
   5  -4   6   18.59    6.35   0
   6  -4   6  133.10    7.73   0
   6  -4   6  111.88    7.53   0
  -6   4  -6  126.29    6.04   0
  -7  -3   6    2.61    4.93   0
   7   3  -6    8.20    3.60   0
  -6  -3   6   19.70    5.27   0
   6   3  -6   19.56    5.24   0
   5   3  -6    0.96    4.69   0
  -5  -3   6    4.05    4.74   0
   5   3  -6   -0.23    3.58   0
   4   3  -6    0.84    5.15   0
  -4  -3   6    7.10    5.23   0
   4   3  -6    1.70    4.89   0
   3   3  -6  153.92    6.77   0
  -3  -3   6  138.06    6.36   0
   3   3  -6  154.82    5.67   0
  -2  -3   6   14.97    5.69   0
   2   3  -6   11.24    5.19   0
   2   3  -6   16.22    3.95   0
   1   3  -6   97.61    6.22   0
  -1  -3   6   97.11    6.14   0
   0  -3   6  254.41    6.35   0
   0   3  -6  283.70    6.40   0
   1  -3   6   16.98    5.18   0
  -1   3  -6   26.90    4.20   0
   2  -3   6  364.73    7.07   0
   3  -3   6 2303.29   12.72   0
  -4   3  -6  197.86    5.73   0
   4  -3   6  209.27    6.51   0
   5  -3   6  221.55    7.28   0
  -5   3  -6  251.25    6.40   0
   5  -3   6  233.94    7.02   0
   6  -3   6   17.48    5.72   0
   6  -3   6   13.17    5.61   0
  -6   3  -6   21.22    5.05   0
   7   2  -6   46.94    5.60   0
  -7  -2   6   28.87    5.17   0
  -6  -2   6   18.71    4.43   0
   6   2  -6    8.67    4.58   0
   6   2  -6    0.20    4.79   0
  -5  -2   6   10.97    5.14   0
   5   2  -6   10.90    3.62   0
   5   2  -6    0.12    4.92   0
   4   2  -6  130.62    5.66   0
  -4  -2   6  120.30    5.40   0
   4   2  -6  129.45    5.71   0
   3   2  -6   66.65    4.56   0
  -3  -2   6   74.03    5.92   0
   3   2  -6   68.56    5.55   0
   2   2  -6   -4.59    5.40   0
  -2  -2   6    7.00    5.50   0
   2   2  -6    5.32    5.15   0
   1   2  -6  321.22    7.28   0
  -1  -2   6  288.22    7.13   0
   0  -2   6 1084.05    8.72   0
   0   2  -6 1133.31    9.44   0
  -1   2  -6   24.99    5.78   0
   1  -2   6    4.63    4.15   0
   2  -2   6  459.93    7.44   0
  -2   2  -6  520.38    7.69   0
   3  -2   6   60.93    4.17   0
  -3   2  -6   82.78    6.13   0
   4  -2   6 1084.68   10.87   0
   5  -2   6  411.74    8.83   0
  -5   2  -6  461.65    6.30   0
   5  -2   6  408.01    8.07   0
   6  -2   6   85.37    6.47   0
   6  -2   6   78.70    6.51   0
  -6   2  -6  110.83    4.69   0
  -7   2  -6   -1.38    4.39   0
   7   1  -6    2.95    3.89   0
   6   1  -6  111.16    5.88   0
   6   1  -6  122.04    4.70   0
  -6  -1   6  110.05    5.85   0
   5   1  -6  102.27    5.84   0
   5   1  -6  102.73    5.70   0
  -5  -1   6   83.50    5.74   0
  -4  -1   6    6.06    4.85   0
   4   1  -6    3.21    3.72   0
   4   1  -6   -1.97    4.87   0
  -3  -1   6   23.28    3.93   0
   3   1  -6   30.59    4.05   0
   3   1  -6   12.05    3.94   0
  -2  -1   6  226.22    5.57   0
   2   1  -6  239.18    6.76   0
   2   1  -6  226.86    5.17   0
   1   1  -6   24.79    5.55   0
  -1  -1   6   40.16    5.51   0
   0   1  -6  430.68    6.63   0
   0  -1   6  375.38    6.39   0
  -1   1  -6  140.73    4.89   0
   1  -1   6  128.32    6.44   0
   2  -1   6  142.79    4.76   0
  -2   1  -6  166.00    5.97   0
  -3   1  -6   45.44    4.04   0
   3  -1   6   33.55    5.38   0
   4  -1   6  443.35    8.10   0
  -4   1  -6  544.96    8.52   0
   5  -1   6 2997.91   18.91   0
  -6   1  -6  507.74    7.57   0
   6  -1   6  446.23   11.01   0
   6  -1   6  478.14   10.47   0
  -7   1  -6    3.50    5.09   0
  -8   1  -6   53.40    3.89   0
   6   0  -6   16.52    4.27   0
   6   0  -6   -2.70    3.79   0
  -6   0   6    6.22    4.89   0
   5   0  -6    7.86    4.66   0
   5   0  -6   14.63    5.01   0
  -5   0   6    5.38    5.07   0
   4   0  -6  382.55    6.84   0
   4   0  -6  406.26    6.83   0
  -4   0   6  357.92    6.98   0
   3   0  -6   48.33    4.29   0
   3   0  -6   52.60    4.30   0
  -3   0   6   37.24    5.97   0
  -2   0   6 1177.03    9.79   0
   2   0  -6 1308.87   10.14   0
   2   0  -6 1221.43    9.91   0
  -1   0   6  895.86    8.15   0
   1   0  -6  900.53    9.03   0
   0   0   6    6.73    6.09   0
   0   0  -6   22.36    6.12   0
   1   0   6   54.64    6.36   0
  -1   0  -6   51.91    6.40   0
   2   0   6    3.17    5.28   0
  -2   0  -6    2.86    3.80   0
   3   0   6  324.79    7.19   0
  -3   0  -6  349.20    7.06   0
   4   0   6  275.92    6.84   0
  -4   0  -6  287.57    6.98   0
  -5   0  -6  278.12    7.44   0
   5   0   6  259.35    7.85   0
   6   0   6  378.21   10.44   0
  -7   0  -6  686.47    6.82   0
  -8   0  -6   26.55    5.11   0
  -6   1   6    9.14    5.04   0
   6  -1  -6   10.62    3.57   0
   6  -1  -6    1.43    4.72   0
   5  -1  -6   14.11    4.36   0
  -5   1   6   21.53    4.50   0
   5  -1  -6   12.05    4.86   0
  -4   1   6   37.56    5.17   0
   4  -1  -6   36.45    5.40   0
   4  -1  -6   27.38    5.27   0
  -3   1   6  322.50    5.99   0
   3  -1  -6  301.44    6.78   0
   3  -1  -6  314.51    6.68   0
   2  -1  -6   41.20    4.29   0
  -2   1   6   37.57    5.71   0
   2  -1  -6   34.83    4.18   0
   1  -1  -6  231.73    6.44   0
  -1   1   6  187.83    6.54   0
   0  -1  -6    5.92    5.43   0
   0   1   6    3.37    4.22   0
   1   1   6  519.69    7.30   0
  -1  -1  -6  564.19    7.17   0
  -2  -1  -6   24.52    5.57   0
   2   1   6   39.33    5.81   0
  -3  -1  -6   90.74    5.98   0
   3   1   6   82.83    4.61   0
  -4  -1  -6  389.77    7.61   0
   4   1   6  364.61    7.62   0
  -5  -1  -6    4.63    5.19   0
   5   1   6    7.16    5.04   0
   6   1   6  422.53    9.46   0
  -6  -1  -6  469.49    9.78   0
  -8  -1  -6  278.51    5.38   0
  -9  -1  -6   -5.84    4.84   0
   5  -2  -6   -5.38    4.70   0
  -5   2   6    1.54    4.97   0
   5  -2  -6    3.21    3.64   0
  -4   2   6   -3.70    5.08   0
   4  -2  -6   -2.19    4.92   0
   4  -2  -6   -1.88    4.81   0
   3  -2  -6   18.01    3.75   0
  -3   2   6   11.06    4.55   0
   3  -2  -6   16.01    4.83   0
  -2   2   6  118.26    6.26   0
   2  -2  -6  139.53    4.81   0
   2  -2  -6  143.73    4.61   0
   1  -2  -6  542.73    7.85   0
  -1   2   6  512.87    7.58   0
   0  -2  -6  917.77    8.84   0
   0   2   6  871.25    8.92   0
  -1  -2  -6   -2.95    4.32   0
   1   2   6   -1.03    5.99   0
  -2  -2  -6 1805.93   11.98   0
   2   2   6 1804.11   11.31   0
  -3  -2  -6   54.33    4.38   0
   3   2   6   64.11    5.85   0
  -4  -2  -6    5.63    5.17   0
   4   2   6    0.96    5.32   0
  -5  -2  -6  358.47    7.27   0
   5   2   6  327.41    7.29   0
   6   2   6  243.89    7.31   0
  -6  -2  -6  255.75    7.56   0
   7   2   6   50.78    7.17   0
  -7  -2  -6   48.94    6.93   0
  -8  -2  -6  549.48    6.43   0
  -9  -2  -6  195.26    5.89   0
  -5   3   6   52.28    5.62   0
   5  -3  -6   40.56    3.99   0
   5  -3  -6   70.76    5.43   0
  -4   3   6   52.82    5.07   0
   4  -3  -6   48.31    4.77   0
   4  -3  -6   58.72    4.88   0
   3  -3  -6   28.90    3.81   0
  -3   3   6   17.71    3.56   0
   3  -3  -6   21.17    5.29   0
   2  -3  -6    9.27    5.03   0
  -2   3   6    2.38    5.00   0
   2  -3  -6    0.46    5.18   0
   1  -3  -6  209.84    6.37   0
  -1   3   6  206.93    5.11   0
   1  -3  -6  216.78    6.14   0
   0  -3  -6   59.34    5.73   0
   0   3   6   52.08    4.62   0
  -1  -3  -6  943.87    8.07   0
   1   3   6  913.88    8.43   0
   2   3   6   46.30    5.79   0
  -2  -3  -6   46.58    5.86   0
   3   3   6  109.36    5.84   0
  -3  -3  -6   97.13    5.98   0
  -4  -3  -6   66.77    5.74   0
   4   3   6   70.91    4.19   0
  -5  -3  -6  337.19    6.16   0
   5   3   6  333.57    7.12   0
  -6  -3  -6  271.78    7.34   0
   6   3   6  275.52    7.23   0
   7   3   6   -1.91    5.90   0
  -7  -3  -6    9.02    6.25   0
  -8  -3  -6   55.76    8.35   0
  -9  -3  -6  820.19    8.78   0
  -4   4   6    3.47    5.24   0
   4  -4  -6   11.13    4.84   0
   4  -4  -6   -0.71    5.04   0
   3  -4  -6   32.98    5.19   0
  -3   4   6   18.22    3.79   0
   3  -4  -6   27.27    5.04   0
   2  -4  -6   55.49    3.97   0
  -2   4   6   67.39    5.01   0
   2  -4  -6   51.85    4.03   0
   1  -4  -6    0.12    3.70   0
   1  -4  -6    5.89    3.80   0
  -1   4   6    9.95    5.29   0
   0   4   6  136.47    6.22   0
   0  -4  -6  140.63    6.00   0
   1   4   6  415.06    7.31   0
  -1  -4  -6  443.86    7.25   0
   2   4   6  410.98    7.35   0
  -2  -4  -6  403.63    6.04   0
   3   4   6  389.91    7.35   0
  -3  -4  -6  379.35    7.32   0
   4   4   6   42.08    5.44   0
  -4  -4  -6   40.73    5.71   0
   5   4   6   -2.05    3.47   0
  -5  -4  -6    7.11    5.24   0
   6   4   6  134.69    5.75   0
  -6  -4  -6  130.93    5.58   0
   7   4   6    5.56    5.42   0
  -7  -4  -6   10.52    5.68   0
  -8  -4  -6  295.13    8.66   0
   8   4   6  306.33    8.24   0
  -9  -4  -6   -1.02    8.48   0
  -9  -4  -6   -2.39    8.39   0
  -9  -4  -6    3.68    5.11   0
   3  -5  -6    6.30    3.67   0
  -3   5   6   18.24    3.72   0
   3  -5  -6   14.87    3.71   0
   2  -5  -6    9.46    4.88   0
  -2   5   6    7.47    5.01   0
   2  -5  -6    4.17    3.90   0
  -1   5   6   23.48    5.18   0
   1  -5  -6   14.98    3.96   0
   1  -5  -6   27.99    4.33   0
   0   5   6    8.00    5.34   0
   0  -5  -6   -0.86    5.35   0
   0  -5  -6    5.85    5.15   0
   1   5   6  112.13    4.68   0
  -1  -5  -6  129.11    4.78   0
   2   5   6  171.19    4.74   0
  -2  -5  -6  170.09    5.99   0
   3   5   6   32.42    5.75   0
  -3  -5  -6   40.85    5.65   0
   4   5   6  -12.25    5.75   0
  -4  -5  -6    1.85    5.98   0
   5   5   6   55.96    5.81   0
  -5  -5  -6   62.48    4.43   0
   6   5   6   82.40    5.53   0
  -6  -5  -6   76.09    5.63   0
   7   5   6  204.82    6.08   0
  -7  -5  -6  213.11    5.37   0
  -8  -5  -6   99.85    6.20   0
   8   5   6  103.87    5.80   0
  -9  -5  -6    2.21    6.24   0
  -9  -5  -6   -0.34    4.03   0
   2  -6  -6    8.06    5.25   0
  -2   6   6   28.09    4.55   0
   2  -6  -6    2.99    5.28   0
  -1   6   6   -9.63    4.81   0
   1  -6  -6   -5.79    3.70   0
   1  -6  -6   -4.28    4.52   0
   0   6   6   -4.39    5.49   0
   0  -6  -6  -12.62    3.96   0
   0  -6  -6    6.33    5.15   0
   1   6   6   73.54    4.42   0
  -1  -6  -6   57.40    4.44   0
   2   6   6   66.68    5.17   0
  -2  -6  -6   65.58    4.12   0
   3   6   6    7.18    5.12   0
  -3  -6  -6   -1.14    3.72   0
   4   6   6  376.75    6.73   0
  -4  -6  -6  375.55    6.12   0
   5   6   6  230.69    5.20   0
  -5  -6  -6  252.18    6.79   0
   6   6   6   24.85    3.61   0
  -6  -6  -6   41.96    5.12   0
   7   6   6   25.26    5.43   0
  -7  -6  -6   20.94    5.51   0
  -8  -6  -6   49.20    5.17   0
   8   6   6   23.11    5.05   0
  -9  -6  -6   70.99    6.11   0
  -1   7   6   43.73    4.93   0
   1  -7  -6   47.44    4.09   0
   1  -7  -6   43.05    5.46   0
   0   7   6   15.99    5.31   0
   0  -7  -6  -10.99    5.10   0
   0  -7  -6   -7.92    5.22   0
   1   7   6   23.60    4.08   0
  -1  -7  -6    8.69    5.19   0
  -1  -7  -6    1.12    4.45   0
   2   7   6   33.10    5.37   0
  -2  -7  -6   32.39    5.56   0
   3   7   6   27.32    4.08   0
  -3  -7  -6   36.40    4.04   0
   4   7   6   24.28    5.49   0
  -4  -7  -6   25.77    5.04   0
   5   7   6   34.17    5.81   0
  -5  -7  -6   41.64    5.79   0
   6   7   6  132.68    4.68   0
  -6  -7  -6  160.11    4.89   0
   7   7   6    2.31    4.64   0
  -7  -7  -6    3.37    4.67   0
  -8  -7  -6   29.80    5.11   0
   8   7   6   29.55    4.97   0
  -9  -7  -6  132.60    6.54   0
   0   8   6   35.44    3.81   0
   0  -8  -6   24.83    4.79   0
   0  -8  -6   36.58    5.49   0
   1   8   6   15.67    5.05   0
  -1  -8  -6   -9.36    3.88   0
  -1  -8  -6    2.80    4.34   0
   2   8   6   13.06    5.21   0
  -2  -8  -6    7.04    4.79   0
  -2  -8  -6    6.89    3.74   0
   3   8   6   37.69    4.92   0
  -3  -8  -6   57.16    5.44   0
   4   8   6    2.38    3.73   0
  -4  -8  -6   -4.80    5.15   0
   5   8   6    6.50    3.43   0
  -5  -8  -6    2.95    4.62   0
   6   8   6    1.47    3.71   0
  -6  -8  -6   -5.58    4.75   0
  -7  -8  -6   17.99    3.94   0
   7   8   6   -0.82    5.12   0
  -8  -8  -6   55.39    5.33   0
   8   8   6   49.10    3.79   0
  -9  -8  -6   51.09    5.57   0
   2   9   6    9.22    4.83   0
  -2  -9  -6   -4.40    3.74   0
  -2  -9  -6    1.72    5.13   0
   3   9   6   65.54    4.02   0
  -3  -9  -6   48.00    5.31   0
  -3  -9  -6   42.50    5.37   0
   4   9   6    7.43    3.41   0
  -4  -9  -6   -3.63    5.00   0
   5   9   6   17.31    5.28   0
  -5  -9  -6   17.75    4.09   0
  -6  -9  -6   10.40    3.83   0
   6   9   6    3.23    3.61   0
  -7  -9  -6   -2.24    4.99   0
   7   9   6    4.88    4.87   0
  -8  -9  -6  121.65    5.08   0
   8   9   6  112.21    5.02   0
  -4 -10  -6   -3.59    5.18   0
   4  10   6    5.72    5.04   0
  -5 -10  -6   11.23    5.26   0
   5  10   6    5.98    4.40   0
  -6 -10  -6   51.65    4.70   0
   6  10   6   36.40    4.43   0
  -3  -8   7   -7.19    3.70   0
  -3  -8   7   19.34    3.99   0
  -2  -8   7   18.60    5.13   0
  -2  -8   7   18.65    4.88   0
  -1  -8   7   18.73    3.96   0
  -1  -8   7   35.26    4.52   0
  -5  -7   7    0.82    4.38   0
  -4  -7   7   13.21    4.85   0
  -3  -7   7    1.18    4.58   0
  -2  -7   7    4.11    4.02   0
  -1  -7   7   11.42    4.18   0
  -1  -7   7    3.55    5.20   0
   0  -7   7    6.04    4.76   0
   0  -7   7   13.56    5.42   0
   1  -7   7    9.21    5.27   0
  -1   7  -7   21.33    5.74   0
   1  -7   7    5.45    5.14   0
   2  -7   7   86.81    5.75   0
  -2   7  -7   93.47    7.09   0
  -6  -6   7   25.85    4.01   0
   5   6  -7    2.37    5.34   0
  -5  -6   7    2.12    4.97   0
  -4  -6   7    6.10    5.01   0
   4   6  -7    4.31    4.83   0
  -3  -6   7   10.01    5.14   0
   3   6  -7   -0.35    5.53   0
  -2  -6   7   14.59    3.78   0
   2   6  -7   11.49    7.62   0
  -1  -6   7   48.18    4.63   0
   1   6  -7   36.37    8.35   0
   0  -6   7   -5.46    3.77   0
   0   6  -7    0.14    5.52   0
   1  -6   7   36.15    5.85   0
  -1   6  -7  104.14    6.18   0
   1  -6   7   92.55    4.37   0
   2  -6   7    8.26    3.73   0
  -2   6  -7   13.29    5.49   0
   2  -6   7   19.62    4.94   0
   3  -6   7    6.30    4.71   0
   3  -6   7   12.20    4.21   0
  -3   6  -7   24.53    4.65   0
  -6  -5   7  124.28    6.24   0
   6   5  -7  125.97    5.93   0
   5   5  -7   38.21    5.72   0
  -5  -5   7   31.84    5.20   0
   4   5  -7   21.32    4.96   0
  -4  -5   7    9.79    3.90   0
   3   5  -7   60.70    5.91   0
  -3  -5   7   60.66    5.28   0
  -2  -5   7   10.76    5.28   0
   2   5  -7    4.28    5.29   0
  -1  -5   7   35.97    5.43   0
   0  -5   7    3.11    4.86   0
   1  -5   7  174.60    5.07   0
   2  -5   7    8.49    3.50   0
  -2   5  -7   11.10    4.63   0
   3  -5   7   79.40    5.35   0
  -3   5  -7   81.40    5.27   0
   3  -5   7   74.40    4.93   0
   4  -5   7   78.72    5.04   0
  -4   5  -7   70.95    5.10   0
   4  -5   7   44.30    5.73   0
  -6  -4   7   46.27    5.31   0
   6   4  -7   27.25    5.01   0
  -5  -4   7  140.97    6.03   0
   5   4  -7  131.90    5.85   0
   4   4  -7   -1.59    3.93   0
  -4  -4   7   -4.89    5.29   0
   4   4  -7   -1.14    4.60   0
   3   4  -7  -10.20    4.98   0
   3   4  -7   -2.07    5.38   0
  -3  -4   7    4.95    5.36   0
   2   4  -7    7.51    5.37   0
   2   4  -7   10.11    5.40   0
  -2  -4   7    4.24    3.69   0
   1   4  -7   51.84    5.23   0
  -1  -4   7   34.90    3.77   0
   0  -4   7   70.66    5.77   0
   1  -4   7  501.14    7.68   0
   2  -4   7   26.95    5.42   0
  -3   4  -7   63.14    5.28   0
   3  -4   7   52.04    5.21   0
  -4   4  -7   95.79    5.53   0
   4  -4   7   77.54    5.58   0
   4  -4   7   94.97    5.58   0
   5  -4   7   40.16    4.98   0
   5  -4   7   26.34    5.60   0
  -5   4  -7   23.11    5.10   0
  -6  -3   7   -3.64    4.69   0
   6   3  -7    1.98    3.63   0
   6   3  -7    8.91    4.67   0
  -5  -3   7   42.44    4.16   0
   5   3  -7   45.81    4.22   0
   5   3  -7   45.34    4.26   0
   4   3  -7  533.00    6.71   0
  -4  -3   7  447.24    7.37   0
   4   3  -7  533.63    7.76   0
  -3  -3   7  127.66    4.55   0
   3   3  -7  107.65    5.53   0
   3   3  -7  116.49    5.96   0
  -2  -3   7    6.11    5.73   0
   2   3  -7    4.38    5.39   0
   2   3  -7   10.46    4.52   0
  -1  -3   7  423.23    7.07   0
   1   3  -7  447.57    5.88   0
   0   3  -7  129.91    5.84   0
   0  -3   7   91.76    4.43   0
  -1   3  -7   14.99    5.98   0
   1  -3   7    7.16    5.86   0
  -2   3  -7   31.08    5.09   0
   2  -3   7   11.09    3.90   0
   3  -3   7   -3.16    3.65   0
   4  -3   7  147.38    5.78   0
   5  -3   7   10.94    5.33   0
  -5   3  -7    9.77    4.97   0
   5  -3   7    3.11    4.64   0
   6  -3   7    0.56    5.14   0
   6  -3   7    1.07    4.63   0
  -6   3  -7  -16.00    4.70   0
  -6  -2   7    1.75    4.67   0
   6   2  -7   -5.58    5.33   0
   6   2  -7    2.63    3.78   0
  -5  -2   7    6.45    4.59   0
   5   2  -7   -6.95    4.76   0
   5   2  -7    1.09    4.44   0
   4   2  -7  225.15    4.95   0
  -4  -2   7  196.44    5.16   0
   4   2  -7  208.05    4.72   0
   3   2  -7  107.40    5.80   0
  -3  -2   7   77.31    4.33   0
   3   2  -7   86.29    4.23   0
  -2  -2   7   15.59    4.55   0
   2   2  -7   24.69    4.22   0
   2   2  -7   12.44    3.97   0
  -1  -2   7   12.31    4.06   0
   1   2  -7   -1.32    5.34   0
   0   2  -7  582.70    7.73   0
   0  -2   7  444.50    6.25   0
  -1   2  -7   11.83    4.60   0
   1  -2   7   19.83    4.37   0
  -2   2  -7   53.82    4.30   0
   2  -2   7   35.98    5.72   0
  -3   2  -7 1022.74    9.67   0
   3  -2   7  870.95    9.32   0
   4  -2   7   11.71    4.76   0
   5  -2   7  209.06    7.05   0
   6  -2   7   68.61    6.48   0
   6  -2   7   65.92    6.75   0
  -6   2  -7   87.18    4.17   0
   7  -2   7    2.22    8.03   0
  -7   2  -7  -11.23    4.87   0
   7  -2   7    1.87    7.58   0
   6   1  -7  196.79    7.04   0
   6   1  -7  217.05    6.48   0
  -6  -1   7  166.57    6.87   0
   5   1  -7   45.66    5.02   0
   5   1  -7   50.37    4.09   0
  -5  -1   7   29.26    5.02   0
  -4  -1   7    8.33    4.86   0
   4   1  -7   23.98    3.70   0
   4   1  -7   24.50    5.49   0
  -3  -1   7    0.85    5.22   0
   3   1  -7   16.80    5.20   0
   3   1  -7    3.88    3.65   0
  -2  -1   7   23.78    4.61   0
   2   1  -7   47.93    5.80   0
   2   1  -7   50.76    5.41   0
  -1  -1   7  234.45    6.39   0
   1   1  -7  273.37    5.48   0
   0   1  -7  449.98    6.50   0
   0  -1   7  391.35    7.27   0
   1  -1   7  349.66    7.07   0
  -1   1  -7  374.70    7.24   0
   2  -1   7  112.77    5.68   0
  -2   1  -7  122.97    5.60   0
   3  -1   7  350.99    6.88   0
  -3   1  -7  415.76    7.04   0
   4  -1   7  153.58    5.88   0
  -4   1  -7  183.65    5.04   0
   5  -1   7   94.80    6.81   0
  -5   1  -7  116.42    6.22   0
   6  -1   7   43.16    6.24   0
   7  -1   7    2.04    7.35   0
   7  -1   7    1.46    7.49   0
  -7   1  -7    2.38    5.07   0
  -8   1  -7    6.74    3.70   0
   6   0  -7   -0.06    5.29   0
  -6   0   7    0.31    5.27   0
   6   0  -7   -0.40    4.43   0
   5   0  -7   59.05    5.25   0
   5   0  -7   42.22    5.17   0
  -5   0   7   39.91    5.28   0
   4   0  -7  111.39    4.56   0
   4   0  -7  105.98    4.68   0
  -4   0   7  101.65    5.90   0
   3   0  -7  363.52    6.86   0
   3   0  -7  408.94    6.60   0
  -3   0   7  376.77    6.68   0
  -2   0   7   12.24    6.04   0
   2   0  -7   10.00    6.18   0
   2   0  -7    6.84    4.30   0
  -1   0   7   21.83    4.22   0
   1   0  -7   17.82    5.70   0
   0   0   7  152.99    6.36   0
   0   0  -7  190.31    6.49   0
   1   0   7  345.27    7.13   0
  -1   0  -7  350.87    6.12   0
  -2   0  -7 1763.23   10.80   0
   2   0   7 1614.90   11.47   0
   3   0   7    2.32    5.14   0
  -3   0  -7   12.22    3.60   0
   4   0   7    7.25    5.27   0
  -4   0  -7   18.14    5.36   0
  -5   0  -7  174.86    6.38   0
   5   0   7  158.77    6.21   0
  -6   0  -7   32.42    5.56   0
   6   0   7   27.04    5.77   0
   7   0   7  541.20   15.51   0
  -7   0  -7  630.45    6.62   0
   7   0   7  558.75   14.85   0
  -8   0  -7   20.85    3.65   0
   5  -1  -7   30.11    5.12   0
  -5   1   7   35.63    5.24   0
   5  -1  -7   38.12    5.02   0
   4  -1  -7  548.29    7.76   0
  -4   1   7  510.61    7.06   0
   4  -1  -7  598.18    6.73   0
  -3   1   7   43.92    5.08   0
   3  -1  -7   39.96    5.41   0
   3  -1  -7   39.22    5.10   0
   2  -1  -7  159.72    6.06   0
  -2   1   7  138.31    4.88   0
   2  -1  -7  153.31    4.82   0
   1  -1  -7   61.28    5.66   0
  -1   1   7   64.20    5.96   0
   0  -1  -7    1.34    5.32   0
   0   1   7    6.61    5.75   0
  -1  -1  -7  610.62    7.14   0
   1   1   7  549.62    7.01   0
  -2  -1  -7 1443.71   10.51   0
   2   1   7 1413.16   10.90   0
  -3  -1  -7  129.31    6.12   0
   3   1   7  128.85    6.24   0
  -4  -1  -7    6.76    3.80   0
   4   1   7    0.17    3.71   0
  -5  -1  -7   15.11    5.00   0
   5   1   7    2.35    5.01   0
   6   1   7    1.40    5.97   0
  -6  -1  -7   -5.78    5.51   0
  -7  -1  -7   92.43    7.33   0
   7   1   7   87.89    6.90   0
  -8  -1  -7   62.25    5.65   0
   5  -2  -7   10.87    4.99   0
  -5   2   7    0.95    4.97   0
   5  -2  -7    0.72    4.25   0
  -4   2   7  118.06    5.50   0
   4  -2  -7  146.07    4.87   0
   4  -2  -7  124.75    5.86   0
  -3   2   7   70.11    4.97   0
   3  -2  -7   64.93    4.75   0
   3  -2  -7   73.14    5.35   0
   2  -2  -7  472.70    6.19   0
  -2   2   7  453.00    6.33   0
   2  -2  -7  441.51    5.76   0
   1  -2  -7  149.45    6.32   0
  -1   2   7  127.62    6.42   0
   0  -2  -7   -7.96    5.47   0
   0   2   7    1.77    5.55   0
  -1  -2  -7   -4.30    4.35   0
   1   2   7   -0.69    4.19   0
  -2  -2  -7   24.13    5.56   0
   2   2   7   36.59    5.57   0
  -3  -2  -7    3.40    4.03   0
   3   2   7   -2.56    4.00   0
  -4  -2  -7   44.96    4.02   0
   4   2   7   43.56    5.49   0
  -5  -2  -7  207.38    6.29   0
   5   2   7  209.71    6.34   0
   6   2   7   -1.36    5.31   0
  -6  -2  -7    3.05    5.33   0
   7   2   7   10.98    4.71   0
  -7  -2  -7    2.99    5.49   0
  -9  -2  -7  432.86    6.98   0
  -4   3   7   25.23    4.12   0
   4  -3  -7   24.37    5.18   0
   4  -3  -7   36.78    4.97   0
  -3   3   7   72.09    5.39   0
   3  -3  -7   70.81    5.37   0
   3  -3  -7   83.21    4.11   0
   2  -3  -7  150.95    4.58   0
  -2   3   7  163.41    6.11   0
   2  -3  -7  177.92    4.77   0
   1  -3  -7   10.35    5.78   0
  -1   3   7   31.69    4.12   0
   1  -3  -7    1.80    3.73   0
   0  -3  -7  291.19    6.76   0
   0   3   7  276.08    6.96   0
  -1  -3  -7   -0.14    4.18   0
   1   3   7   -7.08    5.62   0
  -2  -3  -7   11.45    5.02   0
   2   3   7    9.20    5.70   0
  -3  -3  -7  174.91    6.20   0
   3   3   7  164.44    5.27   0
  -4  -3  -7  229.36    6.48   0
   4   3   7  227.65    6.46   0
  -5  -3  -7  233.99    6.22   0
   5   3   7  238.41    6.42   0
   6   3   7    1.05    4.92   0
  -6  -3  -7    2.73    4.86   0
   7   3   7    2.06    5.12   0
  -7  -3  -7    9.51    5.51   0
   8   3   7    2.56    5.39   0
  -8  -3  -7    1.91    5.65   0
  -9  -3  -7  133.29    5.83   0
  -4   4   7   28.77    5.03   0
   4  -4  -7   16.41    5.19   0
   4  -4  -7   38.61    3.87   0
  -3   4   7   12.69    3.71   0
   3  -4  -7   -3.51    3.82   0
   3  -4  -7    5.90    3.78   0
   2  -4  -7   21.42    4.78   0
  -2   4   7   10.12    4.65   0
   2  -4  -7   16.00    5.07   0
   1  -4  -7    9.44    5.24   0
  -1   4   7   28.30    5.43   0
   1  -4  -7   17.09    3.90   0
   0  -4  -7   24.59    5.62   0
   0   4   7   28.15    5.64   0
  -1  -4  -7   57.37    5.09   0
   1   4   7   55.88    4.30   0
   2   4   7    5.27    4.04   0
  -2  -4  -7    2.34    5.22   0
   3   4   7  139.70    6.09   0
  -3  -4  -7  137.17    4.84   0
   4   4   7  365.70    6.06   0
  -4  -4  -7  396.98    6.93   0
  -5  -4  -7   58.52    6.00   0
   5   4   7   62.81    5.72   0
  -6  -4  -7   76.48    5.07   0
   6   4   7   68.19    4.97   0
   7   4   7   37.86    5.08   0
  -7  -4  -7   31.33    5.43   0
   8   4   7   40.02    6.21   0
  -8  -4  -7   37.71    5.94   0
  -9  -4  -7    1.34    7.13   0
  -3   5   7  119.35    4.82   0
   3  -5  -7  138.18    5.15   0
   3  -5  -7  149.75    5.84   0
   2  -5  -7  144.26    5.54   0
  -2   5   7  162.48    6.23   0
   2  -5  -7  175.28    6.16   0
   1  -5  -7   24.83    5.25   0
  -1   5   7    9.92    5.25   0
   1  -5  -7    6.34    5.40   0
   0   5   7   43.95    4.35   0
   0  -5  -7   24.02    5.20   0
   0  -5  -7   44.46    5.87   0
   1   5   7   20.75    4.92   0
  -1  -5  -7    2.13    4.12   0
   2   5   7  569.36    7.03   0
  -2  -5  -7  606.42    6.85   0
   3   5   7   15.09    5.40   0
  -3  -5  -7   -2.08    5.43   0
   4   5   7   45.43    5.77   0
  -4  -5  -7   33.05    4.43   0
   5   5   7   34.70    5.24   0
  -5  -5  -7   30.70    4.14   0
   6   5   7   60.18    5.45   0
  -6  -5  -7   66.99    5.44   0
  -7  -5  -7    0.19    5.16   0
   7   5   7    2.81    4.93   0
   8   5   7   27.20    5.07   0
  -8  -5  -7   13.57    5.34   0
  -9  -5  -7    2.23    5.24   0
   2  -6  -7   35.87    5.69   0
  -2   6   7   47.13    4.84   0
   2  -6  -7   63.87    4.66   0
   1  -6  -7   10.86    3.62   0
  -1   6   7   19.42    5.04   0
   1  -6  -7    4.83    4.98   0
   0   6   7   -0.24    3.88   0
   0  -6  -7    0.14    3.78   0
   0  -6  -7   -1.20    4.49   0
   1   6   7   45.48    5.68   0
  -1  -6  -7   29.99    4.03   0
   2   6   7  150.88    4.80   0
  -2  -6  -7  158.52    6.00   0
   3   6   7   37.50    5.11   0
  -3  -6  -7   38.70    5.37   0
   4   6   7   70.38    5.71   0
  -4  -6  -7   75.78    5.75   0
   5   6   7   37.41    5.56   0
  -5  -6  -7   18.06    4.83   0
   6   6   7    2.83    5.01   0
  -6  -6  -7    8.96    3.84   0
   7   6   7  132.06    5.80   0
  -7  -6  -7  163.07    5.35   0
   8   6   7   22.60    5.19   0
  -8  -6  -7   36.75    5.13   0
  -9  -6  -7   11.14    5.35   0
   9   6   7   10.79    4.56   0
  -1   7   7   99.05    5.44   0
   1  -7  -7   89.45    5.76   0
   1  -7  -7    0.25    5.59   0
   0   7   7   38.04    5.08   0
   0  -7  -7   44.02    4.91   0
   0  -7  -7   33.95    3.97   0
   1   7   7   71.71    4.78   0
  -1  -7  -7   39.20    5.40   0
  -1  -7  -7   50.56    5.38   0
   2   7   7    3.29    3.76   0
  -2  -7  -7    2.62    5.08   0
  -3  -7  -7   17.32    3.64   0
   3   7   7   20.75    5.37   0
   4   7   7  203.32    5.96   0
  -4  -7  -7  185.58    5.68   0
   5   7   7   -0.62    3.91   0
  -5  -7  -7   -2.56    5.52   0
   6   7   7   -4.52    5.44   0
  -6  -7  -7    9.09    4.20   0
   7   7   7    5.57    3.68   0
  -7  -7  -7   13.36    4.77   0
   8   7   7    4.08    4.98   0
  -8  -7  -7    7.52    3.96   0
  -9  -7  -7   -6.98    5.26   0
   9   7   7   -0.98    4.55   0
   1   8   7   37.47    4.05   0
  -1  -8  -7   45.54    4.10   0
  -1  -8  -7   45.47    5.34   0
   2   8   7   18.99    5.36   0
  -2  -8  -7   27.84    3.86   0
  -2  -8  -7    3.23    4.93   0
   3   8   7   91.95    5.49   0
  -3  -8  -7   88.60    5.22   0
   4   8   7   62.03    3.82   0
  -4  -8  -7   81.13    4.46   0
   5   8   7    7.41    3.77   0
  -5  -8  -7   29.90    5.26   0
   6   8   7   42.86    4.63   0
  -6  -8  -7   38.51    5.35   0
   7   8   7    2.89    4.30   0
  -7  -8  -7   -4.22    5.18   0
  -8  -8  -7   60.32    5.02   0
   8   8   7   41.92    3.97   0
   9   8   7    0.37    4.30   0
   2   9   7    9.40    3.64   0
  -2  -9  -7   18.92    3.73   0
  -2  -9  -7    7.97    3.80   0
   3   9   7   -5.84    3.67   0
  -3  -9  -7  -11.90    5.12   0
  -3  -9  -7  -16.34    5.05   0
   4   9   7   -0.50    4.95   0
  -4  -9  -7    3.30    5.15   0
   5   9   7   -7.48    4.48   0
  -5  -9  -7  -13.66    5.11   0
   6   9   7   74.53    4.35   0
  -6  -9  -7   83.49    4.61   0
   7   9   7   14.43    4.91   0
  -7  -9  -7   -0.74    4.66   0
   8   9   7    6.15    4.68   0
  -4  -7   8   15.63    3.72   0
  -3  -7   8   -4.42    5.27   0
  -2  -7   8   11.50    4.47   0
  -1  -7   8    7.52    4.15   0
   0  -7   8   18.18    5.04   0
   0  -7   8    0.47    3.60   0
   1  -7   8   29.27    5.15   0
  -1   7  -8   26.67    7.04   0
   1  -7   8   22.49    4.85   0
   5   6  -8    3.15    6.12   0
  -5  -6   8    5.68    3.89   0
   4   6  -8   17.45    5.26   0
  -4  -6   8   20.70    3.72   0
   3   6  -8   -2.24    4.30   0
  -3  -6   8  -11.49    5.08   0
  -2  -6   8    5.05    3.80   0
   2   6  -8    0.47    5.59   0
  -1  -6   8   -2.32    4.88   0
   1   6  -8   10.01    6.20   0
   0  -6   8   -3.27    3.72   0
   0   6  -8   -0.91    5.25   0
   1  -6   8  -10.94    5.11   0
  -1   6  -8   -1.38    4.48   0
   2  -6   8   -7.51    3.82   0
  -2   6  -8   19.04    5.50   0
   2  -6   8    1.40    3.61   0
   3  -6   8    3.05    4.55   0
   3  -6   8    0.22    3.38   0
  -5  -5   8  203.07    6.05   0
   5   5  -8  201.78    7.01   0
   4   5  -8  107.23    6.57   0
  -4  -5   8   96.25    5.77   0
   3   5  -8  369.25    8.30   0
  -3  -5   8  317.56    5.68   0
   2   5  -8   26.82    5.04   0
  -2  -5   8   14.19    5.06   0
  -1  -5   8   11.41    4.88   0
   0  -5   8    4.72    3.71   0
   1  -5   8   51.06    4.17   0
   2  -5   8   13.20    3.42   0
  -3   5  -8    0.14    4.90   0
   3  -5   8    2.91    4.81   0
   3  -5   8   -1.35    3.60   0
  -4   5  -8  167.75    6.50   0
   4  -5   8  136.19    5.90   0
   4  -5   8  121.14    6.17   0
  -6  -4   8   -1.70    3.50   0
   6   4  -8    7.42    3.54   0
  -5  -4   8   86.28    5.65   0
   5   4  -8  105.50    5.43   0
  -4  -4   8  381.42    6.71   0
   4   4  -8  426.73    6.35   0
   4   4  -8  394.90    7.68   0
   3   4  -8  -12.10    5.33   0
  -3  -4   8  -14.21    3.73   0
   3   4  -8    2.62    4.96   0
   2   4  -8  112.60    5.65   0
  -2  -4   8   94.98    4.43   0
   2   4  -8   90.19    5.93   0
   1   4  -8    4.55    4.05   0
  -1  -4   8   17.14    3.84   0
   0   4  -8   12.24    4.90   0
   0  -4   8   19.33    5.18   0
   1  -4   8   -7.47    5.52   0
   2  -4   8   14.78    3.87   0
   3  -4   8   12.07    5.11   0
  -4   4  -8  104.75    5.86   0
   4  -4   8   95.15    4.89   0
   5  -4   8   56.83    5.46   0
  -5   4  -8   65.30    3.91   0
   5  -4   8    6.02    5.01   0
  -6  -3   8  -14.71    4.70   0
   6   3  -8  -10.91    4.68   0
   6   3  -8   -2.54    4.59   0
  -5  -3   8  102.19    6.05   0
   5   3  -8  133.02    5.68   0
   5   3  -8  132.53    5.32   0
   4   3  -8  875.63    9.05   0
  -4  -3   8  741.31    9.08   0
   4   3  -8  851.90    9.22   0
  -3  -3   8  424.79    6.16   0
   3   3  -8  410.91    6.69   0
   3   3  -8  452.54    7.53   0
  -2  -3   8  818.63    8.18   0
   2   3  -8  958.46    7.86   0
   2   3  -8  637.53    7.80   0
  -1  -3   8   92.34    4.16   0
   1   3  -8   96.12    4.09   0
   0  -3   8   68.80    5.58   0
   0   3  -8   84.42    5.73   0
  -1   3  -8   29.57    5.04   0
   1  -3   8   37.85    4.08   0
  -2   3  -8   77.27    5.43   0
   2  -3   8   54.62    5.47   0
   3  -3   8  192.86    5.81   0
   4  -3   8   13.13    3.69   0
   5  -3   8   -2.78    5.28   0
  -5   3  -8    3.20    4.24   0
   6  -3   8   18.79    6.12   0
   6  -3   8   22.07    5.26   0
  -6   3  -8   16.52    5.28   0
   6   2  -8   16.68    4.83   0
   6   2  -8    7.92    3.55   0
  -6  -2   8   27.31    4.58   0
  -5  -2   8   -8.73    5.05   0
   5   2  -8   -7.09    4.68   0
   5   2  -8   -9.71    4.70   0
  -4  -2   8   51.57    4.09   0
   4   2  -8   67.34    4.03   0
   4   2  -8   73.81    4.16   0
   3   2  -8  885.13    9.07   0
  -3  -2   8  743.30    8.91   0
   3   2  -8  893.45    8.68   0
  -2  -2   8  654.62    7.69   0
   2   2  -8  765.84    7.31   0
   2   2  -8  792.30    8.43   0
  -1  -2   8   21.71    3.84   0
   1   2  -8   30.05    5.21   0
   0   2  -8   50.00    5.18   0
   0  -2   8   29.38    3.81   0
  -1   2  -8   24.21    4.32   0
   1  -2   8   25.97    5.89   0
  -2   2  -8   -6.71    5.51   0
   2  -2   8   -5.49    5.20   0
   3  -2   8  142.28    5.96   0
  -3   2  -8  161.51    4.75   0
   4  -2   8   36.53    5.26   0
  -4   2  -8   43.75    5.74   0
   5  -2   8   -2.78    4.50   0
   6  -2   8   49.10    5.88   0
  -6   2  -8   60.97    5.28   0
   7  -2   8   10.66    5.76   0
  -7   2  -8   21.18    4.96   0
   7  -2   8    8.02    6.81   0
   5   1  -8   37.46    3.83   0
   5   1  -8   50.10    3.93   0
  -5  -1   8   35.90    4.85   0
  -4  -1   8   -7.67    5.27   0
   4   1  -8   10.52    5.35   0
   4   1  -8    4.13    4.63   0
  -3  -1   8   10.43    5.22   0
   3   1  -8    2.35    5.32   0
   3   1  -8   18.41    5.01   0
  -2  -1   8 2488.19   11.93   0
   2   1  -8 2763.37   12.46   0
   2   1  -8 2820.55   13.86   0
  -1  -1   8  185.89    4.81   0
   1   1  -8  214.15    4.88   0
   0  -1   8  575.71    7.23   0
   0   1  -8  670.43    6.78   0
   1  -1   8  149.07    5.75   0
  -1   1  -8  172.57    4.91   0
   2  -1   8   -2.18    4.22   0
  -2   1  -8   -2.13    5.64   0
   3  -1   8   11.38    5.20   0
  -3   1  -8   23.31    5.46   0
   4  -1   8   31.10    4.89   0
  -4   1  -8   43.22    5.05   0
   5  -1   8    4.35    5.08   0
  -5   1  -8    1.41    3.72   0
   6  -1   8  226.15    7.14   0
  -7   1  -8   22.36    5.25   0
   7  -1   8    1.42    5.77   0
   7  -1   8    8.60    5.38   0
   5   0  -8   11.78    5.18   0
   5   0  -8    6.55    4.93   0
  -5   0   8   13.40    3.71   0
   4   0  -8    3.71    4.84   0
   4   0  -8   -1.39    3.67   0
  -4   0   8    1.68    3.61   0
   3   0  -8  105.96    5.71   0
   3   0  -8  130.34    4.51   0
  -3   0   8   96.01    4.77   0
   2   0  -8   73.92    5.66   0
   2   0  -8   60.17    4.40   0
  -2   0   8   70.99    4.57   0
   1   0  -8  383.28    7.11   0
  -1   0   8  348.16    6.55   0
   0   0  -8 2176.81   11.60   0
   0   0   8 1964.43   11.40   0
  -1   0  -8  142.35    4.85   0
   1   0   8  136.83    6.07   0
  -2   0  -8   17.98    5.53   0
   2   0   8   18.24    5.63   0
   3   0   8   51.28    4.23   0
  -3   0  -8   47.54    5.23   0
   4   0   8    9.17    3.53   0
  -4   0  -8    9.56    4.71   0
   5   0   8  173.97    6.12   0
  -5   0  -8  190.15    6.42   0
  -6   0  -8   51.22    5.74   0
   6   0   8   29.21    5.06   0
   7   0   8   20.75    6.00   0
  -8   0  -8    9.69    4.54   0
   5  -1  -8   -5.23    5.04   0
  -5   1   8    1.14    3.76   0
   5  -1  -8    1.54    4.99   0
   4  -1  -8   80.30    5.40   0
  -4   1   8   87.19    5.07   0
   4  -1  -8   70.21    5.76   0
  -3   1   8  222.02    5.96   0
   3  -1  -8  194.77    6.00   0
   3  -1  -8  228.23    5.10   0
  -2   1   8   46.47    5.46   0
   2  -1  -8   47.30    5.47   0
   2  -1  -8   42.65    4.07   0
   1  -1  -8   54.04    5.83   0
  -1   1   8   42.96    6.18   0
   0  -1  -8  959.64    8.45   0
   0   1   8  922.92    7.93   0
  -1  -1  -8  717.64    8.05   0
   1   1   8  707.86    7.19   0
  -2  -1  -8   22.88    4.22   0
   2   1   8    8.64    4.36   0
  -3  -1  -8  149.83    4.98   0
   3   1   8  113.07    6.14   0
   4   1   8  257.42    6.91   0
  -4  -1  -8  255.23    5.64   0
  -5  -1  -8  198.70    5.88   0
   5   1   8  187.49    6.11   0
  -6  -1  -8    6.74    5.28   0
   6   1   8    6.58    5.69   0
   7   1   8    4.73    5.69   0
  -7  -1  -8    0.70    6.17   0
   8   1   8   55.50   10.74   0
  -4   2   8    4.89    4.81   0
   4  -2  -8    3.73    3.43   0
   4  -2  -8   -1.58    4.84   0
  -3   2   8   19.38    5.23   0
   3  -2  -8    5.88    3.65   0
   3  -2  -8   31.11    4.94   0
   2  -2  -8  286.19    6.07   0
  -2   2   8  244.07    6.41   0
   2  -2  -8  253.51    6.49   0
   1  -2  -8   90.34    5.81   0
  -1   2   8   92.62    4.49   0
   0  -2  -8   16.20    3.98   0
   0   2   8   20.45    5.07   0
  -1  -2  -8   44.39    5.55   0
   1   2   8   57.24    5.62   0
  -2  -2  -8 1462.90   10.46   0
   2   2   8 1445.88   10.59   0
  -3  -2  -8  210.17    6.81   0
   3   2   8  215.77    6.86   0
  -4  -2  -8   37.41    4.16   0
   4   2   8   49.11    5.44   0
   5   2   8   53.41    5.08   0
  -5  -2  -8   54.10    4.96   0
   6   2   8   81.32    5.54   0
  -6  -2  -8   61.44    5.76   0
  -7  -2  -8   95.28    6.42   0
   7   2   8   87.19    5.81   0
   8   2   8   33.62    6.00   0
  -8  -2  -8   33.57    6.26   0
  -9  -2  -8   44.94    4.42   0
  -4   3   8    3.74    4.92   0
   4  -3  -8   20.84    5.07   0
   4  -3  -8   18.14    3.59   0
  -3   3   8    5.13    3.88   0
   3  -3  -8    9.49    5.16   0
   3  -3  -8    2.78    3.93   0
   2  -3  -8  158.51    5.96   0
  -2   3   8  169.78    5.83   0
   2  -3  -8  177.65    5.88   0
   1  -3  -8  526.95    7.72   0
  -1   3   8  547.00    7.75   0
   1  -3  -8  429.82    7.36   0
   0  -3  -8   -6.21    5.41   0
   0   3   8    7.01    5.39   0
  -1  -3  -8  100.02    4.50   0
   1   3   8  103.34    4.30   0
  -2  -3  -8  603.54    6.71   0
   2   3   8  552.87    6.67   0
  -3  -3  -8    6.31    4.36   0
   3   3   8    2.46    4.39   0
  -4  -3  -8  312.89    6.82   0
   4   3   8  271.39    6.89   0
  -5  -3  -8   11.54    5.46   0
   5   3   8   16.38    5.32   0
   6   3   8    9.81    4.68   0
  -6  -3  -8    9.12    5.07   0
   7   3   8   -2.25    5.08   0
  -7  -3  -8    6.08    5.28   0
  -8  -3  -8   44.34    5.75   0
   8   3   8   34.09    6.00   0
  -9  -3  -8    4.81    8.75   0
  -3   4   8  184.85    5.07   0
   3  -4  -8  213.07    6.11   0
   3  -4  -8  173.62    5.39   0
   2  -4  -8   80.45    4.52   0
  -2   4   8   59.83    5.10   0
   2  -4  -8   81.89    4.77   0
   1  -4  -8    7.96    5.77   0
  -1   4   8   11.86    6.03   0
   1  -4  -8   18.87    5.02   0
   0  -4  -8  366.47    5.66   0
   0   4   8  316.66    6.97   0
  -1  -4  -8   18.01    5.33   0
   1   4   8   20.76    4.03   0
  -2  -4  -8  219.26    5.92   0
   2   4   8  200.73    6.16   0
  -3  -4  -8   53.76    4.30   0
   3   4   8   63.24    5.82   0
  -4  -4  -8  280.28    6.84   0
   4   4   8  253.47    6.86   0
  -5  -4  -8    1.86    5.15   0
   5   4   8   -0.89    4.92   0
  -6  -4  -8   47.78    5.02   0
   6   4   8   21.70    5.21   0
   7   4   8   62.30    5.67   0
  -7  -4  -8   70.21    5.66   0
   8   4   8   17.24    5.89   0
  -8  -4  -8    8.56    5.61   0
  -9  -4  -8   38.24    5.66   0
   9   4   8   22.51    6.61   0
   2  -5  -8    6.65    4.94   0
  -2   5   8   -4.16    4.73   0
   2  -5  -8    6.44    4.72   0
   1  -5  -8   26.76    4.61   0
  -1   5   8   16.64    3.93   0
   1  -5  -8   29.75    4.88   0
   0  -5  -8   44.62    4.29   0
   0   5   8   39.56    5.41   0
   0  -5  -8   26.99    5.35   0
  -1  -5  -8    7.16    7.87   0
   1   5   8  627.79    7.03   0
   2   5   8    2.61    4.72   0
  -2  -5  -8   -4.80    5.14   0
   3   5   8   43.41    5.50   0
  -3  -5  -8   21.84    5.46   0
   4   5   8  177.41    4.76   0
  -4  -5  -8  188.12    5.02   0
   5   5   8   11.90    3.57   0
  -5  -5  -8   20.54    3.57   0
  -6  -5  -8  197.13    5.75   0
   6   5   8  223.65    5.90   0
  -7  -5  -8   50.85    5.40   0
   7   5   8   76.98    4.96   0
   8   5   8   23.53    5.27   0
  -8  -5  -8    3.00    5.34   0
   9   5   8    8.85    4.93   0
  -9  -5  -8    2.45    5.30   0
   1  -6  -8  145.95    6.28   0
  -1   6   8  135.69    4.96   0
   1  -6  -8  134.30    5.86   0
   0  -6  -8   -5.86    3.64   0
   0   6   8   16.44    4.99   0
   0  -6  -8    4.53    5.08   0
   1   6   8  105.49    4.32   0
  -1  -6  -8   83.60    5.18   0
   2   6   8   32.47    4.00   0
  -2  -6  -8   23.09    4.37   0
   3   6   8   82.52    5.69   0
  -3  -6  -8   84.71    5.52   0
   4   6   8   90.86    4.43   0
  -4  -6  -8  129.34    5.74   0
   5   6   8   11.19    5.72   0
  -5  -6  -8   -1.50    5.23   0
   6   6   8   36.90    3.95   0
  -6  -6  -8   29.32    3.83   0
   7   6   8   34.52    5.26   0
  -7  -6  -8   48.02    4.87   0
  -8  -6  -8   11.18    4.70   0
   8   6   8   -6.99    4.64   0
   9   6   8   11.43    4.51   0
  -9  -6  -8    6.07    4.87   0
   0  -7  -8   43.30    5.11   0
   0   7   8   30.66    4.46   0
   0  -7  -8   29.79    4.69   0
   1   7   8    5.60    3.68   0
  -1  -7  -8   -7.72    4.45   0
  -1  -7  -8    6.39    5.10   0
   2   7   8   27.46    4.33   0
  -2  -7  -8   17.22    4.87   0
   3   7   8  216.24    5.11   0
  -3  -7  -8  200.40    6.00   0
   4   7   8   41.82    4.01   0
  -4  -7  -8   25.01    5.39   0
   5   7   8   24.49    3.83   0
  -5  -7  -8   10.10    4.22   0
   6   7   8   30.70    5.60   0
  -6  -7  -8   33.02    5.16   0
   7   7   8    2.85    5.34   0
  -7  -7  -8   -3.84    5.47   0
   8   7   8  148.32    5.74   0
  -8  -7  -8  175.17    6.10   0
  -9  -7  -8    4.06    4.69   0
   9   7   8   -2.52    3.40   0
   1   8   8   97.77    5.59   0
  -1  -8  -8   80.42    5.18   0
  -1  -8  -8   98.86    5.53   0
   2   8   8   26.14    5.07   0
  -2  -8  -8  -12.66    5.50   0
  -2  -8  -8    9.59    4.53   0
   3   8   8   -3.60    5.04   0
  -3  -8  -8    6.32    3.52   0
   4   8   8   81.76    4.59   0
  -4  -8  -8   94.86    5.64   0
   5   8   8    6.35    5.29   0
  -5  -8  -8    7.99    4.83   0
   6   8   8    5.97    3.92   0
  -6  -8  -8   -5.88    3.96   0
   7   8   8   13.27    5.20   0
  -7  -8  -8   20.52    3.94   0
   8   8   8   15.05    4.89   0
  -8  -8  -8   39.46    5.16   0
   3   9   8    8.35    3.93   0
  -3  -9  -8  -13.80    5.13   0
   4   9   8   -3.03    5.03   0
  -4  -9  -8  -11.52    5.10   0
   5   9   8   42.81    5.78   0
  -5  -9  -8   52.42    5.68   0
   6   9   8   27.19    5.07   0
  -6  -9  -8   29.77    4.10   0
   7   9   8   19.33    4.98   0
  -7  -9  -8   21.06    4.54   0
   4   6  -9   -0.09    5.37   0
  -4  -6   9   -2.16    4.41   0
   3   6  -9   33.22    5.59   0
  -3  -6   9   35.34    3.93   0
   2   6  -9  124.72    8.38   0
  -2  -6   9  135.85    5.26   0
   1   6  -9   41.67    6.41   0
  -1  -6   9   45.39    5.64   0
   0  -6   9    1.21    3.88   0
  -1   6  -9  135.31    7.27   0
   1  -6   9  106.41    5.88   0
  -2   6  -9   47.82    6.17   0
   2  -6   9   46.85    5.50   0
  -4  -5   9   14.46    4.67   0
   4   5  -9    9.01    4.41   0
  -3  -5   9   44.24    5.47   0
   3   5  -9   63.48    6.08   0
  -2  -5   9   15.37    3.96   0
   2   5  -9   11.97    5.47   0
  -1  -5   9   40.47    5.04   0
   0  -5   9   38.69    5.06   0
   1  -5   9   26.08    5.18   0
   2  -5   9   11.37    4.99   0
  -3   5  -9    0.26    4.79   0
   3  -5   9   10.80    4.95   0
   5   4  -9    1.47    4.73   0
  -5  -4   9    3.04    3.62   0
   5   4  -9    1.98    4.82   0
  -4  -4   9  158.39    5.90   0
   4   4  -9  200.95    6.52   0
   4   4  -9  189.50    6.84   0
  -3  -4   9   26.57    3.89   0
   3   4  -9   23.61    4.47   0
   3   4  -9   14.87    3.53   0
  -2  -4   9   -1.08    5.08   0
   2   4  -9   11.36    4.75   0
   2   4  -9   15.54    4.49   0
  -1  -4   9  201.31    6.04   0
   1   4  -9  218.21    5.00   0
   0  -4   9  153.32    4.71   0
   0   4  -9  160.13    5.82   0
   1  -4   9  105.18    4.72   0
  -1   4  -9  141.41    4.86   0
   2  -4   9   28.00    4.76   0
   3  -4   9   92.43    5.95   0
   4  -4   9   -9.20    4.11   0
  -4   4  -9   -2.28    4.95   0
   5  -4   9    2.02    4.84   0
  -5  -3   9  -12.55    5.48   0
   5   3  -9   20.48    5.28   0
   5   3  -9    7.08    3.24   0
   4   3  -9  139.60    5.88   0
  -4  -3   9  113.14    4.79   0
   4   3  -9  164.23    5.93   0
  -3  -3   9   43.62    3.87   0
   3   3  -9   34.66    4.84   0
   3   3  -9   46.57    4.96   0
  -2  -3   9   41.13    5.13   0
   2   3  -9   34.83    4.54   0
   2   3  -9   17.29    5.38   0
  -1  -3   9  252.33    6.35   0
   1   3  -9  273.21    5.93   0
   0  -3   9  158.28    4.80   0
   0   3  -9  181.58    5.78   0
  -1   3  -9   22.71    5.04   0
   1  -3   9   -3.85    5.49   0
   2  -3   9  168.53    5.12   0
  -2   3  -9  176.95    5.13   0
  -3   3  -9   -8.05    5.11   0
   3  -3   9  -12.37    4.78   0
   4  -3   9   21.19    4.91   0
   5  -3   9   -0.22    5.08   0
  -5  -2   9   18.04    4.30   0
   5   2  -9   23.42    3.90   0
   5   2  -9   22.03    4.59   0
  -4  -2   9   43.14    3.85   0
   4   2  -9   44.84    4.94   0
   4   2  -9   36.35    5.07   0
   3   2  -9    1.37    3.53   0
  -3  -2   9   -3.03    5.34   0
   3   2  -9   -5.08    3.71   0
   2   2  -9 1016.70    9.04   0
  -2  -2   9  885.55    7.97   0
   2   2  -9  982.30    9.12   0
  -1  -2   9  340.14    6.62   0
   1   2  -9  350.49    5.56   0
   0   2  -9    7.47    5.32   0
   0  -2   9   16.03    3.78   0
  -1   2  -9   47.64    4.18   0
   1  -2   9   51.39    4.16   0
  -2   2  -9  412.35    7.19   0
   2  -2   9  372.08    7.15   0
   3  -2   9   32.93    4.78   0
  -3   2  -9   37.47    4.84   0
   4  -2   9  138.53    5.84   0
  -4   2  -9  186.72    5.95   0
   5  -2   9   70.35    5.39   0
   6  -2   9   12.75    5.42   0
   5   1  -9   -2.04    4.04   0
   5   1  -9   13.45    5.02   0
  -5  -1   9    1.36    4.52   0
   4   1  -9   34.83    3.84   0
   4   1  -9    4.26    4.75   0
  -4  -1   9    6.60    4.82   0
  -3  -1   9   20.70    5.38   0
   3   1  -9    1.39    5.38   0
   3   1  -9    8.67    3.88   0
  -2  -1   9  399.14    7.23   0
   2   1  -9  436.26    6.96   0
   2   1  -9  -27.21    7.82   0
  -1  -1   9   46.43    5.06   0
   1   1  -9   64.29    4.35   0
   0  -1   9  318.59    6.01   0
   0   1  -9  334.83    5.15   0
   1  -1   9  143.20    5.66   0
  -1   1  -9  148.58    4.57   0
   2  -1   9  336.87    5.76   0
  -2   1  -9  389.03    5.74   0
   3  -1   9   34.85    5.23   0
  -3   1  -9   54.93    5.34   0
   4  -1   9   62.53    4.05   0
  -4   1  -9   77.24    5.52   0
   5  -1   9    6.58    4.99   0
  -5   1  -9    1.36    5.14   0
   6  -1   9   46.62    5.57   0
   7  -1   9   59.87    6.63   0
   4   0  -9   -3.58    3.73   0
   4   0  -9   -4.66    4.51   0
  -4   0   9    1.92    5.20   0
   3   0  -9   -5.29    5.39   0
   3   0  -9   15.42    3.83   0
  -3   0   9   37.82    5.39   0
   2   0  -9   50.34    5.42   0
   2   0  -9   36.08    5.53   0
  -2   0   9   34.14    5.85   0
  -1   0   9  254.99    6.15   0
   1   0  -9  268.63    6.45   0
   0   0   9 2513.70   12.17   0
   0   0  -9 2669.21   12.18   0
   1   0   9  357.92    6.72   0
  -1   0  -9  356.55    5.38   0
   2   0   9    8.23    5.82   0
  -2   0  -9    7.94    4.07   0
   3   0   9    7.50    5.55   0
  -3   0  -9   -1.08    3.91   0
   4   0   9  193.79    6.29   0
  -4   0  -9  206.89    5.02   0
  -5   0  -9    1.58    5.43   0
   5   0   9    5.23    5.15   0
  -6   0  -9  118.42    5.79   0
   6   0   9   95.70    6.02   0
   7   0   9   -4.18    5.63   0
   8   0   9    1.59    7.04   0
   8   0   9    2.08    6.41   0
   4  -1  -9   23.77    3.77   0
  -4   1   9    4.31    5.19   0
   4  -1  -9   22.32    3.66   0
   3  -1  -9    1.39    5.23   0
  -3   1   9    3.56    5.47   0
   3  -1  -9    9.08    4.73   0
  -2   1   9   33.13    5.74   0
   2  -1  -9   41.49    4.04   0
   2  -1  -9   33.92    3.97   0
   1  -1  -9  112.20    5.75   0
  -1   1   9  110.36    5.96   0
   0  -1  -9  939.47    7.58   0
   0   1   9  885.58    7.64   0
  -1  -1  -9  260.88    6.24   0
   1   1   9  258.12    5.03   0
  -2  -1  -9  104.13    5.92   0
   2   1   9  106.75    6.33   0
  -3  -1  -9  987.99    9.34   0
   3   1   9 1052.71    9.24   0
   4   1   9   34.71    4.23   0
  -4  -1  -9   40.37    4.08   0
  -5  -1  -9   -3.13    3.65   0
   5   1   9    0.66    5.16   0
  -6  -1  -9   44.91    5.60   0
   6   1   9   34.45    5.26   0
  -7  -1  -9   36.50    5.59   0
   7   1   9   36.49    5.50   0
   8   1   9   78.83    7.57   0
   4  -2  -9   12.98    4.78   0
  -4   2   9   19.80    4.94   0
   4  -2  -9   10.25    5.04   0
  -3   2   9   19.63    5.19   0
   3  -2  -9   13.22    5.13   0
   3  -2  -9   21.74    5.21   0
  -2   2   9    4.60    5.55   0
   2  -2  -9   12.47    5.29   0
   2  -2  -9   -1.47    4.91   0
   1  -2  -9   99.56    4.50   0
  -1   2   9   93.39    4.70   0
   0  -2  -9   14.04    5.18   0
   0   2   9   21.97    4.23   0
  -1  -2  -9  125.09    5.57   0
   1   2   9  141.82    5.66   0
  -2  -2  -9 5099.29   16.77   0
   2   2   9 4968.63   16.04   0
  -3  -2  -9  650.32    6.93   0
   3   2   9  626.01    7.04   0
  -4  -2  -9   13.88    5.47   0
   4   2   9    2.18    5.46   0
   5   2   9   15.64    4.74   0
  -5  -2  -9    3.75    5.08   0
   6   2   9   58.76    5.52   0
  -6  -2  -9   63.40    5.79   0
  -7  -2  -9    8.96    5.02   0
   7   2   9    6.29    4.54   0
  -8  -2  -9    0.12    6.13   0
   8   2   9    6.26    4.76   0
  -3   3   9   18.29    3.75   0
   3  -3  -9   27.35    4.78   0
   3  -3  -9    7.63    4.59   0
  -2   3   9    3.42    3.78   0
   2  -3  -9    3.90    4.87   0
   2  -3  -9   -7.30    3.60   0
   1  -3  -9   84.44    5.56   0
  -1   3   9   65.64    5.33   0
   1  -3  -9   -0.82    4.02   0
   0  -3  -9   19.29    4.92   0
   0   3   9   12.31    5.50   0
  -1  -3  -9    5.69    4.92   0
   1   3   9    7.94    3.94   0
  -2  -3  -9   87.73    4.15   0
   2   3   9   97.13    5.12   0
  -3  -3  -9 1227.40    8.69   0
   3   3   9 1179.69    9.56   0
  -4  -3  -9   -6.91    5.81   0
   4   3   9    1.93    5.14   0
  -5  -3  -9  476.10    6.30   0
   5   3   9  448.26    6.41   0
   6   3   9    3.39    5.12   0
  -6  -3  -9    2.68    5.30   0
   7   3   9    1.67    4.79   0
  -7  -3  -9   -8.54    4.59   0
  -8  -3  -9   -5.32    6.02   0
   8   3   9    5.02    4.48   0
   9   3   9    3.34    6.50   0
  -9  -3  -9    0.15    6.15   0
  -2   4   9   27.99    5.05   0
   2  -4  -9    1.67    3.77   0
   2  -4  -9    6.64    5.08   0
   1  -4  -9   55.98    4.01   0
  -1   4   9   48.29    5.86   0
   1  -4  -9   49.31    5.36   0
   0  -4  -9   75.29    4.98   0
   0   4   9   58.67    4.37   0
  -1  -4  -9   -1.18    5.18   0
   1   4   9    4.48    5.10   0
  -2  -4  -9  224.16    5.70   0
   2   4   9  213.91    4.96   0
  -3  -4  -9  313.77    5.75   0
   3   4   9  274.27    6.83   0
  -4  -4  -9 3083.56   14.11   0
   4   4   9 2897.81   13.16   0
  -5  -4  -9  520.21    7.42   0
   5   4   9  496.25    6.71   0
  -6  -4  -9    0.85    4.98   0
   6   4   9   15.84    4.96   0
   7   4   9   21.44    5.06   0
  -7  -4  -9   27.68    5.32   0
   8   4   9   14.96    5.26   0
  -8  -4  -9    5.35    4.87   0
  -9  -4  -9   -1.94    6.08   0
   9   4   9    0.09    5.45   0
  -2   5   9   36.27    5.69   0
   2  -5  -9   38.16    3.88   0
   1  -5  -9  109.41    5.41   0
  -1   5   9   97.96    5.66   0
   1  -5  -9   92.38    5.63   0
   0  -5  -9   -2.92    3.55   0
   0   5   9    9.22    3.64   0
   0  -5  -9   11.41    4.70   0
  -1  -5  -9  120.02    4.48   0
   1   5   9  114.35    5.45   0
  -2  -5  -9   -1.27    3.68   0
   2   5   9   -1.86    4.73   0
  -3  -5  -9    3.63    4.83   0
   3   5   9    8.04    3.85   0
  -4  -5  -9  187.73    6.17   0
   4   5   9  177.51    6.27   0
  -5  -5  -9  225.15    6.50   0
   5   5   9  207.17    5.56   0
  -6  -5  -9    9.71    4.74   0
   6   5   9   10.45    4.20   0
  -7  -5  -9   23.38    5.14   0
   7   5   9   18.80    4.86   0
   8   5   9   28.93    4.76   0
  -8  -5  -9   28.38    5.08   0
   9   5   9   21.86    5.36   0
  -9  -5  -9   22.70    5.04   0
   1  -6  -9   74.93    4.42   0
  -1   6   9   81.02    4.67   0
   1  -6  -9   84.64    5.23   0
   0  -6  -9   -5.22    3.71   0
   0   6   9   14.56    5.22   0
   0  -6  -9    0.31    3.65   0
  -1  -6  -9    0.67    4.92   0
   1   6   9    4.69    4.66   0
  -2  -6  -9   39.58    5.07   0
   2   6   9   51.27    3.81   0
   3   6   9  190.56    4.84   0
  -3  -6  -9  197.07    5.36   0
   4   6   9   11.76    3.61   0
  -4  -6  -9    4.81    3.63   0
  -5  -6  -9  193.67    6.32   0
   5   6   9  187.64    5.00   0
  -6  -6  -9 1049.64    9.59   0
   6   6   9 1049.02    9.80   0
  -7  -6  -9  272.27    5.78   0
   7   6   9  276.42    5.68   0
   8   6   9   24.47    5.09   0
  -8  -6  -9   29.31    5.23   0
   9   6   9    7.20    4.16   0
  -9  -6  -9    4.68    5.18   0
  -1  -7  -9   -3.71    5.28   0
   1   7   9   55.68    4.91   0
  -1  -7  -9   34.36    5.08   0
   2   7   9   -3.79    4.48   0
  -2  -7  -9    1.55    4.05   0
   3   7   9   70.94    5.27   0
  -3  -7  -9   75.12    4.05   0
   4   7   9   27.67    5.30   0
  -4  -7  -9   14.58    4.74   0
   5   7   9   64.97    4.28   0
  -5  -7  -9   75.83    5.62   0
   6   7   9   56.72    4.98   0
  -6  -7  -9   56.57    4.08   0
   7   7   9   84.80    5.51   0
  -7  -7  -9   57.57    4.09   0
  -8  -7  -9   44.28    4.72   0
   8   7   9   38.97    3.87   0
   2   8   9    1.34    3.80   0
  -2  -8  -9    9.84    4.87   0
  -2  -8  -9    0.08    5.20   0
   3   8   9   54.26    4.66   0
  -3  -8  -9    4.11    3.86   0
   4   8   9   43.33    3.65   0
  -4  -8  -9   28.82    5.03   0
   5   8   9   98.60    5.57   0
  -5  -8  -9   91.63    4.63   0
   6   8   9   34.54    4.67   0
  -6  -8  -9   -1.40    3.95   0
   7   8   9   14.13    4.11   0
  -7  -8  -9   17.32    4.29   0
   8   8   9  215.90    6.40   0
   5   9   9   44.33    4.80   0
  -1  -6  10   13.58    3.80   0
   1   6 -10   24.04    5.17   0
   0  -6  10   14.62    4.93   0
  -3  -5  10   13.59    4.53   0
   3   5 -10   18.02    5.02   0
  -2  -5  10   27.54    5.19   0
   2   5 -10   49.80    4.95   0
  -1  -5  10   35.81    4.49   0
   0  -5  10   47.87    4.02   0
   1  -5  10    0.76    3.91   0
   2  -5  10    8.00    4.60   0
  -4  -4  10    1.51    4.59   0
   4   4 -10   16.72    4.84   0
   4   4 -10    2.28    3.47   0
  -3  -4  10    4.83    4.02   0
   3   4 -10    4.55    4.42   0
   3   4 -10    6.28    3.52   0
  -2  -4  10    8.21    5.03   0
   2   4 -10    4.99    4.83   0
   2   4 -10   -3.93    5.00   0
  -1  -4  10  -14.62    5.27   0
   1   4 -10    6.98    4.88   0
   0   4 -10   74.46    4.35   0
   0  -4  10   52.94    5.49   0
   1  -4  10   16.87    3.57   0
  -1   4 -10   -4.84    4.23   0
   2  -4  10   24.47    4.45   0
   3  -4  10  157.48    6.07   0
   4  -4  10  220.44    6.40   0
   4   3 -10   -4.96    3.34   0
  -4  -3  10   -8.70    3.37   0
   4   3 -10   -0.12    4.40   0
  -3  -3  10   20.37    5.06   0
   3   3 -10   27.60    3.85   0
   3   3 -10    4.49    4.62   0
  -2  -3  10  208.41    6.11   0
   2   3 -10  235.71    5.45   0
   2   3 -10  221.65    6.56   0
  -1  -3  10   -1.41    4.99   0
   1   3 -10   23.92    3.80   0
   0  -3  10    6.30    3.74   0
   0   3 -10   -4.87    5.08   0
  -1   3 -10   41.61    5.33   0
   1  -3  10   26.59    5.27   0
   2  -3  10   28.96    4.85   0
  -2   3 -10    0.59    3.99   0
   3  -3  10   12.73    5.28   0
  -3   3 -10   -0.28    4.08   0
   4  -3  10    1.20    3.83   0
   5  -3  10    7.84    4.84   0
  -4  -2  10   21.82    4.74   0
   4   2 -10   17.86    5.38   0
   4   2 -10   18.65    5.46   0
  -3  -2  10   65.62    5.39   0
   3   2 -10   54.17    4.11   0
   3   2 -10   59.69    5.36   0
   2   2 -10    0.15    5.03   0
  -2  -2  10    2.37    5.09   0
   2   2 -10    2.95    4.49   0
   1   2 -10    1.54    4.74   0
  -1  -2  10    8.34    4.07   0
   0   2 -10   22.83    3.71   0
   0  -2  10   26.87    5.18   0
  -1   2 -10  124.82    4.55   0
   1  -2  10  108.10    5.57   0
   2  -2  10  213.19    6.15   0
  -2   2 -10  268.66    6.49   0
   3  -2  10   26.39    4.05   0
  -3   2 -10   33.61    4.06   0
   4  -2  10   36.77    5.08   0
  -4   2 -10   30.30    3.69   0
   5  -2  10   48.76    7.05   0
   6  -2  10   87.17    5.72   0
   4   1 -10    5.16    3.89   0
   4   1 -10   12.54    4.00   0
  -4  -1  10    5.95    4.76   0
  -3  -1  10    4.55    5.39   0
   3   1 -10    5.62    4.00   0
   3   1 -10   13.70    4.98   0
  -2  -1  10   25.34    3.65   0
   2   1 -10   30.59    3.89   0
   2   1 -10   15.67    3.82   0
  -1  -1  10    7.25    5.25   0
   1   1 -10    4.12    5.05   0
   0  -1  10  530.68    7.39   0
   0   1 -10  623.37    7.58   0
   1  -1  10  172.72    5.79   0
  -1   1 -10  181.16    4.93   0
   2  -1  10   72.35    5.75   0
  -2   1 -10   90.19    5.67   0
   3  -1  10  202.27    5.76   0
  -3   1 -10  214.27    6.64   0
   4  -1  10   -9.42    3.63   0
  -4   1 -10   -0.50    3.44   0
   5  -1  10   48.75    4.11   0
  -5   1 -10   59.31    4.38   0
  -6   1 -10   15.16    3.89   0
   6  -1  10   19.44    5.03   0
   7  -1  10   10.83    5.20   0
   4   0 -10   -9.04    3.74   0
   4   0 -10  -12.73    4.48   0
  -4   0  10   -3.71    4.77   0
   3   0 -10   50.91    5.24   0
   3   0 -10   41.57    4.10   0
  -3   0  10    6.72    4.36   0
   2   0 -10    0.18    4.85   0
   2   0 -10    3.98    3.51   0
  -2   0  10    2.58    5.28   0
   1   0 -10  398.00    6.55   0
  -1   0  10  372.96    6.49   0
   0   0  10   -0.45    5.33   0
   0   0 -10   14.76    3.91   0
   1   0  10   46.31    5.58   0
  -1   0 -10   60.25    4.32   0
   2   0  10   -5.10    5.43   0
  -2   0 -10   -1.99    3.83   0
   3   0  10  -16.03    5.45   0
  -3   0 -10   -0.48    4.08   0
  -4   0 -10  944.59    8.54   0
   4   0  10  870.76    8.53   0
  -5   0 -10   30.64    4.10   0
   5   0  10   26.64    5.19   0
  -6   0 -10   78.20    5.21   0
   6   0  10   57.18    4.10   0
  -7   0 -10  102.46    6.36   0
   7   0  10  103.83    6.31   0
   3  -1 -10  109.04    4.72   0
  -3   1  10   99.89    5.85   0
   3  -1 -10  102.23    5.64   0
   2  -1 -10   80.46    4.95   0
  -2   1  10   50.07    5.54   0
   2  -1 -10   59.50    5.33   0
  -1   1  10   -9.05    5.52   0
   1  -1 -10   27.07    5.41   0
   0   1  10  131.98    6.08   0
   0  -1 -10  126.35    5.48   0
  -1  -1 -10   67.44    4.10   0
   1   1  10   72.67    4.23   0
  -2  -1 -10  207.02    6.05   0
   2   1  10  204.55    5.90   0
   3   1  10  311.23    6.80   0
  -3  -1 -10  335.84    5.67   0
  -4  -1 -10   36.89    4.06   0
   4   1  10   30.55    5.14   0
  -5  -1 -10   25.88    5.25   0
   5   1  10   23.48    3.68   0
  -6  -1 -10   54.96    5.20   0
   6   1  10   35.67    5.36   0
  -7  -1 -10   96.43    6.55   0
   7   1  10   78.66    6.35   0
   8   1  10    3.65    5.51   0
  -8  -1 -10    2.20    5.72   0
  -3   2  10  -13.80    5.31   0
   3  -2 -10   10.78    5.08   0
   3  -2 -10    2.54    5.23   0
  -2   2  10   10.51    4.95   0
   2  -2 -10   18.60    5.04   0
   2  -2 -10    2.10    4.35   0
  -1   2  10    5.97    5.19   0
   1  -2 -10   17.47    5.24   0
   0  -2 -10    2.26    4.87   0
   0   2  10  -10.10    5.09   0
  -1  -2 -10  220.15    5.00   0
   1   2  10  217.99    5.08   0
  -2  -2 -10  162.89    4.98   0
   2   2  10  171.55    5.99   0
  -3  -2 -10  154.38    6.32   0
   3   2  10  180.92    5.04   0
   4   2  10   36.76    4.00   0
  -4  -2 -10   41.00    5.10   0
   5   2  10   42.56    4.01   0
  -5  -2 -10   54.33    3.77   0
  -6  -2 -10  367.40    6.39   0
   6   2  10  357.36    6.38   0
  -7  -2 -10  120.07    6.52   0
   7   2  10  119.64    6.38   0
  -8  -2 -10    7.16    6.01   0
   8   2  10    9.87    5.54   0
  -2   3  10    1.26    4.64   0
   2  -3 -10    0.36    3.86   0
   2  -3 -10    6.31    4.95   0
  -1   3  10  219.10    6.04   0
   1  -3 -10  210.11    5.99   0
   1  -3 -10  -36.28    6.35   0
   0  -3 -10   13.14    4.65   0
   0   3  10   23.16    5.29   0
  -1  -3 -10    2.45    3.84   0
   1   3  10    6.31    4.80   0
  -2  -3 -10   58.65    3.99   0
   2   3  10   16.82    5.55   0
  -3  -3 -10    8.39    3.95   0
   3   3  10    1.48    5.06   0
  -4  -3 -10  588.90    8.10   0
   4   3  10  541.66    8.16   0
  -5  -3 -10   -8.63    4.77   0
   5   3  10    2.64    5.02   0
   6   3  10   -6.58    5.03   0
  -6  -3 -10   -2.88    5.16   0
   7   3  10   -0.50    3.49   0
  -7  -3 -10   -1.62    4.92   0
  -8  -3 -10   80.53    5.63   0
   8   3  10   85.81    6.00   0
  -2   4  10    0.31    4.67   0
   2  -4 -10   -6.07    3.71   0
   2  -4 -10   -6.63    4.93   0
  -1   4  10   23.10    5.37   0
   1  -4 -10   20.42    5.30   0
   1  -4 -10   -6.48    3.52   0
   0  -4 -10   20.00    3.84   0
   0   4  10   18.98    4.19   0
  -1  -4 -10    1.38    3.75   0
   1   4  10   13.92    5.14   0
  -2  -4 -10   13.09    5.37   0
   2   4  10   -4.77    4.27   0
  -3  -4 -10  110.23    4.41   0
   3   4  10  117.16    4.41   0
  -4  -4 -10  605.22    7.86   0
   4   4  10  583.20    7.68   0
  -5  -4 -10  742.57    7.53   0
   5   4  10  766.20    8.01   0
  -6  -4 -10   -9.92    4.69   0
   6   4  10    5.70    3.52   0
   7   4  10   48.11    5.23   0
  -7  -4 -10   37.21    5.15   0
   8   4  10  154.79    6.53   0
  -8  -4 -10  170.56    5.93   0
  -1   5  10   -5.01    3.87   0
   1  -5 -10    6.35    3.57   0
   1  -5 -10    2.18    5.24   0
   0  -5 -10   85.11    5.68   0
   0   5  10   62.84    5.22   0
   0  -5 -10  -16.66    3.95   0
  -1  -5 -10    1.55    4.70   0
   1   5  10   18.92    3.73   0
  -2  -5 -10   -3.02    3.65   0
   2   5  10    1.94    3.69   0
  -3  -5 -10   21.83    4.76   0
   3   5  10   27.64    5.33   0
  -4  -5 -10   56.37    5.49   0
   4   5  10   39.90    5.64   0
  -5  -5 -10   89.04    5.97   0
   5   5  10   88.53    5.97   0
  -6  -5 -10  225.37    6.14   0
   6   5  10  192.03    5.01   0
   7   5  10   13.93    4.48   0
  -7  -5 -10    8.15    5.05   0
   8   5  10   21.27    5.07   0
  -8  -5 -10   23.90    4.72   0
   0  -6 -10   12.45    5.07   0
   0   6  10    6.07    3.56   0
   0  -6 -10   -3.18    5.06   0
  -1  -6 -10   30.37    5.32   0
   1   6  10   25.15    3.97   0
  -2  -6 -10   -8.31    5.41   0
   2   6  10   23.80    5.25   0
  -3  -6 -10   17.74    3.62   0
   3   6  10    2.63    3.71   0
  -4  -6 -10   21.30    4.00   0
   4   6  10   20.26    4.05   0
  -5  -6 -10   21.31    4.95   0
   5   6  10    1.24    4.42   0
  -6  -6 -10  491.21    7.42   0
   6   6  10  461.44    7.63   0
  -7  -6 -10  565.44    7.37   0
   7   6  10  542.78    8.34   0
   8   6  10    8.24    5.21   0
  -8  -6 -10   11.69    4.41   0
  -2  -7 -10    2.27    4.50   0
   2   7  10    5.93    3.74   0
  -3  -7 -10   -0.50    3.81   0
   3   7  10    9.07    5.05   0
  -4  -7 -10  -14.55    3.95   0
   4   7  10   -6.36    3.81   0
  -5  -7 -10    8.39    5.08   0
   5   7  10    7.77    5.02   0
  -6  -7 -10   -1.09    4.91   0
   6   7  10    8.94    3.72   0
  -7  -7 -10   -9.02    4.02   0
   7   7  10  -13.59    4.98   0
  -8  -7 -10   36.44    4.56   0
   8   7  10   38.34    4.81   0
   4   8  10    9.50    3.54   0
  -4  -8 -10   -2.45    4.94   0
   5   8  10    0.67    3.56   0
  -5  -8 -10  -14.85    3.71   0
   6   8  10   -6.70    3.91   0
  -6  -8 -10   -0.57    3.82   0
   7   8  10    7.60    3.89   0
  -1  -5  11    1.09    3.49   0
   0  -5  11    6.07    3.93   0
   1  -5  11   12.24    4.35   0
  -2  -4  11   11.17    5.14   0
   2   4 -11   32.69    4.67   0
   2   4 -11   31.87    4.48   0
  -1  -4  11   -3.24    4.71   0
   1   4 -11   -1.13    4.15   0
   0   4 -11   -1.96    4.48   0
   0  -4  11   11.32    4.96   0
   1  -4  11  117.06    4.80   0
  -1   4 -11  105.86    6.11   0
   2  -4  11    0.10    4.26   0
   3  -4  11  -10.66    5.09   0
  -3  -3  11   -3.24    4.60   0
   3   3 -11   10.00    4.32   0
   3   3 -11  -12.60    4.81   0
  -2  -3  11    9.45    3.72   0
   2   3 -11    7.32    5.04   0
   2   3 -11    5.96    4.21   0
  -1  -3  11   14.43    3.60   0
   1   3 -11   -2.95    4.97   0
   0  -3  11  105.84    5.82   0
   0   3 -11  138.00    4.66   0
  -1   3 -11   21.40    5.47   0
   1  -3  11   19.64    3.56   0
   2  -3  11  101.26    5.78   0
  -2   3 -11  115.15    5.16   0
   3  -3  11   34.15    4.75   0
  -3   3 -11   38.06    4.31   0
   4  -3  11   -0.23    4.65   0
  -3  -2  11   -4.63    4.88   0
   3   2 -11    3.98    3.45   0
   3   2 -11    8.18    4.86   0
  -2  -2  11    6.61    4.93   0
   2   2 -11   10.02    4.95   0
   2   2 -11   -1.45    3.83   0
   1   2 -11   26.11    4.82   0
  -1  -2  11   26.85    3.76   0
   0   2 -11   -1.13    4.50   0
   0  -2  11   -0.69    5.07   0
  -1   2 -11   -1.17    4.64   0
   1  -2  11    5.95    4.69   0
   2  -2  11   13.02    3.77   0
  -2   2 -11   20.31    4.48   0
   3  -2  11   38.25    3.89   0
  -3   2 -11   53.74    4.81   0
   4  -2  11   77.93    5.70   0
  -4   2 -11   97.71    5.77   0
   5  -2  11    7.34    4.05   0
  -5   2 -11   47.66    4.82   0
   3   1 -11   -1.17    3.49   0
   3   1 -11  -18.21    4.78   0
  -3  -1  11   -1.12    3.56   0
  -2  -1  11   16.38    4.91   0
   2   1 -11    9.17    5.32   0
   2   1 -11    7.36    3.60   0
  -1  -1  11   -6.85    3.81   0
   1   1 -11   -4.21    3.87   0
   0  -1  11   11.49    5.04   0
   0   1 -11   18.21    4.39   0
   1  -1  11   -5.16    5.16   0
  -1   1 -11    0.53    5.12   0
   2  -1  11   66.87    5.49   0
  -2   1 -11   81.96    5.11   0
   3  -1  11   23.58    5.47   0
  -3   1 -11   15.95    5.52   0
   4  -1  11   68.48    5.78   0
  -4   1 -11   85.74    4.54   0
   5  -1  11   56.83    4.86   0
  -5   1 -11   58.72    5.16   0
  -6   1 -11    6.81    5.02   0
   6  -1  11   -3.43    3.86   0
   3   0 -11   10.25    4.93   0
   3   0 -11   17.59    4.07   0
  -3   0  11    0.29    3.55   0
   2   0 -11   -7.23    4.43   0
   2   0 -11   -5.20    3.58   0
  -2   0  11   -1.09    5.06   0
   1   0 -11    0.22    3.76   0
  -1   0  11    6.26    4.82   0
   0   0 -11   90.17    4.17   0
   0   0  11   80.05    5.10   0
   1   0  11    4.56    5.20   0
  -1   0 -11    8.86    3.73   0
   2   0  11   -4.16    5.68   0
  -2   0 -11    4.98    4.84   0
  -3   0 -11   21.32    5.17   0
   3   0  11    9.62    4.33   0
  -4   0 -11   12.81    3.72   0
   4   0  11    7.08    3.75   0
  -5   0 -11   75.42    5.77   0
   5   0  11   92.48    5.51   0
  -6   0 -11    4.05    4.50   0
   6   0  11    7.61    4.89   0
   7   0  11   86.89    6.12   0
   2  -1 -11    8.75    5.07   0
  -2   1  11    0.79    4.85   0
   2  -1 -11   -2.92    5.10   0
   1  -1 -11    9.75    3.81   0
  -1   1  11    8.21    3.59   0
   0  -1 -11   29.20    5.11   0
   0   1  11    8.32    4.72   0
   1   1  11    4.64    5.10   0
  -1  -1 -11    6.64    3.85   0
   2   1  11   52.53    4.02   0
  -2  -1 -11   48.16    4.03   0
  -3  -1 -11   93.59    5.62   0
   3   1  11   70.71    5.34   0
  -4  -1 -11   68.49    4.43   0
   4   1  11   87.80    5.79   0
  -5  -1 -11   -2.19    4.68   0
   5   1  11   -3.29    5.15   0
  -6  -1 -11  133.15    5.63   0
   6   1  11  102.87    4.76   0
  -7  -1 -11   -9.63    5.28   0
   7   1  11    6.73    4.81   0
  -2   2  11    3.67    3.72   0
   2  -2 -11   11.24    5.26   0
   2  -2 -11   12.27    4.78   0
  -1   2  11    8.89    3.68   0
   1  -2 -11   14.38    4.54   0
   0   2  11   28.85    4.01   0
   0  -2 -11   21.90    4.78   0
  -1  -2 -11  132.85    5.62   0
   1   2  11  138.66    5.64   0
  -2  -2 -11   20.37    3.89   0
   2   2  11   11.62    3.95   0
   3   2  11   45.56    5.65   0
  -3  -2 -11   62.35    4.05   0
   4   2  11    6.06    4.10   0
  -4  -2 -11   15.06    5.81   0
   5   2  11   86.60    5.46   0
  -5  -2 -11  125.33    5.70   0
  -6  -2 -11  100.65    4.53   0
   6   2  11   90.12    4.37   0
  -7  -2 -11   -0.83    5.09   0
   7   2  11   -2.28    4.99   0
  -1   3  11   15.32    4.59   0
   1  -3 -11   21.47    3.71   0
   1  -3 -11   17.65    4.67   0
   0  -3 -11   30.79    5.24   0
   0   3  11    8.96    5.76   0
  -1  -3 -11   17.93    3.75   0
   1   3  11   18.21    3.85   0
  -2  -3 -11   91.07    4.32   0
   2   3  11   77.86    4.14   0
  -3  -3 -11  -15.26    3.81   0
   3   3  11   -4.17    5.40   0
  -4  -3 -11   63.06    4.55   0
   4   3  11   51.79    5.29   0
   5   3  11  145.83    5.78   0
  -5  -3 -11  149.34    5.92   0
   6   3  11    4.91    3.67   0
  -6  -3 -11   13.08    4.45   0
   7   3  11    3.93    4.96   0
  -7  -3 -11   -1.51    4.46   0
  -8  -3 -11  128.44    6.14   0
   8   3  11  116.61    6.28   0
  -1   4  11   -4.89    3.59   0
   1  -4 -11   -9.08    3.36   0
   1  -4 -11  -20.60    4.87   0
   0  -4 -11   24.49    5.38   0
   0   4  11   16.37    4.74   0
  -1  -4 -11    9.74    3.84   0
   1   4  11   10.55    3.88   0
  -2  -4 -11   44.72    4.45   0
   2   4  11   42.39    5.18   0
  -3  -4 -11  104.93    4.15   0
   3   4  11   67.58    5.52   0
  -4  -4 -11   95.83    5.91   0
   4   4  11  111.05    5.67   0
  -5  -4 -11   15.49    4.19   0
   5   4  11   11.38    5.63   0
   6   4  11    4.93    4.11   0
  -6  -4 -11    4.81    5.35   0
   7   4  11    0.72    4.15   0
  -7  -4 -11  -11.55    4.90   0
   8   4  11   18.32    5.07   0
  -8  -4 -11    3.95    5.39   0
   0  -5 -11    4.88    4.67   0
   0   5  11   -0.24    3.91   0
   0  -5 -11  -10.48    5.33   0
  -1  -5 -11   43.85    3.84   0
   1   5  11   29.87    5.20   0
  -2  -5 -11   31.97    5.21   0
   2   5  11   42.48    5.31   0
  -3  -5 -11   81.24    5.12   0
   3   5  11   58.82    4.43   0
  -4  -5 -11   22.09    3.82   0
   4   5  11   19.17    3.64   0
  -5  -5 -11   20.35    3.72   0
   5   5  11   28.30    4.46   0
  -6  -5 -11  193.94    5.80   0
   6   5  11  200.58    5.82   0
   7   5  11   46.52    4.00   0
  -7  -5 -11   51.55    4.79   0
   8   5  11   15.15    4.52   0
  -8  -5 -11    9.51    5.12   0
  -1  -6 -11   21.80    3.80   0
   1   6  11   49.51    3.96   0
  -2  -6 -11    4.71    3.70   0
   2   6  11   14.80    3.47   0
  -3  -6 -11    0.41    5.10   0
   3   6  11    4.58    4.36   0
  -4  -6 -11    4.90    3.59   0
   4   6  11    8.99    4.90   0
  -5  -6 -11   52.38    4.23   0
   5   6  11   32.33    4.93   0
  -6  -6 -11   35.58    5.10   0
   6   6  11   29.28    5.06   0
   7   6  11   17.67    3.81   0
  -7  -6 -11   27.23    5.26   0
  -3  -7 -11    4.01    4.56   0
   3   7  11   -0.57    3.67   0
  -4  -7 -11   55.68    5.41   0
   4   7  11   45.68    5.38   0
  -5  -7 -11   74.38    5.37   0
   5   7  11   58.39    5.22   0
  -6  -7 -11   29.23    3.85   0
   6   7  11  -11.59    4.21   0
   7   7  11    3.56    4.37   0
  -1  -3  12   20.76    4.98   0
   1   3 -12   35.13    3.69   0
   0  -3  12   -0.01    3.96   0
   0   3 -12   19.11    5.00   0
  -1   3 -12    1.97    5.02   0
   1  -3  12   -0.09    5.08   0
   2  -3  12   -7.84    4.53   0
  -2   3 -12    7.71    4.13   0
   3  -3  12   -1.27    3.72   0
  -3   3 -12   -6.11    4.60   0
  -2  -2  12   -3.97    4.96   0
   2   2 -12    2.01    4.60   0
  -1  -2  12   -8.68    4.93   0
   1   2 -12  148.72    4.78   0
   0  -2  12   20.14    4.64   0
   0   2 -12    3.14    3.94   0
   1  -2  12   27.48    3.86   0
  -1   2 -12   17.00    5.02   0
   2  -2  12   10.13    4.02   0
  -2   2 -12   19.80    4.99   0
   3  -2  12   15.77    3.78   0
  -3   2 -12    0.61    3.68   0
   4  -2  12   13.84    3.67   0
  -4   2 -12    0.63    3.82   0
   2   1 -12   34.30    4.00   0
   2   1 -12   26.59    5.22   0
  -2  -1  12   34.56    3.94   0
  -1  -1  12   16.54    4.59   0
   1   1 -12    9.85    3.81   0
   0  -1  12   53.62    3.85   0
   0   1 -12   53.01    5.30   0
   1  -1  12   68.03    3.85   0
  -1   1 -12   78.96    5.19   0
   2  -1  12    0.05    4.03   0
  -2   1 -12    8.68    3.83   0
   3  -1  12    7.44    4.71   0
  -3   1 -12   21.99    4.07   0
   4  -1  12    7.46    5.02   0
  -4   1 -12    8.46    5.37   0
  -5   1 -12   41.43    5.13   0
   5  -1  12   25.92    4.85   0
   2   0 -12   42.72    4.05   0
  -2   0  12   27.26    5.87   0
   1   0 -12   64.39    3.94   0
  -1   0  12   55.86    4.72   0
   0   0 -12    1.80    3.50   0
   0   0  12    1.28    3.85   0
  -1   0 -12   -5.96    3.69   0
   1   0  12   -0.30    4.73   0
  -2   0 -12   30.52    4.56   0
   2   0  12   15.91    5.23   0
  -3   0 -12  114.11    5.71   0
   3   0  12   84.23    4.37   0
  -4   0 -12   14.08    3.62   0
   4   0  12   -3.41    4.53   0
   5   0  12   16.58    5.05   0
  -5   0 -12  -13.62    5.25   0
  -6   0 -12   -8.34    4.38   0
   6   0  12    0.68    4.14   0
   1  -1 -12   -3.64    4.41   0
  -1   1  12   11.97    4.91   0
   0  -1 -12   10.37    4.98   0
   0   1  12    7.12    5.10   0
  -1  -1 -12  -10.59    5.15   0
   1   1  12  -13.84    3.90   0
  -2  -1 -12   34.12    4.69   0
   2   1  12   37.65    5.58   0
  -3  -1 -12   19.02    3.92   0
   3   1  12   17.03    3.73   0
  -4  -1 -12   23.42    4.05   0
   4   1  12   26.79    5.48   0
  -5  -1 -12   58.69    5.49   0
   5   1  12   55.87    4.20   0
  -6  -1 -12   -3.13    4.74   0
   6   1  12   -9.19    3.25   0
  -1   2  12   79.46    4.55   0
   1  -2 -12    5.36    4.12   0
   1  -2 -12   86.92    4.58   0
   0   2  12   38.21    4.04   0
   0  -2 -12   18.84    3.73   0
   1   2  12  105.44    5.84   0
  -1  -2 -12  102.52    5.12   0
   2   2  12   -3.19    3.80   0
  -2  -2 -12    4.16    5.11   0
   3   2  12   28.04    5.10   0
  -3  -2 -12   34.62    3.76   0
   4   2  12  166.50    6.07   0
  -4  -2 -12  182.74    6.26   0
  -5  -2 -12    8.25    3.97   0
   5   2  12   25.49    4.57   0
  -6  -2 -12   29.90    4.03   0
   6   2  12   13.30    5.00   0
  -7  -2 -12   42.05    5.37   0
   7   2  12   45.12    5.15   0
   0   3  12   -0.96    3.87   0
   0  -3 -12   -0.53    3.70   0
   1   3  12   19.12    5.22   0
  -1  -3 -12   16.78    5.05   0
   2   3  12    6.46    5.17   0
  -2  -3 -12    4.85    4.68   0
   3   3  12   28.92    4.95   0
  -3  -3 -12   33.61    5.34   0
   4   3  12   -9.65    4.59   0
  -4  -3 -12   12.68    5.09   0
   5   3  12   11.98    4.63   0
  -5  -3 -12   14.80    4.95   0
   6   3  12   20.03    3.75   0
  -6  -3 -12   15.00    5.17   0
  -7  -3 -12   41.98    5.24   0
   7   3  12   43.73    4.69   0
   1   4  12   34.24    3.99   0
  -1  -4 -12   35.67    4.12   0
  -2  -4 -12   52.00    4.72   0
   2   4  12   53.73    4.13   0
  -3  -4 -12    6.73    4.98   0
   3   4  12   -3.99    3.76   0
  -4  -4 -12   39.65    5.39   0
   4   4  12   53.30    4.26   0
   5   4  12    5.58    4.78   0
  -5  -4 -12   26.61    3.95   0
   6   4  12   65.56    5.04   0
  -6  -4 -12   63.46    5.68   0
   7   4  12   12.64    3.28   0
  -7  -4 -12    4.48    3.45   0
  -2  -5 -12    2.09    5.10   0
   2   5  12   -9.68    4.03   0
  -3  -5 -12   16.01    4.52   0
   3   5  12   48.54    5.13   0
  -4  -5 -12   -5.28    5.35   0
   4   5  12    1.79    3.75   0
  -5  -5 -12    9.55    3.90   0
   5   5  12    6.46    4.55   0
   6   5  12   10.89    5.37   0
  -6  -5 -12    4.77    4.25   0
   7   5  12    2.53    3.34   0
  -7  -5 -12    1.09    4.46   0
  -3  -6 -12   16.52    3.76   0
   3   6  12    2.65    3.50   0
  -4  -6 -12    6.04    5.25   0
   4   6  12   -1.31    3.83   0
  -5  -6 -12  -13.58    5.07   0
   5   6  12   12.30    5.04   0
  -6  -6 -12    1.35    4.96   0
   6   6  12    1.47    4.50   0
   1  -2  13   55.25    4.26   0
   2  -2  13    3.05    4.05   0
   0  -1  13   99.26    5.95   0
   0   1 -13  101.55    4.79   0
   1  -1  13  156.09    5.78   0
  -1   1 -13  206.18    6.33   0
   2  -1  13   13.99    5.51   0
  -2   1 -13   18.40    5.06   0
   3  -1  13   12.73    3.73   0
  -3   1 -13    2.15    4.83   0
   4  -1  13   24.32    4.52   0
   0   0 -13   48.15    5.30   0
   0   0  13   50.13    3.86   0
  -1   0 -13  168.25    4.93   0
   1   0  13  165.23    4.84   0
  -2   0 -13   42.96    4.84   0
   2   0  13   54.91    5.22   0
  -3   0 -13  -11.06    3.49   0
   3   0  13   -4.62    3.74   0
  -4   0 -13   27.14    5.41   0
   4   0  13   11.52    5.27   0
   5   0  13    2.50    3.45   0
   0  -1 -13    9.08    3.49   0
   0   1  13   -7.58    3.74   0
  -1  -1 -13   -7.20    3.63   0
   1   1  13    4.51    4.66   0
  -2  -1 -13  108.00    5.66   0
   2   1  13  102.04    4.56   0
  -3  -1 -13  160.31    6.13   0
   3   1  13  157.98    6.25   0
  -4  -1 -13    5.16    3.57   0
   4   1  13  -10.56    4.17   0
  -5  -1 -13   61.01    5.50   0
   5   1  13   41.57    4.26   0
   1   2  13   37.02    4.57   0
  -1  -2 -13   39.17    4.92   0
   2   2  13   34.23    3.99   0
  -2  -2 -13   23.71    5.27   0
   3   2  13   22.53    3.71   0
  -3  -2 -13    8.15    3.96   0
  -4  -2 -13   34.28    4.10   0
   4   2  13   46.92    5.09   0
  -5  -2 -13   10.40    5.47   0
   5   2  13   -2.41    5.63   0
   6   2  13   -1.18    4.87   0
   1   3  13  125.51    5.21   0
  -1  -3 -13  141.15    4.85   0
   2   3  13   21.76    3.76   0
  -2  -3 -13   32.81    3.81   0
   3   3  13   10.83    3.82   0
  -3  -3 -13    2.80    3.63   0
   4   3  13   47.68    4.28   0
  -4  -3 -13   67.77    4.30   0
   5   3  13   14.44    5.31   0
  -5  -3 -13   98.86    5.85   0
   6   3  13   13.50    4.50   0
  -6  -3 -13   14.52    5.25   0
   2   4  13   62.73    5.55   0
  -2  -4 -13   54.91    5.56   0
   3   4  13   17.14    5.22   0
  -3  -4 -13   33.74    3.95   0
   4   4  13   85.04    4.52   0
  -4  -4 -13   87.17    5.54   0
   5   4  13   44.43    5.15   0
  -5  -4 -13   40.24    5.26   0
   6   4  13    4.20    3.62   0
   4   5  13   -2.34    4.73   0
   5   5  13    6.19    3.69   0
;
_shelx_hkl_checksum              43416
_shelx_res_file
;
    RN_D1_02.res created by SHELXL-2014/7
TITL C12 H16 O5
CELL  0.71073  7.86010  8.24890 10.78830 81.53800 72.35200 61.93000
ZERR 2  0.00100  0.00110  0.00140  0.01100  0.01000  0.00900
LATT 1
SFAC C  H  O
UNIT 24 32 10
LIST 4
L.S. 4
BOND $h
EQIV $1 -x+1, -y+1, -z+1
HTAB O1 O3_$1
EQIV $2 x-1, y+1, z
HTAB O3 O4_$2
EQIV $3 -x, -y+2, -z+1
HTAB C9 O3_$3
omit -2 51
omit 5 -2 10
mpla 3 o4 c10 o5
mpla 6 c1 > c6
acta
conf
FMAP 2
size 0.35 0.32 0.28
temp -70.15
PLAN 20
WGHT    0.065100    0.220600
FVAR       1.79454
MOLE 1
O1    3    0.617653    0.079297    0.747106    11.00000    0.03552    0.03851 =
         0.03547    0.00759   -0.01540   -0.01163
H1O   2    0.724698    0.105638    0.713556    11.00000    0.06295
O2    3    0.153526    0.604778    0.726066    11.00000    0.02897    0.03820 =
         0.02986   -0.01058   -0.00239   -0.01347
O3    3    0.067018    0.831388    0.363012    11.00000    0.02847    0.03542 =
         0.03754    0.00698   -0.01156   -0.00608
H3O   2   -0.052570    0.905867    0.344807    11.00000    0.06783
O4    3    0.737683    0.028700    0.271892    11.00000    0.02850    0.03139 =
         0.03220   -0.00472   -0.00938   -0.00423
O5    3    0.522456    0.254349    0.172453    11.00000    0.03303    0.03586 =
         0.02342   -0.00070   -0.00952   -0.00826
C1    1    0.463586    0.286064    0.395112    11.00000    0.02284    0.02495 =
         0.02478    0.00025   -0.00615   -0.01108
C2    1    0.506204    0.215017    0.513668    11.00000    0.02219    0.02504 =
         0.02786    0.00114   -0.00810   -0.00857
AFIX  43
H2    2    0.609395    0.094109    0.517921    11.00000   -1.20000
AFIX   0
C3    1    0.398634    0.320157    0.624867    11.00000    0.02601    0.02974 =
         0.02632    0.00194   -0.00895   -0.01458
C4    1    0.246310    0.496651    0.616479    11.00000    0.02262    0.02886 =
         0.02588   -0.00363   -0.00323   -0.01377
C5    1    0.198878    0.568708    0.499365    11.00000    0.02356    0.02370 =
         0.02999    0.00013   -0.00858   -0.01041
C6    1    0.309370    0.461586    0.388918    11.00000    0.02609    0.02637 =
         0.02620    0.00297   -0.01029   -0.01233
AFIX  43
H6    2    0.279732    0.508235    0.308105    11.00000   -1.20000
AFIX   0
C7    1    0.446493    0.251342    0.753874    11.00000    0.03206    0.03620 =
         0.02655    0.00135   -0.00972   -0.01152
AFIX  23
H7A   2    0.467248    0.343247    0.788717    11.00000   -1.20000
H7B   2    0.329796    0.241151    0.815907    11.00000   -1.20000
AFIX   0
C8    1   -0.036188    0.617404    0.798047    11.00000    0.03461    0.07605 =
         0.04012   -0.01854    0.00641   -0.02667
AFIX 137
H8A   2   -0.078056    0.677420    0.881407    11.00000   -1.50000
H8B   2   -0.027008    0.493833    0.813859    11.00000   -1.50000
H8C   2   -0.134540    0.689680    0.748596    11.00000   -1.50000
AFIX   0
C9    1    0.035221    0.761037    0.492080    11.00000    0.02977    0.02658 =
         0.03368    0.00128   -0.00707   -0.00831
AFIX  23
H9A   2   -0.096174    0.759533    0.519316    11.00000   -1.20000
H9B   2    0.033566    0.841845    0.552261    11.00000   -1.20000
AFIX   0
C10   1    0.589227    0.174974    0.276193    11.00000    0.02439    0.02998 =
         0.02644    0.00038   -0.00690   -0.01214
C11   1    0.640338    0.164459    0.048341    11.00000    0.04771    0.04803 =
         0.02357   -0.00837   -0.00830   -0.01263
AFIX  23
H11A  2    0.550871    0.182800   -0.005718    11.00000   -1.20000
H11B  2    0.716507    0.030828    0.062068    11.00000   -1.20000
AFIX   0
C12   1    0.780972    0.242189   -0.019604    11.00000    0.06258    0.08077 =
         0.04037   -0.00833    0.00699   -0.03301
AFIX 137
H12A  2    0.857324    0.184084   -0.104870    11.00000   -1.50000
H12B  2    0.873179    0.218819    0.032399    11.00000   -1.50000
H12C  2    0.705168    0.374933   -0.031154    11.00000   -1.50000
AFIX   0
HKLF 4
REM  C12 H16 O5
REM R1 =  0.0503 for    1705 Fo > 4sig(Fo)  and  0.0687 for all    2188 data
REM    164 parameters refined using      0 restraints
END
WGHT      0.0651      0.2206
REM Highest difference peak  0.229,  deepest hole -0.259,  1-sigma level  0.053
Q1    1   0.2521  0.5373  0.4592  11.00000  0.05    0.23
Q2    1   0.5121  0.2435  0.3488  11.00000  0.05    0.22
Q3    1   0.1323  0.6459  0.4988  11.00000  0.05    0.19
Q4    1   0.5010  0.2716  0.4425  11.00000  0.05    0.18
Q5    1   0.2443  0.5444  0.5448  11.00000  0.05    0.16
Q6    1   0.2968  0.3934  0.6213  11.00000  0.05    0.16
Q7    1   0.6733  0.0124  0.6397  11.00000  0.05    0.15
Q8    1   0.4377  0.2820  0.5737  11.00000  0.05    0.15
Q9    1   0.0289  0.5260  0.9439  11.00000  0.05    0.15
Q10   1   0.4006  0.3827  0.3959  11.00000  0.05    0.15
Q11   1   0.3233  0.5193  0.3225  11.00000  0.05    0.15
Q12   1  -0.0437  0.8447  0.6396  11.00000  0.05    0.15
Q13   1   0.5000  0.0000  0.0000  10.50000  0.05    0.15
Q14   1  -0.1619  0.7867  0.8000  11.00000  0.05    0.15
Q15   1   0.2484  0.5304  0.2445  11.00000  0.05    0.14
Q16   1   0.7741  0.0841  0.3374  11.00000  0.05    0.14
Q17   1   0.2944  0.1175  0.7790  11.00000  0.05    0.14
Q18   1   0.0691  0.4277  0.8975  11.00000  0.05    0.14
Q19   1  -0.0230  0.5663  0.8833  11.00000  0.05    0.14
Q20   1  -0.1205  0.8122  0.8859  11.00000  0.05    0.13
;
_shelx_res_checksum              62130
loop_
_space_group_symop_operation_xyz
'x, y, z'
'-x, -y, -z'
loop_
_atom_site_type_symbol
_atom_site_label
_atom_site_fract_x
_atom_site_fract_y
_atom_site_fract_z
_atom_site_U_iso_or_equiv
_atom_site_adp_type
_atom_site_calc_flag
_atom_site_occupancy
O O1 0.6177(2) 0.0793(2) 0.74711(15) 0.0381(4) Uani d 1
H H1O 0.725(5) 0.106(4) 0.714(3) 0.063(9) Uiso d 1
O O2 0.1535(2) 0.6048(2) 0.72607(14) 0.0332(4) Uani d 1
O O3 0.0670(2) 0.8314(2) 0.36301(15) 0.0375(4) Uani d 1
H H3O -0.053(5) 0.906(4) 0.345(3) 0.068(9) Uiso d 1
O O4 0.7377(2) 0.0287(2) 0.27189(14) 0.0337(4) Uani d 1
O O5 0.5225(2) 0.2543(2) 0.17245(13) 0.0333(4) Uani d 1
C C1 0.4636(3) 0.2861(3) 0.39511(18) 0.0242(4) Uani d 1
C C2 0.5062(3) 0.2150(3) 0.51367(19) 0.0257(4) Uani d 1
H H2 0.6094 0.0941 0.5179 0.031 Uiso calc 1
C C3 0.3986(3) 0.3202(3) 0.62487(19) 0.0263(4) Uani d 1
C C4 0.2463(3) 0.4967(3) 0.61648(19) 0.0253(4) Uani d 1
C C5 0.1989(3) 0.5687(3) 0.49936(19) 0.0255(4) Uani d 1
C C6 0.3094(3) 0.4616(3) 0.38892(19) 0.0256(4) Uani d 1
H H6 0.2797 0.5082 0.3081 0.031 Uiso calc 1
C C7 0.4465(3) 0.2513(3) 0.7539(2) 0.0329(5) Uani d 1
H H7A 0.4672 0.3432 0.7887 0.040 Uiso calc 1
H H7B 0.3298 0.2412 0.8159 0.040 Uiso calc 1
C C8 -0.0362(4) 0.6174(4) 0.7980(3) 0.0515(7) Uani d 1
H H8A -0.0781 0.6774 0.8814 0.077 Uiso calc 1
H H8B -0.0270 0.4938 0.8139 0.077 Uiso calc 1
H H8C -0.1345 0.6897 0.7486 0.077 Uiso calc 1
C C9 0.0352(3) 0.7610(3) 0.4921(2) 0.0324(5) Uani d 1
H H9A -0.0962 0.7595 0.5193 0.039 Uiso calc 1
H H9B 0.0336 0.8418 0.5523 0.039 Uiso calc 1
C C10 0.5892(3) 0.1750(3) 0.27619(19) 0.0270(4) Uani d 1
C C11 0.6403(4) 0.1645(4) 0.0483(2) 0.0429(6) Uani d 1
H H11A 0.5509 0.1828 -0.0057 0.051 Uiso calc 1
H H11B 0.7165 0.0308 0.0621 0.051 Uiso calc 1
C C12 0.7810(5) 0.2422(5) -0.0196(3) 0.0652(8) Uani d 1
H H12A 0.8573 0.1841 -0.1049 0.098 Uiso calc 1
H H12B 0.8732 0.2188 0.0324 0.098 Uiso calc 1
H H12C 0.7052 0.3749 -0.0312 0.098 Uiso calc 1
loop_
_atom_site_aniso_label
_atom_site_aniso_U_11
_atom_site_aniso_U_22
_atom_site_aniso_U_33
_atom_site_aniso_U_12
_atom_site_aniso_U_13
_atom_site_aniso_U_23
O1 0.0355(8) 0.0385(9) 0.0355(9) -0.0116(7) -0.0154(7) 0.0076(7)
O2 0.0290(7) 0.0382(8) 0.0299(8) -0.0135(6) -0.0024(6) -0.0106(6)
O3 0.0285(8) 0.0354(8) 0.0375(9) -0.0061(6) -0.0116(6) 0.0070(7)
O4 0.0285(7) 0.0314(8) 0.0322(8) -0.0042(6) -0.0094(6) -0.0047(6)
O5 0.0330(8) 0.0359(8) 0.0234(7) -0.0083(6) -0.0095(6) -0.0007(6)
C1 0.0228(9) 0.0250(10) 0.0248(10) -0.0111(8) -0.0062(7) 0.0002(8)
C2 0.0222(9) 0.0250(10) 0.0279(10) -0.0086(8) -0.0081(8) 0.0011(8)
C3 0.0260(10) 0.0297(10) 0.0263(10) -0.0146(8) -0.0089(8) 0.0019(8)
C4 0.0226(9) 0.0289(10) 0.0259(10) -0.0138(8) -0.0032(7) -0.0036(8)
C5 0.0236(9) 0.0237(10) 0.0300(10) -0.0104(8) -0.0086(8) 0.0001(8)
C6 0.0261(9) 0.0264(10) 0.0262(10) -0.0123(8) -0.0103(8) 0.0030(8)
C7 0.0321(11) 0.0362(12) 0.0266(11) -0.0115(9) -0.0097(8) 0.0014(9)
C8 0.0346(12) 0.0760(19) 0.0401(14) -0.0267(12) 0.0064(10) -0.0185(13)
C9 0.0298(10) 0.0266(11) 0.0337(11) -0.0083(8) -0.0071(8) 0.0013(8)
C10 0.0244(9) 0.0300(11) 0.0264(10) -0.0121(9) -0.0069(8) 0.0004(8)
C11 0.0477(13) 0.0480(14) 0.0236(11) -0.0126(11) -0.0083(9) -0.0084(10)
C12 0.0626(18) 0.081(2) 0.0404(15) -0.0330(16) 0.0070(13) -0.0083(14)
loop_
_atom_type_symbol
_atom_type_description
_atom_type_scat_dispersion_real
_atom_type_scat_dispersion_imag
_atom_type_scat_source
C C 0.0033 0.0016 'International Tables Vol C Tables 4.2.6.8 and 6.1.1.4'
H H 0.0000 0.0000 'International Tables Vol C Tables 4.2.6.8 and 6.1.1.4'
O O 0.0106 0.0060 'International Tables Vol C Tables 4.2.6.8 and 6.1.1.4'
loop_
_geom_angle_atom_site_label_1
_geom_angle_atom_site_label_2
_geom_angle_atom_site_label_3
_geom_angle
C7 O1 H1O 105(2)
C4 O2 C8 115.78(17)
C9 O3 H3O 110(2)
C10 O5 C11 117.40(16)
C6 C1 C2 120.16(17)
C6 C1 C10 120.83(17)
C2 C1 C10 118.96(17)
C3 C2 C1 120.11(17)
C3 C2 H2 119.9
C1 C2 H2 119.9
C2 C3 C4 118.91(18)
C2 C3 C7 121.67(18)
C4 C3 C7 119.38(17)
O2 C4 C5 120.26(17)
O2 C4 C3 117.72(18)
C5 C4 C3 121.82(17)
C6 C5 C4 118.35(17)
C6 C5 C9 120.67(18)
C4 C5 C9 120.96(18)
C5 C6 C1 120.63(18)
C5 C6 H6 119.7
C1 C6 H6 119.7
O1 C7 C3 114.12(17)
O1 C7 H7A 108.7
C3 C7 H7A 108.7
O1 C7 H7B 108.7
C3 C7 H7B 108.7
H7A C7 H7B 107.6
O2 C8 H8A 109.5
O2 C8 H8B 109.5
H8A C8 H8B 109.5
O2 C8 H8C 109.5
H8A C8 H8C 109.5
H8B C8 H8C 109.5
O3 C9 C5 110.39(17)
O3 C9 H9A 109.6
C5 C9 H9A 109.6
O3 C9 H9B 109.6
C5 C9 H9B 109.6
H9A C9 H9B 108.1
O4 C10 O5 123.23(18)
O4 C10 C1 124.56(18)
O5 C10 C1 112.21(16)
O5 C11 C12 109.7(2)
O5 C11 H11A 109.7
C12 C11 H11A 109.7
O5 C11 H11B 109.7
C12 C11 H11B 109.7
H11A C11 H11B 108.2
C11 C12 H12A 109.5
C11 C12 H12B 109.5
H12A C12 H12B 109.5
C11 C12 H12C 109.5
H12A C12 H12C 109.5
H12B C12 H12C 109.5
loop_
_geom_bond_atom_site_label_1
_geom_bond_atom_site_label_2
_geom_bond_distance
O1 C7 1.415(3)
O1 H1O 0.92(3)
O2 C4 1.379(2)
O2 C8 1.419(3)
O3 C9 1.423(3)
O3 H3O 0.91(3)
O4 C10 1.216(2)
O5 C10 1.332(2)
O5 C11 1.447(3)
C1 C6 1.393(3)
C1 C2 1.395(3)
C1 C10 1.479(3)
C2 C3 1.381(3)
C2 H2 0.9500
C3 C4 1.396(3)
C3 C7 1.512(3)
C4 C5 1.395(3)
C5 C6 1.384(3)
C5 C9 1.511(3)
C6 H6 0.9500
C7 H7A 0.9900
C7 H7B 0.9900
C8 H8A 0.9800
C8 H8B 0.9800
C8 H8C 0.9800
C9 H9A 0.9900
C9 H9B 0.9900
C11 C12 1.486(4)
C11 H11A 0.9900
C11 H11B 0.9900
C12 H12A 0.9800
C12 H12B 0.9800
C12 H12C 0.9800
loop_
_geom_hbond_atom_site_label_D
_geom_hbond_atom_site_label_H
_geom_hbond_atom_site_label_A
_geom_hbond_site_symmetry_A
_geom_hbond_distance_DH
_geom_hbond_distance_HA
_geom_hbond_distance_DA
_geom_hbond_angle_DHA
O1 H1O O3 2_666 0.92(3) 1.87(3) 2.788(2) 176(3)
O3 H3O O4 1_465 0.91(3) 1.83(3) 2.725(2) 167(3)
C9 H9B O3 2_576 0.99 2.65 3.555(3) 152.5
loop_
_geom_torsion_atom_site_label_1
_geom_torsion_atom_site_label_2
_geom_torsion_atom_site_label_3
_geom_torsion_atom_site_label_4
_geom_torsion
C6 C1 C2 C3 -1.5(3)
C10 C1 C2 C3 176.25(17)
C1 C2 C3 C4 0.7(3)
C1 C2 C3 C7 -177.19(18)
C8 O2 C4 C5 83.8(2)
C8 O2 C4 C3 -101.3(2)
C2 C3 C4 O2 -174.23(16)
C7 C3 C4 O2 3.7(3)
C2 C3 C4 C5 0.6(3)
C7 C3 C4 C5 178.51(18)
O2 C4 C5 C6 173.67(17)
C3 C4 C5 C6 -1.0(3)
O2 C4 C5 C9 -4.5(3)
C3 C4 C5 C9 -179.19(18)
C4 C5 C6 C1 0.2(3)
C9 C5 C6 C1 178.35(18)
C2 C1 C6 C5 1.1(3)
C10 C1 C6 C5 -176.65(17)
C2 C3 C7 O1 4.6(3)
C4 C3 C7 O1 -173.27(18)
C6 C5 C9 O3 -22.3(3)
C4 C5 C9 O3 155.81(18)
C11 O5 C10 O4 -3.3(3)
C11 O5 C10 C1 176.13(17)
C6 C1 C10 O4 172.68(19)
C2 C1 C10 O4 -5.1(3)
C6 C1 C10 O5 -6.7(3)
C2 C1 C10 O5 175.55(17)
C10 O5 C11 C12 -93.5(3)

_cod_database_fobs_code 2021009
