#------------------------------------------------------------------------------
#$Date: 2019-02-15 05:36:39 +0200 (Fri, 15 Feb 2019) $
#$Revision: 213660 $
#$URL: file:///home/coder/svn-repositories/cod/cif/2/02/15/2021518.cif $
#------------------------------------------------------------------------------
#
# This file is available in the Crystallography Open Database (COD),
# http://www.crystallography.net/. The original data for this entry
# were provided by IUCr Journals, http://journals.iucr.org/.
#
# The file may be used within the scientific community so long as
# proper attribution is given to the journal article from which the
# data were obtained.
#
data_2021518
loop_
_publ_author_name
'Oliveira, Ana P. A.'
'Ferreira, Isabella P.'
'Despaigne, Angel A. Recio'
'da Silva, Jeferson G.'
'Vieira, Ana Carolina S.'
'Santos, Mariana S.'
'Alexandre-Moreira, Magna S.'
'Diniz, Renata'
'Beraldo, Heloisa'
_publ_section_title
;
 Structural studies and antileishmanial activity of 2-acetylpyridine and
 2-benzoylpyridine nitroimidazole-derived hydrazones
;
_journal_coeditor_code           KY3160
_journal_issue                   3
_journal_name_full               'Acta Crystallographica Section C'
_journal_page_first
;
;
_journal_paper_doi               10.1107/S2053229619001529
_journal_volume                  75
_journal_year                    2019
_chemical_formula_iupac          'C17 H14 N6 O3'
_chemical_formula_moiety         'C17 H14 N6 O3'
_chemical_formula_sum            'C17 H14 N6 O3'
_chemical_formula_weight         350.34
_chemical_name_common
;
(<i>E</i>)-2-Benzoylpyridine-4-nitroimidazole hydrazone
;
_chemical_name_systematic
(<i>E</i>)-2-(2-Nitro-1<i>H</i>-imidazol-1-yl)-<i>N</i>'-[(phenyl)(pyridin-2-yl)methylidene]acetohydrazide
_space_group_crystal_system      triclinic
_space_group_IT_number           2
_space_group_name_Hall           '-P 1'
_space_group_name_H-M_alt        'P -1'
_symmetry_space_group_name_Hall  '-P 1'
_symmetry_space_group_name_H-M   'P -1'
_atom_sites_solution_hydrogens   geom
_audit_creation_method           SHELXL-2017/1
_cell_angle_alpha                74.736(10)
_cell_angle_beta                 88.725(8)
_cell_angle_gamma                87.006(8)
_cell_formula_units_Z            2
_cell_length_a                   5.8656(4)
_cell_length_b                   10.3304(12)
_cell_length_c                   13.7224(16)
_cell_measurement_reflns_used    1644
_cell_measurement_temperature    270(2)
_cell_measurement_theta_max      25.4130
_cell_measurement_theta_min      2.2020
_cell_volume                     801.04(15)
_computing_cell_refinement
;
CrysAlis PRO (Rigaku OD, 2015)
;
_computing_data_collection
;
CrysAlis PRO (Rigaku OD, 2015)
;
_computing_data_reduction
;
CrysAlis PRO (Rigaku OD, 2015)
;
_computing_molecular_graphics
;
Mercury (Macrae <i>et al.</i>, 2008) and
ORTEP-3 For Windows (Farrugia, 2012)
;
_computing_publication_material
;
WinGX (Farrugia, 2012) and publCIF (Westrip, 2010)
;
_computing_structure_refinement
;
SHELXL2017 (Sheldrick, 2015b)
;
_computing_structure_solution
;
SHELXS2017 (Sheldrick, 2015a)
;
_diffrn_ambient_temperature      270(2)
_diffrn_detector                 'CCD plate'
_diffrn_detector_area_resol_mean 10.4186
_diffrn_measured_fraction_theta_full 0.999
_diffrn_measured_fraction_theta_max 0.999
_diffrn_measurement_device       'four-circle diffractometer'
_diffrn_measurement_device_type
'Rigaku Xcalibur Gemini ultra diffractometer with an Atlas detector'
_diffrn_measurement_method       '\w scans'
_diffrn_radiation_monochromator  graphite
_diffrn_radiation_probe          x-ray
_diffrn_radiation_type           'Mo K\a'
_diffrn_radiation_wavelength     0.71073
_diffrn_reflns_av_R_equivalents  0.0318
_diffrn_reflns_av_unetI/netI     0.0720
_diffrn_reflns_limit_h_max       7
_diffrn_reflns_limit_h_min       -7
_diffrn_reflns_limit_k_max       12
_diffrn_reflns_limit_k_min       -12
_diffrn_reflns_limit_l_max       17
_diffrn_reflns_limit_l_min       -15
_diffrn_reflns_number            5468
_diffrn_reflns_theta_full        25.242
_diffrn_reflns_theta_max         26.371
_diffrn_reflns_theta_min         2.046
_diffrn_source                   'Enhance (Mo) X-ray Source'
_exptl_absorpt_coefficient_mu    0.105
_exptl_absorpt_correction_T_max  1.00000
_exptl_absorpt_correction_T_min  0.85931
_exptl_absorpt_correction_type   multi-scan
_exptl_absorpt_process_details
;
(CrysAlis PRO; Agilent, 2014)
;
_exptl_crystal_colour            colourless
_exptl_crystal_density_diffrn    1.453
_exptl_crystal_density_method    'not measured'
_exptl_crystal_description       prism
_exptl_crystal_F_000             364
_exptl_crystal_size_max          0.184
_exptl_crystal_size_mid          0.127
_exptl_crystal_size_min          0.066
_refine_diff_density_max         0.369
_refine_diff_density_min         -0.437
_refine_ls_extinction_method     none
_refine_ls_goodness_of_fit_ref   1.035
_refine_ls_hydrogen_treatment    constr
_refine_ls_matrix_type           full
_refine_ls_number_parameters     211
_refine_ls_number_reflns         3273
_refine_ls_number_restraints     6
_refine_ls_restrained_S_all      1.037
_refine_ls_R_factor_all          0.1032
_refine_ls_R_factor_gt           0.0601
_refine_ls_shift/su_max          0.000
_refine_ls_shift/su_mean         0.000
_refine_ls_structure_factor_coef Fsqd
_refine_ls_weighting_details
'w=1/[\s^2^(Fo^2^)+(0.0633P)^2^+0.2359P] where P=(Fo^2^+2Fc^2^)/3'
_refine_ls_weighting_scheme      calc
_refine_ls_wR_factor_gt          0.1383
_refine_ls_wR_factor_ref         0.1660
_reflns_number_gt                2094
_reflns_number_total             3273
_reflns_threshold_expression     'I > 2\s(I)'
_cod_data_source_file            ky3160sup1.cif
_cod_data_source_block           3b
_cod_database_code               2021518
_shelx_space_group_comment
;
The symmetry employed for this shelxl refinement is uniquely defined
by the following loop, which should always be used as a source of
symmetry information in preference to the above space-group names.
They are only intended as comments.
;
_shelx_estimated_absorpt_t_min   0.981
_shelx_estimated_absorpt_t_max   0.993
_shelx_hkl_file
;
   0   0   2 246.538 44.2727   1
   0   0  -2 191.432 29.7033   3
   0   0  -3 2506.62 119.940   3
   0   0   3 2578.90 161.725   1
   0   0   3 2381.74 118.407   3
   0   0   4 18036.9 376.089   3
   0   0   4 17853.6 483.415   1
   0   0  -4 18141.9 370.620   3
   0   0   5 4038.53 260.287   1
   0   0   5 3783.67 195.175   3
   0   0  -5 3907.56 192.258   3
   0   0   6 27276.3 734.600   1
   0   0   6 27203.7 573.788   3
   0   0  -6 27235.0 557.070   3
   0   0  -7 763.876 101.602   3
   0   0   7 783.382 140.166   1
   0   0   7 599.994 96.2680   3
   0   0   8 6428.10 420.524   1
   0   0   8 6349.88 324.202   3
   0   0  -8 6164.27 308.524   3
   0   0  -8 6363.69 420.474   1
   0   0   9 33.6390 39.7977   3
   0   0   9 108.087 87.1972   1
   0   0  -9 27.0881 73.2310   1
   0   0  -9 22.8584 32.8734   3
   0   0  10 707.113 162.753   1
   0   0 -10 465.763 100.522   3
   0   0  10 522.222 104.482   3
   0   0  11 51.1098 77.4741   1
   0   0  11 54.5591 46.9392   3
   0   0 -11 16.7616 32.9254   3
   0   0  12 980.254 165.558   3
   0   0  12 964.345 213.701   1
   0   0 -12 955.041 152.924   3
   0   0 -13 128.932 67.2607   3
   0   0  13 124.548 70.1644   3
   0   0  13 33.8983 78.2540   1
   0   0  14 2186.18 255.738   3
   0   0  14 2362.57 351.929   1
   0   0  15 36.8338 58.1834   3
   0   0  15 197.804 127.436   1
   0   0  16 82.5043 77.9255   1
   0  -1  16 66.7671 84.9691   1
   0  -1  15 124.219 61.5844   1
   0  -1  14 52.6888 85.3578   1
   0  -1  14 48.0708 67.4184   3
   0  -1  13 183.989 114.482   1
   0  -1  13 286.843 91.8790   3
   0   1 -13 264.248 88.4960   3
   0  -1  12 1005.08 224.139   1
   0   1 -12 996.514 163.353   3
   0  -1  12 1048.98 163.965   3
   0   1 -11 56.2844 39.7161   3
   0  -1  11 152.080 78.7351   3
   0  -1  11 67.0814 81.9000   1
   0  -1  10 171.073 67.2324   3
   0   1 -10 149.331 57.5489   3
   0  -1  10 125.828 75.8607   1
   0   1  -9 999.373 184.236   1
   0  -1   9 778.964 163.640   1
   0  -1   9 908.989 136.329   3
   0   1  -9 719.354 112.229   3
   0  -1   8 580.969 102.567   3
   0   1  -8 633.031 99.9704   3
   0   1  -8 776.587 163.523   1
   0  -1   8 842.630 162.602   1
   0   1  -7 196.793 56.7276   3
   0  -1   7 206.494 59.5218   3
   0   1  -7 189.490 85.2231   1
   0  -1   7 152.752 69.8067   1
   0  -1   6 614.123 92.5954   3
   0   1  -6 541.972 83.5937   3
   0   1  -6 565.825 114.154   1
   0  -1   6 460.364 109.769   1
   0  -1   5 8535.17 379.037   1
   0  -1   5 8165.67 297.957   3
   0   1  -5 8941.87 302.746   3
   0   1  -5 8761.14 389.206   1
   0   1  -4 19673.7 410.081   3
   0  -1   4 18770.2 411.533   3
   0  -1   4 19425.8 508.709   1
   0   1  -4 20736.0 527.149   1
   0   1  -3 41186.6 651.548   1
   0  -1   3 41254.8 641.318   1
   0  -1   3 40762.0 538.725   3
   0   1  -3 41316.3 530.493   3
   0  -1   2 12605.7 297.250   1
   0   1  -2 12752.7 261.486   2
   0   1  -2 12552.4 262.190   3
   0  -1   1 25518.4 318.935   1
   0  -1   1 25177.8 321.476   2
   0  -1   0 20847.8 260.939   2
   0  -1  -1 2137.60 88.9567   2
   0  -1  -2 8712.92 216.878   3
   0   1   2 8376.92 233.675   1
   0  -1  -3 29225.4 446.912   3
   0   1   3 29426.7 534.323   1
   0   1   3 29407.6 449.437   3
   0   1   4 8897.22 278.780   3
   0   1   4 9005.27 343.916   1
   0  -1  -4 8915.62 275.046   3
   0   1   5 38283.0 788.055   1
   0   1   5 38883.0 643.870   3
   0  -1  -5 40259.1 636.214   3
   0   1   6 4561.88 303.454   1
   0  -1  -6 4604.51 235.037   3
   0   1   6 4513.48 236.077   3
   0   1   7 12845.7 429.827   3
   0  -1  -7 13082.9 423.650   3
   0   1   7 12284.2 531.611   1
   0   1   8 3284.23 300.884   1
   0   1   8 3403.28 240.897   3
   0  -1  -8 3229.53 229.242   3
   0  -1  -9 2133.28 250.779   1
   0   1   9 2077.80 252.368   1
   0  -1  -9 1948.30 189.568   3
   0   1   9 2209.96 205.973   3
   0   1  10 2655.17 304.395   1
   0   1  10 2613.65 237.268   3
   0  -1 -10 2897.29 239.947   3
   0   1  11-0.96095 37.8602   3
   0  -1 -11 38.4813 40.9549   3
   0   1  11-26.8543 63.8744   1
   0  -1 -12 533.229 113.268   3
   0   1  12 618.734 127.978   3
   0   1  12 595.209 164.183   1
   0   1  13-17.8104 44.6579   3
   0  -1 -13 135.605 76.1920   3
   0   1  13 62.4043 79.6757   1
   0   1  14 921.808 167.424   3
   0   1  14 1184.40 246.505   1
   0   1  15 236.100 91.7472   3
   0   1  15 528.566 194.644   1
   0   1  16 30.6244 72.8960   1
   0   1  17 680.166 232.027   1
   0  -2  16 922.461 258.947   1
   0   2 -15 468.982 131.193   2
   0  -2  15 597.011 214.324   1
   0   2 -14 15.6170 53.2893   2
   0  -2  14 45.7624 60.5035   1
   0  -2  13 184.023 95.8220   1
   0   2 -13 115.377 72.7909   2
   0   2 -12-13.5455 46.8910   3
   0   2 -12-75.0241 49.9087   2
   0  -2  12-45.5701 59.3876   1
   0   2 -11 2659.73 252.769   3
   0  -2  11 3054.95 355.046   1
   0  -2  10 1806.85 257.837   1
   0   2 -10 1656.92 192.165   3
   0   2  -9 445.668 96.3968   3
   0   2  -9 616.030 149.929   1
   0  -2   9 476.423 131.507   1
   0   2  -8 268.808 75.5014   3
   0   2  -8 315.431 106.730   1
   0  -2   8 415.627 118.923   1
   0   2  -7 58.0619 24.6809   3
   0   2  -7 55.5241 69.6084   1
   0  -2   7 109.092 63.5477   1
   0  -2   6 1348.30 175.537   1
   0   2  -6 1081.06 124.836   3
   0   2  -6 1247.86 168.745   1
   0   2  -5 209.326 52.6745   3
   0  -2   5 193.929 71.8916   1
   0   2  -5 228.547 70.7864   1
   0   2  -5 146.602 51.5606   2
   0   2  -4 44282.6 800.691   1
   0  -2   4 45651.3 803.186   1
   0   2  -4 45966.5 716.594   2
   0   2  -4 45611.8 701.023   3
   0  -2   3 81768.8 951.978   1
   0   2  -3 84902.9 886.405   2
   0   2  -3 82378.5 957.295   1
   0   2  -3 84064.6 903.941   3
   0   2  -2 236006. 1405.74   1
   0   2  -2 240829. 1369.62   2
   0  -2   2 237772. 1401.38   2
   0  -2   2 237552. 1396.60   1
   0  -2   1 5463.42 173.912   1
   0   2  -1 5358.41 170.876   1
   0  -2   1 5076.08 190.791   2
   0   2  -1 5839.69 201.380   2
   0  -2   0 186.159 43.3355   2
   0  -2  -1 34601.5 483.513   2
   0  -2  -2 10342.7 275.182   2
   0  -2  -2 10400.3 274.881   1
   0   2   3 63886.7 796.189   1
   0  -2  -3 64995.5 807.417   1
   0  -2  -3 65226.5 734.456   2
   0   2   4 26310.1 590.940   1
   0   2   4 25775.3 530.984   3
   0  -2  -4 25966.5 497.842   2
   0  -2  -4 26423.3 591.593   1
   0   2   5 2490.10 207.753   1
   0   2   5 2552.63 183.879   3
   0  -2  -5 2581.09 180.900   3
   0   2   6 70253.9 997.760   3
   0   2   6 70721.3 1180.75   1
   0  -2  -6 70782.2 990.695   3
   0   2   7 2866.77 265.405   1
   0   2   7 2988.26 223.038   3
   0  -2  -7 3351.71 225.990   3
   0   2   8 1152.36 146.837   3
   0  -2  -8 1248.12 147.912   3
   0   2   8 1116.59 178.952   1
   0  -2  -9 64.8713 62.5278   1
   0   2   9 123.671 60.9359   1
   0   2   9 45.1582 48.6823   3
   0  -2  -9 100.096 48.9465   3
   0   2  10 425.053 132.377   1
   0   2  10 319.684 80.7127   3
   0  -2 -10 323.686 86.0187   3
   0  -2 -11 257.851 82.6607   3
   0   2  11 191.210 81.2487   3
   0   2  11 162.167 74.1739   1
   0   2  12 879.929 161.579   3
   0  -2 -12 549.914 118.125   3
   0   2  12 655.613 177.252   1
   0  -2 -13-22.9862 45.1878   3
   0   2  13-16.9799 40.8777   3
   0   2  13-0.97405 68.2341   1
   0   2  14 299.647 114.072   3
   0   2  14 89.8715 93.1970   1
   0   2  15 106.971 74.7494   3
   0   2  15 102.646 84.7131   1
   0   2  16 3.90013 89.4722   1
   0   2  16 214.619 113.298   3
   0   2  17-88.7146 117.766   1
   0  -3  15 34.9501 95.1490   1
   0  -3  14 499.105 198.861   1
   0   3 -14 390.685 120.911   2
   0  -3  13 160.257 96.0312   1
   0   3 -13 82.7655 74.8502   2
   0   3 -12 49.6682 53.1849   2
   0  -3  12 24.2433 86.6068   1
   0   3 -11 1158.84 177.556   3
   0   3 -11 1286.80 190.691   2
   0  -3  11 1016.33 206.376   1
   0  -3  10 218.561 108.123   1
   0   3 -10 39.7784 29.1469   3
   0   3  -9 1912.23 207.524   3
   0  -3   9 2107.07 261.182   1
   0  -3   8 1422.99 212.509   1
   0   3  -8 1298.72 162.937   3
   0   3  -8 1428.82 213.151   1
   0   3  -7 18.6593 32.6376   2
   0   3  -7 273.412 92.9737   1
   0   3  -7 284.054 75.1330   3
   0  -3   7 363.249 107.554   1
   0   3  -6 18230.5 552.628   3
   0   3  -6 17340.9 629.261   1
   0   3  -6 17989.5 541.919   2
   0  -3   6 18169.7 621.739   1
   0   3  -5 9544.61 382.645   3
   0  -3   5 9359.71 410.663   1
   0   3  -5 9402.64 421.628   1
   0   3  -5 9470.67 374.021   2
   0  -3   4 822.487 113.013   1
   0   3  -4 829.256 117.319   1
   0   3  -4 888.640 113.922   3
   0   3  -4 680.565 97.8795   2
   0   3  -3 18837.6 474.403   2
   0   3  -3 18969.0 487.453   1
   0  -3   3 18271.4 469.588   1
   0  -3   3 19191.5 487.732   2
   0  -3   2 19642.6 468.305   2
   0   3  -2 19831.6 439.435   1
   0  -3   2 20492.1 440.716   1
   0   3  -2 19962.7 469.349   2
   0   3  -1 4954.34 227.329   2
   0  -3   1 5030.52 195.990   1
   0  -3   1 4937.66 229.756   2
   0   3   0 15329.6 388.862   2
   0  -3   0 15764.1 399.160   2
   0  -3  -1 87412.4 939.321   2
   0  -3  -2 40.3839 33.8130   2
   0  -3  -3 24.5715 28.6175   2
   0  -3  -3-1.09833 27.6851   1
   0  -3  -4 6415.04 297.936   1
   0  -3  -4 6246.79 273.351   2
   0   3   4 6162.75 299.299   3
   0  -3  -5-26.5426 43.3705   1
   0   3   5 54.9790 48.8987   1
   0   3   5 67.9691 56.0965   3
   0  -3  -5 69.1618 45.1459   2
   0   3   6 5269.39 331.501   1
   0   3   6 5484.98 304.869   3
   0  -3  -6 5216.78 277.046   2
   0  -3  -7 11803.2 437.095   2
   0   3   7 11133.5 516.013   1
   0   3   7 11381.0 456.822   3
   0   3   8 1483.56 200.679   1
   0  -3  -8 1612.34 170.945   2
   0  -3  -8 1574.23 177.575   3
   0   3   8 1566.62 181.351   3
   0   3   9 4316.94 309.556   3
   0   3   9 4503.47 372.808   1
   0  -3  -9 4416.95 295.318   2
   0  -3  -9 4448.24 368.113   1
   0  -3  -9 4472.38 312.967   3
   0  -3 -10 2860.98 263.366   3
   0   3  10 3354.56 347.264   1
   0   3  10 3144.19 278.294   3
   0  -3 -10 3073.43 259.107   2
   0  -3 -11 572.629 117.192   2
   0   3  11 704.623 182.626   1
   0  -3 -11 778.950 147.172   3
   0   3  11 682.747 140.399   3
   0  -3 -12 177.885 72.3386   2
   0   3  12 274.908 136.793   1
   0   3  12 277.503 98.9715   3
   0  -3 -12 406.737 112.945   3
   0   3  13 1692.73 232.642   3
   0  -3 -13 1610.79 224.014   3
   0   3  13 1676.32 283.392   1
   0   3  14 256.453 99.2092   3
   0   3  14 527.367 178.754   1
   0   3  15 2631.06 391.196   1
   0   3  15 2013.22 260.567   3
   0   3  16 325.622 128.026   3
   0   3  16 272.475 127.347   1
   0   3  17 1730.27 340.920   1
   0  -4  15 1088.75 259.189   1
   0  -4  14 32.5923 125.181   1
   0   4 -13 141.368 78.0691   2
   0  -4  13 29.0357 68.0392   1
   0   4 -12 235.061 98.6337   2
   0  -4  12 216.768 99.2617   1
   0   4 -11 643.281 140.541   2
   0  -4  11 476.805 159.839   1
   0   4 -10 4823.70 356.838   2
   0  -4  10 4916.67 432.132   1
   0   4 -10 4842.61 360.066   3
   0   4  -9 154.582 64.3102   3
   0  -4   9 161.076 93.8960   1
   0   4  -8 132.379 79.7030   1
   0  -4   8 171.797 94.4846   1
   0   4  -8 198.432 69.3496   3
   0  -4   7 1675.18 208.221   1
   0   4  -7 1526.62 183.458   3
   0   4  -7 1511.14 210.646   1
   0   4  -6 11194.5 520.053   1
   0   4  -6 11324.8 480.471   3
   0  -4   6 10832.4 493.579   1
   0  -4   5 24121.5 683.099   1
   0   4  -5 25069.0 710.783   1
   0   4  -5 24528.8 686.608   3
   0  -4   4 107.194 51.2430   1
   0   4  -4 155.594 56.2326   1
   0   4  -4 129.171 57.8996   2
   0   4  -3 612.033 96.3060   1
   0  -4   3 570.032 93.2465   1
   0  -4   3 670.325 111.626   2
   0   4  -3 542.547 92.6180   2
   0   4  -2 1747.24 159.355   2
   0  -4   2 1858.65 166.430   2
   0  -4   2 1986.02 150.881   1
   0  -4   1 99.4120 37.2891   1
   0  -4   1 11.9321 32.6945   2
   0   4  -1 57.8653 36.7240   2
   0  -4   0 21691.1 544.406   2
   0   4   0 21324.3 532.628   2
   0  -4  -1 13656.6 429.428   2
   0  -4  -2 10270.8 378.096   2
   0  -4  -3 6234.15 301.600   2
   0  -4  -3 6263.73 276.777   1
   0  -4  -4 8329.87 351.994   1
   0  -4  -4 8543.16 359.475   2
   0   4   5 78.9644 60.7708   3
   0  -4  -5 94.1107 47.2044   2
   0  -4  -5 12.6745 44.4799   1
   0  -4  -6-32.7474 39.9197   1
   0  -4  -6 314.333 76.6431   2
   0   4   6 355.402 88.2091   3
   0   4   7 9392.18 448.917   3
   0  -4  -7 9413.42 420.181   2
   0   4   8 2749.21 275.311   1
   0  -4  -8 2803.83 284.990   1
   0  -4  -8 2964.99 245.183   2
   0   4   8 2554.96 244.631   3
   0   4   9 343.643 116.223   1
   0  -4  -9 394.806 117.908   1
   0   4   9 359.539 103.032   3
   0  -4  -9 449.645 112.109   2
   0  -4 -10-40.0044 48.7489   2
   0   4  10 8.43965 41.6180   3
   0  -4 -11 515.527 113.819   2
   0   4  11 509.058 130.666   3
   0   4  11 554.997 163.837   1
   0   4  12 1119.77 233.731   1
   0   4  12 1245.11 196.637   3
   0   4  13 185.030 127.698   1
   0   4  13 82.6217 69.1446   3
   0   4  14 232.622 110.456   3
   0   4  14 222.654 95.3071   1
   0   4  15 72.6363 49.8675   3
   0   4  15-56.3238 103.668   1
   0   4  16 255.264 108.027   3
   0   4  16 713.679 228.949   1
   0   4  17 811.162 190.791   3
   0  -5  15 92.9851 101.151   1
   0  -5  14 991.721 253.137   1
   0  -5  13 93.1266 105.995   1
   0  -5  12 1627.74 288.124   1
   0   5 -12 1784.27 241.263   2
   0   5 -11 750.038 153.959   2
   0  -5  11 741.067 189.343   1
   0   5 -10 2779.92 280.246   2
   0  -5  10 2828.38 337.217   1
   0   5  -9 704.094 145.360   3
   0  -5   9 926.735 181.779   1
   0   5  -9 941.488 161.594   2
   0   5  -8 16059.5 656.936   3
   0   5  -8 15520.5 624.682   2
   0  -5   8 15108.5 680.756   1
   0   5  -8 15351.3 712.185   1
   0  -5   7 69.4643 51.7562   1
   0   5  -7 135.614 86.0060   1
   0   5  -7 83.9243 54.2826   3
   0   5  -6 6461.19 397.768   3
   0   5  -6 6454.51 406.965   1
   0  -5   6 6354.90 388.752   1
   0   5  -5 4626.58 318.635   1
   0   5  -5 4869.31 337.153   3
   0  -5   5 5445.45 335.270   1
   0  -5   4 2547.73 241.095   2
   0  -5   4 2780.91 225.132   1
   0  -5   3 729.368 111.307   1
   0  -5   3 700.869 119.843   2
   0  -5   2 79.9270 53.0087   2
   0  -5   2 70.9859 37.8972   1
   0   5  -2-36.2376 43.4237   2
   0  -5   1 517.952 78.0186   1
   0  -5   1 554.250 105.069   2
   0  -5   0 532.241 104.506   2
   0   5   0-5.58797 39.1061   2
   0   5   1 46.1968 50.6894   2
   0  -5  -1 1624.74 171.606   2
   0  -5  -2 819.394 121.777   2
   0  -5  -3 12376.3 469.537   2
   0  -5  -4 4551.36 292.577   2
   0  -5  -4 4879.58 282.773   1
   0  -5  -5 4697.02 305.450   2
   0  -5  -5 5228.64 316.739   1
   0  -5  -6 3323.16 260.686   2
   0   5   6 3160.83 281.228   3
   0  -5  -7 1411.77 176.503   2
   0   5   7 1274.74 186.944   3
   0  -5  -8 1508.94 214.213   1
   0   5   8 1199.47 184.564   3
   0  -5  -8 1332.06 175.472   2
   0  -5  -9 102.435 86.8588   1
   0   5   9 132.585 75.2470   3
   0  -5  -9 236.137 83.1493   2
   0   5  10 136.095 89.0405   3
   0   5  11 1620.46 233.233   3
   0   5  12 1551.97 225.510   3
   0   5  13 1255.93 224.446   3
   0   5  14 1695.86 250.583   3
   0   5  15 95.9178 83.9736   3
   0   5  16 1317.52 230.829   3
   0   5  17 11.6916 57.8547   3
   0  -6  14-60.2814 81.5103   1
   0  -6  13 101.229 67.3029   1
   0   6 -12 1397.12 216.203   2
   0  -6  12 1356.21 259.417   1
   0   6 -11 811.733 162.290   2
   0  -6  11 739.637 190.043   1
   0  -6  10 435.076 134.407   1
   0   6 -10 350.637 102.421   2
   0  -6   9 6626.22 496.007   1
   0   6  -9 6559.06 440.028   2
   0   6  -8 2736.58 275.391   2
   0  -6   8 2979.41 317.252   1
   0   6  -7 3338.01 297.882   2
   0  -6   7 3407.80 313.075   1
   0   6  -7 3241.10 313.375   1
   0   6  -7 3286.79 313.195   3
   0   6  -6 44.9769 54.1811   3
   0  -6   6 15.7887 54.0262   1
   0   6  -6-43.6045 45.0586   1
   0   6  -6-3.56473 40.4689   2
   0   6  -5 1536.51 195.608   2
   0  -6   5 1529.34 184.388   1
   0   6  -5 1569.26 211.278   3
   0  -6   4 2461.66 247.282   2
   0  -6   4 2607.50 225.585   1
   0  -6   3 10779.6 424.654   1
   0  -6   3 10450.1 500.572   2
   0  -6   2 1557.46 188.306   2
   0  -6   2 1837.54 163.324   1
   0  -6   1 125.588 41.5009   1
   0  -6   1 120.909 57.6676   2
   0  -6   0 550.601 84.4849   1
   0  -6   0 467.645 100.337   2
   0  -6  -1 3099.23 256.287   2
   0  -6  -2 5782.94 354.139   2
   0  -6  -3 2415.32 231.984   2
   0  -6  -4 1499.29 183.857   2
   0  -6  -4 1858.56 185.078   1
   0  -6  -5 4885.57 334.271   2
   0  -6  -5-45.0547 31.6036   1
   0  -6  -6 206.589 70.6639   2
   0   6   6 260.499 89.1790   2
   0   6   6 270.230 98.0055   3
   0  -6  -6 329.586 87.0831   1
   0   6   7 4789.25 376.671   3
   0  -6  -7 5454.14 368.307   2
   0   6   8 178.732 82.6804   3
   0  -6  -8 73.5955 47.9934   2
   0  -6  -8 45.2133 74.0132   1
   0   6   9 10.5999 50.3537   3
   0  -6  -9 62.5939 59.3513   1
   0   6  10 286.570 104.247   3
   0   6  11 719.993 159.995   3
   0   6  12 22.7048 80.6217   3
   0   6  13 4145.39 402.839   3
   0   6  14 13.1410 66.9232   3
   0   6  15 123.166 90.0852   3
   0   6  16 83.0545 65.3719   3
   0   6  17 267.601 124.919   3
   0  -7  12 52.8300 66.2057   1
   0  -7  11 894.069 207.841   1
   0   7 -11 926.420 183.996   2
   0   7 -10 185.569 83.2316   2
   0  -7  10 159.841 77.5968   1
   0   7  -9 396.363 123.678   2
   0  -7   9 323.366 128.666   1
   0  -7   8 1890.99 256.865   1
   0   7  -8 1712.07 234.532   2
   0  -7   7 1202.62 190.753   1
   0   7  -7 1386.31 211.377   2
   0  -7   6 1957.45 232.319   1
   0   7  -6 2051.95 245.556   2
   0   7  -5 1707.93 218.916   2
   0  -7   5 1717.15 198.332   1
   0  -7   4 32.8082 38.4636   1
   0   7  -4 101.785 58.3153   2
   0  -7   4 64.3586 56.2937   2
   0  -7   3 714.869 149.247   2
   0   7  -3 641.702 133.839   2
   0  -7   3 666.413 118.365   1
   0  -7   2 1262.55 188.029   2
   0  -7   2 1172.84 139.818   1
   0   7  -2 1122.21 171.558   2
   0   7  -1 1285.40 184.016   2
   0  -7   1 1513.30 198.810   2
   0  -7   1 1384.95 143.599   1
   0  -7   0 7435.76 443.355   2
   0  -7   0 7352.17 320.501   1
   0   7   0 7561.50 431.989   2
   0  -7  -1 2132.05 237.379   2
   0   7   1 2279.21 235.201   2
   0   7   2 3282.04 285.388   2
   0  -7  -2 3811.44 314.758   2
   0  -7  -3-2.90478 40.0623   2
   0   7   3 105.324 72.0212   2
   0   7   4 3752.07 312.545   2
   0  -7  -4 4541.09 293.899   1
   0  -7  -4 3963.20 326.439   2
   0   7   5 32.2342 52.2062   2
   0  -7  -5-16.7284 28.6994   1
   0   7   6 243.805 93.1769   2
   0   7   7 3574.63 347.210   3
   0   7   8-99.5406 81.2413   3
   0  -7  -8 154.722 87.1035   1
   0  -7  -9 124.950 77.3275   1
   0   7   9 43.5885 63.4159   3
   0   7  10 218.783 116.488   3
   0   7  11 2734.92 324.837   3
   0   7  12 1595.62 266.853   3
   0   7  13 215.171 107.221   3
   0   7  14 39.9509 99.9863   3
   0   7  15-4.84957 78.4263   3
   0   7  16 1028.59 223.678   3
   0   7  17 49.4961 73.9574   3
   0  -8  10 440.026 141.698   1
   0   8 -10 463.214 134.343   2
   0   8  -9 521.729 147.257   2
   0  -8   9 581.324 146.371   1
   0   8  -8 484.388 138.449   2
   0  -8   8 403.808 120.087   1
   0   8  -7 1118.00 194.952   2
   0  -8   7 1168.25 189.969   1
   0  -8   6 149.807 74.0493   1
   0   8  -6 341.875 110.031   2
   0   8  -5 757.468 162.757   2
   0  -8   5 688.750 130.870   1
   0   8  -4 240.179 94.0516   2
   0  -8   4 173.305 73.8559   1
   0   8  -3 131.435 79.1626   2
   0  -8   3 99.7190 48.8493   1
   0   8  -2 231.487 74.5604   2
   0  -8   2 320.950 77.1251   1
   0   8  -1 148.791 63.2624   2
   0  -8   1 146.707 51.8090   1
   0   8   0 1881.60 229.253   2
   0  -8   0 2070.69 176.077   1
   0   8   1 149.070 80.3433   2
   0  -8  -1 95.3259 33.8967   1
   0   8   2-62.6577 82.2099   2
   0   8   3 1965.56 231.840   2
   0   8   4 7.11498 59.8932   2
   0  -8  -4 8.25191 24.7700   1
   0  -8  -5 7634.71 421.955   1
   0   8   5 6990.26 459.569   2
   0   8   6-42.3657 71.0557   2
   0   8   7 4291.11 409.457   3
   0  -8  -7 4449.11 361.393   1
   0  -8  -8 692.682 150.748   1
   0   8   8 592.359 156.390   3
   0   8   9 1785.25 278.289   3
   0   8  10 1066.13 218.640   3
   0   8  11 4748.98 457.927   3
   0   8  12 1276.77 250.369   3
   0   8  13 257.642 115.605   3
   0   8  14-84.5148 98.9562   3
   0   8  15 42.9781 83.0419   3
   0   8  16 822.931 226.144   3
   0   8  17 7.92472 75.3707   3
   0   9  -9 190.017 100.254   2
   0   9  -8 129.686 72.6737   2
   0   9  -7-60.2910 47.2991   2
   0  -9   7-77.1918 72.4382   1
   0   9  -6 498.828 137.740   2
   0  -9   6 402.062 109.329   1
   0   9  -5 170.199 90.5455   2
   0  -9   5 27.3637 35.2773   1
   0   9  -4 808.601 180.263   2
   0  -9   4 731.436 131.849   1
   0   9  -3 56.3701 63.6105   2
   0  -9   3 30.0122 40.0216   1
   0   9  -2 3007.80 322.507   2
   0  -9   2 3341.12 246.573   1
   0   9  -1 594.769 149.159   2
   0  -9   1 546.199 98.5893   1
   0  -9   0 378.297 86.2008   1
   0   9   0 327.748 119.105   2
   0   9   1 82.5698 56.8144   2
   0  -9  -1 21.3129 25.4882   1
   0   9   2 30.8837 77.3000   2
   0   9   3 398.022 125.482   2
   0  -9  -4 686.384 125.981   1
   0   9   4 684.306 153.060   2
   0   9   5 809.008 182.497   2
   0   9   6 442.357 139.460   2
   0  -9  -7 425.239 120.530   1
   0   9   7 531.170 151.044   2
   0   9   7 319.733 129.984   3
   0   9   8 661.720 188.185   3
   0  -9  -8 851.659 180.804   1
   0   9   9 2248.22 320.580   3
   0   9  10 5575.58 512.271   3
   0   9  11 569.250 176.254   3
   0   9  12 2691.67 369.218   3
   0   9  13 199.219 118.194   3
   0   9  14 177.471 109.839   3
   0   9  15 211.247 126.989   3
   0   9  16 359.633 164.023   3
   0   9  17 274.940 129.038   3
   0  10  -8 61.9881 55.1439   2
   0  10  -7-16.0377 57.1079   2
   0  10  -6-37.8095 61.0485   2
   0  10  -5-57.4965 90.5686   2
   0  10  -4 22.0795 58.3619   2
   0  10  -3 82.1239 61.3052   2
   0  10  -2 122.925 100.333   2
   0 -10   2 150.662 58.0411   1
   0  10  -1 20.4789 57.7157   2
   0 -10   1 50.1216 46.0880   1
   0  10   0 129.206 102.020   2
   0 -10   0-2.78413 34.0215   1
   0  10   1 1368.40 223.609   2
   0 -10  -1 1564.46 162.636   1
   0 -10  -2 1659.78 171.815   1
   0  10   2 1391.80 233.661   2
   0 -10  -3 61.5604 50.1757   1
   0  10   3 22.5984 73.6997   2
   0 -10  -4-9.58100 51.3629   1
   0  10   4-8.50333 50.7934   2
   0  10   5 516.587 145.489   2
   0  10   6 16.4986 59.9576   2
   0  10   7-89.8843 104.301   3
   0  10   7-4.97634 68.4180   2
   0 -10  -7 58.7107 58.5597   1
   0  10   8 5351.17 521.869   3
   0  10   9 653.585 207.372   3
   0  10  10 96.5900 97.3158   3
   0  10  11 514.364 180.651   3
   0  10  12 262.469 134.771   3
   0  10  13 821.440 221.602   3
   0  10  14 857.711 251.100   3
   0  10  15-39.9037 117.911   3
   0  11  -7-123.498 91.3735   2
   0  11  -6 126.223 90.5918   2
   0  11  -5 143.223 100.453   2
   0  11  -4 141.959 84.7767   2
   0  11  -3 129.972 87.9720   2
   0  11  -2 130.958 105.297   2
   0  11  -1 99.0978 79.3452   2
   0  11   0 199.085 105.202   2
   0  11   1 603.688 170.972   2
   0  11   2 244.206 112.037   2
   0  11   3 87.6591 95.3740   2
   0 -11  -3 133.536 48.5815   1
   0  11   4 301.670 132.969   2
   0  11   5 300.704 116.240   2
   0  11   6 545.463 160.564   2
   0  11   7 399.395 138.924   3
   0  11   7 529.222 180.824   2
   0  11   8 274.030 148.966   3
   0  11   9 244.932 144.510   3
   0  11  10 30.4897 76.5363   3
   0  11  11 148.933 120.303   3
   0  11  12 58.3706 106.644   3
   0  11  13 14.5931 73.2061   3
   0  12  -5 108.859 91.8212   2
   0  12  -4 138.222 112.387   2
   0  12  -3 297.401 136.474   2
   0  12  -2 125.136 89.6331   2
   0  12  -1 93.5067 100.719   2
   0  12   0-196.658 115.868   2
   0  12   1 374.239 147.591   2
   0  12   2 85.2900 92.0347   2
   0  12   3 247.771 140.083   2
   0  12   4 501.540 156.969   2
   0  12   5 329.748 138.557   2
   0  12   6 318.564 142.521   2
   0  12   7 800.480 243.214   3
   0  12   8 603.764 194.975   3
   0  12   9 670.452 214.743   3
   0  12  10 707.061 215.727   3
   0  13  -1 302.250 132.498   2
   0  13   0 230.716 125.712   2
   0  13   1-50.3373 89.2769   2
   0  13   2 166.099 81.8883   2
   0  13   3 85.1294 67.8733   2
   0  13   4 337.870 146.252   2
   0  13   5 122.178 85.0395   2
  -1  12  10-22.0806 131.658   3
  -1  12   9 241.507 147.753   3
  -1  12   8 403.863 161.876   2
  -1  12   7 1353.46 262.685   2
  -1  12   6 53.6549 74.9696   2
  -1  12   5 300.757 156.245   2
  -1  12   4 509.323 165.868   2
  -1  12   3 2151.23 333.601   2
  -1  12   2 1615.73 286.534   2
  -1  12   1 3397.96 418.642   2
  -1  12   0-29.9803 64.3639   2
  -1  12  -1-63.4030 100.420   2
  -1  12  -2 471.819 163.638   2
  -1  12  -3 212.669 117.522   2
  -1  12  -4-44.2383 78.9105   2
  -1  11  14-59.1403 121.363   3
  -1  11  13 22.1368 83.9081   3
  -1  11  12 553.504 196.833   3
  -1  11  11 159.173 120.467   3
  -1  11  10-122.459 116.734   3
  -1  11   9 164.477 125.331   2
  -1  11   9 4.71653 86.1766   3
  -1  11   8 153.739 102.675   2
  -1  11   7 282.073 131.184   2
  -1  11   6 308.284 141.060   2
  -1  11   5 48.8335 61.2293   2
  -1  11   4 52.6556 65.6932   2
  -1  11   3 950.159 214.520   2
  -1  11   2 31.4203 78.5626   2
  -1  11   1 441.664 151.655   2
  -1  11   0 701.096 187.961   2
  -1  11  -1 296.073 146.245   2
  -1  11  -2 41.7587 70.4847   2
  -1  11  -3 1024.43 226.618   2
  -1  11  -4 1049.13 239.104   2
  -1  11  -5 35.2724 58.0940   2
  -1  11  -6 51.1359 75.0899   2
  -1  11  -7-259.978 130.376   2
  -1  10  16-125.813 102.414   3
  -1  10  15 16.1814 66.4144   3
  -1  10  14 691.123 216.069   3
  -1  10  13 208.963 119.483   3
  -1  10  12 1356.00 278.154   3
  -1  10  11 2.16898 72.7311   3
  -1  10  10 97.9391 80.8107   3
  -1  10   9 434.035 142.016   2
  -1  10   9 336.089 129.694   3
  -1  10   8 126.483 95.3478   2
  -1  10   7 437.082 143.797   2
  -1  10   6 754.840 178.378   2
  -1  10   5 250.763 118.500   2
  -1  10   4 102.179 83.5488   2
  -1  10   3 3181.52 354.868   2
  -1  10   2-68.8650 81.0989   2
  -1  10   1-18.0261 77.0440   2
  -1  10   0 5.54576 48.5683   2
  -1  10  -1 72.8821 57.3626   2
  -1  10  -2 771.706 190.888   2
  -1  10  -3 40.9457 72.8345   2
  -1  10  -4-44.3710 96.3363   2
  -1  10  -5-25.9108 106.658   2
  -1  10  -6 272.280 128.860   2
  -1  10  -7 354.174 141.531   2
  -1  10  -8-76.1168 70.1605   2
  -1  10  -9-48.4970 77.5366   2
  -1   9  16 51.7918 68.5924   3
  -1   9  15-23.2929 98.0260   3
  -1   9  14 717.993 188.820   3
  -1   9  13 455.501 179.275   3
  -1   9  12 191.248 100.900   3
  -1   9  11 301.491 132.853   3
  -1   9  10 549.683 156.343   3
   1  -9  -9 1598.88 231.722   1
  -1   9   9 994.530 223.808   3
  -1   9   8 368.585 136.682   2
   1  -9  -8 413.424 116.679   1
  -1   9   7 164.679 103.761   2
   1  -9  -6-26.8086 26.7368   1
  -1   9   6 1125.99 213.116   2
  -1   9   5 104.339 81.8865   2
   1  -9  -5 60.3615 32.2999   1
  -1   9   4 189.724 95.7996   2
   1  -9  -4 68.6187 27.8059   1
  -1   9   3 1332.05 219.274   2
   1  -9  -3 1203.52 93.0073   1
  -1   9   2-1.46010 55.9489   2
  -1   9   1 703.584 159.429   2
  -1   9   0 613.639 158.982   2
  -1   9  -1 10.9245 54.4842   2
  -1   9  -2 379.364 130.867   2
   1  -9   2 232.034 33.1537   1
   1  -9   3 203.072 43.9037   1
  -1   9  -3 216.635 106.082   2
  -1   9  -4 98.1252 74.6702   2
  -1   9  -5 107.591 93.6649   2
  -1   9  -6 80.4109 95.2178   2
  -1   9  -7-20.6733 57.1394   2
  -1   9  -8-37.1609 73.3789   2
  -1   9  -9 86.8877 107.193   2
  -1   9 -10-15.3166 62.9528   2
  -1   8  16 434.204 162.153   3
  -1   8  15-11.2685 62.5660   3
  -1   8  14 94.7436 84.2002   3
  -1   8  13 1960.87 293.947   3
  -1   8  12 895.874 202.486   3
  -1   8  11 1932.23 290.833   3
  -1   8  10 4.18780 70.3137   3
   1  -8  -9 1770.83 237.205   1
  -1   8   9 1391.90 248.689   3
  -1   8   8 590.223 152.315   2
   1  -8  -8 1015.37 171.025   1
  -1   8   7 978.776 187.298   2
   1  -8  -6 4.53079 36.6463   1
  -1   8   6 4324.31 370.064   2
   1  -8  -5 1134.45 134.395   1
  -1   8   5 930.281 167.706   2
   1  -8  -4 2361.23 167.752   1
  -1   8   4 2217.48 265.934   2
   1  -8  -3 63.1096 25.1116   1
  -1   8   3 101.360 79.8542   2
   1  -8  -2 31.7249 14.2351   1
  -1   8   2-63.6423 74.9014   2
   1  -8  -2 8.06590 11.1390   1
  -1   8   1 2533.36 286.207   2
  -1   8   0 1168.02 200.385   2
  -1   8  -1 659.820 144.179   2
   1  -8   2 140.861 33.8215   1
  -1   8  -2 129.852 73.4318   2
   1  -8   3 176.292 44.0117   1
  -1   8  -3 175.524 85.4849   2
   1  -8   4 371.797 77.1860   1
  -1   8  -4 455.763 140.392   2
   1  -8   5 88.9283 47.1176   1
  -1   8  -5 0.75780 51.9505   2
  -1   8  -6 79.8073 74.2748   2
   1  -8   6 57.4030 41.3509   1
   1  -8   7 10.0337 53.4942   1
  -1   8  -7-68.8081 87.4150   2
  -1   8  -8-41.7119 60.6094   2
  -1   8  -9-166.330 118.993   2
  -1   8 -10-8.40786 66.8239   2
  -1   8 -11 298.499 116.647   2
  -1   7  16 555.659 163.174   3
  -1   7  15 813.203 188.758   3
  -1   7  14 708.266 175.544   3
  -1   7  13 603.666 173.084   3
  -1   7  12 843.539 178.505   3
  -1   7  11 8100.95 550.626   3
  -1   7  10 1591.79 244.304   3
  -1   7   9 4756.50 416.532   3
   1  -7  -9 5055.27 399.473   1
  -1   7   8 61.1521 54.7670   2
  -1   7   8-49.6510 76.8856   3
  -1   7   7 4997.38 385.500   2
  -1   7   6 391.216 107.683   2
   1  -7  -6 1.96500 31.3358   1
   1  -7  -5 2763.16 209.405   1
  -1   7   5 2547.87 267.917   2
  -1   7   4 235.818 93.0159   2
   1  -7  -4 154.927 48.2461   1
   1  -7  -3 87.0319 50.7562   2
  -1   7   3 27.5744 40.5899   2
   1  -7  -3 16.1967 18.0602   1
  -1   7   2-11.3236 48.9181   2
   1  -7  -2 116.708 61.0188   2
   1  -7  -2 55.4497 21.2305   1
  -1   7   1 3453.45 309.242   2
   1  -7  -1 3343.60 306.462   2
  -1   7   0 525.387 128.026   2
   1  -7   1 3248.57 116.085   1
  -1   7  -1 3599.64 319.495   2
   1  -7   2 212.563 41.2437   1
  -1   7  -2 236.194 78.9180   2
  -1   7  -3 81.5946 72.9344   2
   1  -7   3 146.595 42.0118   1
   1  -7   4 29.3403 44.5365   1
  -1   7  -4-49.8164 61.4891   2
   1  -7   5 0.36494 29.2301   1
  -1   7  -5 104.001 73.3282   2
  -1   7  -6 978.379 187.529   2
   1  -7   6 1400.88 177.681   1
  -1   7  -7 313.405 126.794   2
   1  -7   7 389.671 112.864   1
   1  -7   8 31.1703 59.0529   1
  -1   7  -8 73.6905 72.2791   2
  -1   7  -9-9.42467 52.1871   2
   1  -7   9 86.6413 69.5613   1
  -1   7 -10 731.455 182.111   2
   1  -7  10 790.955 169.061   1
  -1   7 -11 71.6441 75.7904   2
  -1   7 -12 57.3775 64.5429   2
  -1   6  16 351.388 162.678   1
  -1   6  16-6.94599 85.4840   3
  -1   6  15 789.174 175.023   3
  -1   6  15 614.124 190.430   1
  -1   6  14 136.403 118.741   1
  -1   6  14 170.128 95.1623   3
  -1   6  13 1438.27 232.742   3
  -1   6  13 841.575 200.563   1
  -1   6  12 5.94759 54.1752   3
  -1   6  12 131.685 91.9471   1
  -1   6  11 8363.19 521.485   3
  -1   6  11 7937.81 565.974   1
  -1   6  10 6869.49 467.855   3
  -1   6  10 7162.54 510.710   1
  -1   6   9 7734.96 488.172   3
   1  -6  -9 8783.44 526.014   1
  -1   6   9 8526.23 520.076   1
   1  -6  -8 1858.95 220.597   2
  -1   6   8 2135.00 259.868   3
   1  -6  -7 4049.30 317.210   2
  -1   6   7 3481.61 300.107   2
  -1   6   6 9477.24 477.001   2
   1  -6  -6 10327.5 500.999   2
   1  -6  -5 1386.31 184.857   2
  -1   6   5 1194.69 177.145   2
   1  -6  -5 1350.48 146.822   1
   1  -6  -4 5981.60 374.396   2
   1  -6  -4 5705.59 265.723   1
   1  -6  -3 6154.04 231.383   1
   1  -6  -3 6449.46 387.927   2
   1  -6  -2 860.180 141.655   2
   1  -6  -2 913.494 70.8424   1
   1  -6  -1 2632.22 255.075   2
  -1   6   0 136.653 70.9508   2
   1  -6   0 123.246 56.6387   2
   1  -6   1 3942.01 126.873   1
   1  -6   1 4116.51 329.789   2
  -1   6  -1 4317.20 328.115   2
  -1   6  -2 664.471 131.598   2
   1  -6   2 646.327 70.2148   1
   1  -6   2 528.445 125.705   2
   1  -6   3 1973.42 146.370   1
   1  -6   3 1967.99 241.839   2
  -1   6  -3 2148.93 237.864   2
  -1   6  -4 511.738 132.422   3
   1  -6   4 492.675 84.3678   1
  -1   6  -4 612.941 140.739   2
   1  -6   5 26.8156 34.3598   1
  -1   6  -5-3.58996 43.0234   2
  -1   6  -5 28.0825 34.7595   1
  -1   6  -6 2137.46 259.025   2
  -1   6  -6 2129.99 225.848   1
   1  -6   6 2561.10 234.148   1
  -1   6  -7 779.319 151.608   1
   1  -6   7 761.259 149.445   1
  -1   6  -7 798.856 172.223   2
   1  -6   8 876.059 165.734   1
  -1   6  -8 741.625 164.874   2
  -1   6  -8 871.674 165.153   1
  -1   6  -9 274.185 125.639   2
   1  -6   9 312.751 112.930   1
   1  -6  10 694.786 167.014   1
  -1   6 -10 734.328 174.038   2
  -1   6 -11 118.628 95.4919   2
   1  -6  11 270.902 105.565   1
   1  -6  12 331.115 130.231   1
  -1   6 -12 380.438 130.535   2
  -1   6 -13 100.820 60.4931   2
   1  -6  13 8.28294 78.3185   1
  -1   5  17 143.772 116.343   1
  -1   5  16 249.887 150.010   1
  -1   5  15 1493.02 231.182   3
  -1   5  15 1491.79 297.719   1
  -1   5  14 601.592 191.286   1
  -1   5  14 304.673 101.222   3
  -1   5  13 264.306 138.683   1
  -1   5  13 433.329 127.367   3
  -1   5  12-8.62984 88.9388   1
  -1   5  12 88.7800 78.5976   3
  -1   5  11 3067.82 296.437   3
  -1   5  11 3011.54 350.496   1
   1  -5 -10 1808.51 213.692   2
  -1   5  10 2080.04 279.997   1
  -1   5  10 2022.53 237.144   3
   1  -5  -9 3687.77 296.807   2
  -1   5   9 3556.75 335.623   1
  -1   5   9 3476.53 305.028   3
   1  -5  -9 4286.45 361.110   1
  -1   5   8 99.3952 69.3657   3
  -1   5   8 93.0491 60.3318   1
   1  -5  -8 32.3406 30.4365   2
  -1   5   7 9158.49 466.768   1
  -1   5   7 8947.30 440.032   2
  -1   5   7 9233.84 473.996   3
   1  -5  -7 9528.49 449.522   2
  -1   5   6 7501.84 396.017   2
  -1   5   6 8123.26 399.975   1
   1  -5  -6 7571.05 391.999   2
   1  -5  -5 7156.50 378.896   2
   1  -5  -5 7234.99 335.677   1
  -1   5   5 6724.38 368.362   2
   1  -5  -4 25608.3 553.792   1
   1  -5  -4 26370.5 720.702   2
  -1   5   4 24961.0 701.351   2
   1  -5  -3 707.705 119.329   2
   1  -5  -3 616.063 75.1124   1
   1  -5  -2 425.679 46.6358   1
   1  -5  -2 388.695 89.7488   2
   1  -5  -1 13103.1 518.350   2
   1  -5   0 753.937 132.689   2
   1  -5   1 12536.4 214.373   1
   1  -5   1 13718.4 548.573   2
   1  -5   2 19901.4 375.205   1
   1  -5   2 21310.8 702.251   2
   1  -5   3 2233.81 232.848   2
   1  -5   3 2266.69 154.216   1
  -1   5  -3 2152.82 153.065   1
  -1   5  -4 129.453 44.5321   1
  -1   5  -4 142.133 66.6106   3
  -1   5  -4 158.374 63.8738   2
   1  -5   4 174.108 53.1038   1
  -1   5  -5 50.1065 59.2011   2
  -1   5  -5 57.1802 42.5526   3
   1  -5   5 149.773 56.7413   1
  -1   5  -5 114.959 51.2649   1
   1  -5   6 3645.89 275.569   1
  -1   5  -6 3483.68 274.509   1
  -1   5  -6 3699.48 321.317   2
  -1   5  -6 3694.85 331.079   3
  -1   5  -7 1214.90 191.917   2
   1  -5   7 1154.20 170.535   1
  -1   5  -7 1275.52 181.717   1
  -1   5  -8-1.81652 51.4823   1
  -1   5  -8 128.486 70.7594   2
   1  -5   9 691.371 150.348   1
  -1   5  -9 667.769 152.473   2
   1  -5  10 1950.82 265.152   1
  -1   5 -10 2228.22 285.637   2
   1  -5  11-60.9355 54.6458   1
  -1   5 -11-8.54284 55.3153   2
  -1   5 -12 56.8880 80.0016   2
   1  -5  12-39.7523 64.4897   1
   1  -5  13-121.384 118.055   1
  -1   5 -13 95.0937 73.2935   2
  -1   5 -14-0.45297 68.0956   2
   1  -5  14 149.953 95.9517   1
   1  -5  15 290.007 164.357   1
  -1   4  17 228.990 118.796   1
  -1   4  16 155.521 121.395   1
  -1   4  15 2267.44 365.207   1
  -1   4  15 2134.14 257.541   3
  -1   4  14 93.9477 81.8919   3
  -1   4  14-34.5632 104.426   1
  -1   4  13 143.765 76.0188   3
  -1   4  13 282.349 142.687   1
   1  -4 -12 2844.86 270.207   2
  -1   4  12 3065.46 370.955   1
  -1   4  12 2476.16 259.213   3
   1  -4 -11 5379.82 356.531   2
  -1   4  11 5352.67 366.686   3
  -1   4  11 4834.82 439.422   1
  -1   4  10 2560.58 245.447   3
  -1   4  10 2278.78 283.783   1
   1  -4 -10 2646.35 242.693   2
  -1   4   9 1294.54 170.797   3
   1  -4  -9 1372.19 167.263   2
  -1   4   9 1417.91 213.632   1
   1  -4  -9 1324.92 201.728   1
   1  -4  -8 179.312 71.4729   2
  -1   4   8 96.4231 63.1961   1
  -1   4   8 176.953 74.6015   3
   1  -4  -7 1523.69 166.816   2
  -1   4   7 1291.49 166.885   3
  -1   4   7 1400.97 186.515   1
  -1   4   6 3721.20 272.764   1
   1  -4  -6 4350.24 274.210   2
  -1   4   6 3756.91 254.837   2
   1  -4  -5 8742.79 374.510   1
  -1   4   5 8385.13 374.504   2
  -1   4   5 8506.54 375.192   1
   1  -4  -5 8551.27 373.293   2
  -1   4   4 3663.99 217.379   1
   1  -4  -4 3610.89 209.864   1
  -1   4   4 3553.81 238.367   2
   1  -4  -4 3721.48 244.286   2
   1  -4  -3 333.760 77.2482   2
   1  -4  -3 312.373 55.7056   1
  -1   4   3 395.954 65.0123   1
   1  -4  -2 5809.42 176.485   1
   1  -4  -2 6281.41 316.056   2
   1  -4  -1 372.134 82.0062   2
   1  -4   0 5530.15 306.988   2
   1  -4   1 16874.7 555.033   2
   1  -4   2 19467.2 359.289   1
   1  -4   2 19724.1 622.814   2
  -1   4  -2 18996.6 353.624   1
  -1   4  -3 9.74702 24.7029   1
   1  -4   3-12.0416 21.6757   1
   1  -4   4 10672.6 381.177   1
  -1   4  -4 11013.4 390.049   1
  -1   4  -4 11383.3 511.982   3
  -1   4  -5 275.534 92.1373   3
   1  -4   5 156.416 69.1461   1
  -1   4  -5 161.450 63.9820   1
  -1   4  -6 781.649 127.926   1
  -1   4  -6 875.990 154.524   3
   1  -4   6 852.948 133.663   1
   1  -4   7 4868.10 341.265   1
  -1   4  -7 4796.74 363.000   3
  -1   4  -7 4802.81 350.253   1
  -1   4  -7 4349.03 342.737   2
  -1   4  -8 4843.07 373.985   1
   1  -4   8 4694.78 362.658   1
  -1   4  -8 4479.96 359.734   2
  -1   4  -8 4680.75 369.184   3
   1  -4   9 568.743 147.762   1
  -1   4  -9 727.810 160.402   2
  -1   4  -9 674.939 150.533   1
   1  -4  10 1136.10 201.807   1
  -1   4 -10 1356.42 223.049   2
   1  -4  11 724.104 179.481   1
  -1   4 -11 647.347 156.891   2
  -1   4 -12 1663.12 258.828   2
   1  -4  12 1164.89 229.972   1
  -1   4 -13-0.41848 54.5120   2
   1  -4  13-91.5377 106.799   1
  -1   4 -14 217.059 74.6874   2
   1  -4  14-86.4055 111.830   1
   1  -4  15 784.125 227.681   1
  -1   3  17 99.4565 144.504   1
  -1   3  16 643.753 218.096   1
  -1   3  15 1658.64 217.507   3
  -1   3  15 1984.07 341.283   1
  -1   3  14 1966.42 231.577   3
  -1   3  14 1888.76 319.994   1
  -1   3  13 93.0322 81.8296   1
   1  -3 -13 77.0030 51.0659   2
  -1   3  13-28.2396 59.7980   3
  -1   3  12 2582.77 247.047   3
   1  -3 -12 2681.52 246.579   2
  -1   3  12 2563.10 332.021   1
   1  -3 -11 1248.46 162.230   2
  -1   3  11 1032.51 218.972   1
  -1   3  11 1211.24 165.526   3
   1  -3 -10-20.0091 28.9795   2
  -1   3  10 27.9866 47.5905   1
  -1   3  10 67.8197 44.6085   3
   1  -3  -9 136.377 83.6134   1
   1  -3  -9 141.031 53.8554   2
  -1   3   9 179.988 88.7376   1
  -1   3   9 107.351 51.9794   3
  -1   3   8 978.242 130.321   3
   1  -3  -8 1058.74 132.915   2
  -1   3   8 1174.04 182.228   1
  -1   3   7 6605.04 397.850   1
   1  -3  -7 6515.66 310.513   2
  -1   3   7 6350.88 321.469   3
   1  -3  -6 26558.1 607.039   2
  -1   3   6 26606.5 730.645   1
  -1   3   6 26392.2 639.162   3
  -1   3   5 97.3732 72.0602   1
  -1   3   5 9.07919 45.4947   2
   1  -3  -5 53.2281 41.8781   1
   1  -3  -5 45.7431 36.3119   2
  -1   3   4 1819.97 154.428   2
   1  -3  -4 1976.43 159.718   2
  -1   3   4 1777.69 157.431   1
   1  -3  -4 1705.84 150.025   1
   1  -3  -3 30588.8 526.805   1
   1  -3  -3 30315.6 603.491   2
  -1   3   3 30221.1 613.013   2
  -1   3   3 30462.3 540.468   1
   1  -3  -2 505.843 57.3136   1
  -1   3   2 427.565 53.7667   1
   1  -3  -2 500.156 75.1577   2
   1  -3  -1 39332.0 698.583   2
   1  -3   0 19183.8 510.162   2
   1  -3   1 2919.88 209.407   2
   1  -3   2 1617.55 163.151   2
  -1   3  -2 1911.65 115.126   1
  -1   3  -2 2111.53 188.224   3
   1  -3   2 2011.14 117.471   1
  -1   3  -2 1750.13 170.073   2
  -1   3  -3 13043.3 359.308   1
   1  -3   3 12892.5 356.981   1
  -1   3  -3 12323.6 458.688   2
  -1   3  -3 12774.7 475.183   3
  -1   3  -4 9804.99 362.694   1
  -1   3  -4 9711.92 428.743   3
   1  -3   4 9596.11 360.928   1
   1  -3   5 24.9323 38.0126   1
  -1   3  -5 39.9071 43.2790   3
  -1   3  -5 16.3576 31.0182   1
   1  -3   6 273.571 87.0166   1
  -1   3  -6 314.691 92.0680   1
  -1   3  -6 294.149 89.3289   3
  -1   3  -7 270.895 91.0963   1
  -1   3  -7 198.288 68.9923   3
   1  -3   7 416.087 110.038   1
  -1   3  -8 24636.5 841.104   1
  -1   3  -8 24701.3 811.109   3
   1  -3   8 24513.3 819.916   1
  -1   3  -8 25091.0 832.879   2
  -1   3  -9 6121.84 448.920   1
  -1   3  -9 6164.32 430.629   2
  -1   3  -9 6357.21 426.691   3
   1  -3   9 6189.70 439.646   1
  -1   3 -10 3269.69 329.827   2
   1  -3  10 2995.37 329.373   1
   1  -3  11 2932.82 339.182   1
  -1   3 -11 2402.05 296.867   2
   1  -3  12 176.328 81.4423   1
  -1   3 -12 6.96170 81.3391   2
   1  -3  13 684.113 181.287   1
  -1   3 -13 608.592 157.870   2
   1  -3  14 286.475 135.530   1
  -1   3 -14 184.809 99.9015   2
   1  -3  15 39.3046 86.4069   1
  -1   3 -15 257.472 105.589   2
   1  -3  16-41.6834 90.6686   1
  -1   2  16 13.2465 94.8834   1
  -1   2  15 1016.65 238.694   1
  -1   2  14 151.074 123.929   1
  -1   2  14 74.3939 58.2707   3
  -1   2  13 350.920 142.039   1
   1  -2 -13 366.302 92.2689   2
  -1   2  13 322.351 97.4137   3
   1  -2 -12 98.8610 46.3191   2
  -1   2  12 236.391 124.671   1
  -1   2  12 105.764 55.6967   3
  -1   2  11 838.599 131.146   3
  -1   2  11 892.254 209.166   1
   1  -2 -11 727.037 119.837   2
  -1   2  10 2909.68 227.444   3
   1  -2 -10 3094.28 226.560   2
  -1   2  10 3103.43 328.915   1
   1  -2  -9 786.146 110.176   2
  -1   2   9 797.995 114.170   3
   1  -2  -9 889.206 172.660   1
  -1   2   9 588.271 139.591   1
  -1   2   8 145.950 85.8855   1
   1  -2  -8 203.600 83.6094   1
   1  -2  -8 128.146 50.0514   2
  -1   2   8 139.697 52.4110   3
   1  -2  -7 2972.77 190.533   2
  -1   2   7 3006.22 198.139   3
  -1   2   7 2800.46 263.580   1
  -1   2   6 1721.49 143.166   3
  -1   2   6 1633.13 185.688   1
   1  -2  -6 1673.38 137.852   2
  -1   2   5 460.259 97.1716   1
   1  -2  -5 496.972 71.1988   2
   1  -2  -5 502.586 93.1251   1
  -1   2   5 568.732 79.7933   3
   1  -2  -4 11327.7 317.317   2
   1  -2  -4 10938.1 380.281   1
  -1   2   4 10571.6 374.788   1
  -1   2   4 10635.7 315.052   2
   1  -2  -3 12248.0 327.104   2
   1  -2  -3 11534.2 337.775   1
  -1   2   3 12073.4 347.510   1
  -1   2   3 11847.1 324.908   2
   1  -2  -2 789.260 74.1535   1
   1  -2  -2 914.384 91.5882   2
  -1   2   2 827.584 74.9231   1
  -1   2   2 839.053 93.5152   2
   1  -2  -1 4031.99 193.031   2
   1  -2  -1 3765.91 119.750   1
  -1   2   1 3811.39 123.028   1
   1  -2   0 46648.3 694.914   2
   1  -2   1 77842.4 946.231   2
  -1   2  -1 78073.7 534.696   1
  -1   2  -1 76389.0 946.894   3
  -1   2  -2 27970.2 435.526   1
  -1   2  -2 28020.3 605.977   3
  -1   2  -3 4886.10 220.987   1
  -1   2  -3 4694.26 264.424   2
  -1   2  -3 4948.19 267.339   3
   1  -2   3 4635.62 214.797   1
   1  -2   4 1347.37 154.383   3
  -1   2  -4 1270.51 129.442   1
  -1   2  -4 1291.61 145.562   3
   1  -2   4 1302.23 135.592   1
   1  -2   5 10948.3 426.851   1
  -1   2  -5 10566.7 418.179   1
   1  -2   5 9767.62 429.113   3
  -1   2  -5 10776.3 438.657   3
   1  -2   6 1414.91 173.482   1
  -1   2  -6 1522.76 181.305   1
   1  -2   6 1297.74 167.017   3
  -1   2  -6 1519.87 175.447   3
  -1   2  -7 5640.04 354.304   3
  -1   2  -7 5785.72 374.078   1
   1  -2   7 5313.86 343.840   3
   1  -2   7 5775.98 369.058   1
   1  -2   8 1412.48 192.571   3
   1  -2   8 1540.67 210.295   1
  -1   2  -8 1446.74 185.015   3
  -1   2  -8 1419.68 203.002   1
   1  -2   9 37.1928 76.0615   1
  -1   2  -9 23.2412 39.4049   3
  -1   2  -9-51.1036 72.1262   1
   1  -2   9 25.6828 66.4396   3
   1  -2  10 5081.50 395.209   3
  -1   2 -10 6106.03 415.501   3
   1  -2  10 5233.75 433.506   1
   1  -2  11 2086.53 266.878   3
   1  -2  11 2103.70 297.059   1
   1  -2  12 219.605 98.2824   3
   1  -2  12 98.3099 67.6532   1
   1  -2  13 1407.21 267.212   1
   1  -2  14 233.316 120.602   1
  -1   2 -15 1628.42 279.436   2
   1  -2  15 1268.20 275.922   1
  -1   2 -16 1043.70 233.885   2
   1  -2  16 879.888 227.431   1
  -1   1  16 199.662 149.036   1
  -1   1  15 84.9835 78.6124   1
  -1   1  14 425.431 102.394   3
  -1   1  14 507.875 171.303   1
   1  -1 -13 118.183 55.1061   2
  -1   1  13 71.7378 45.9568   3
  -1   1  13 150.701 96.9397   1
  -1   1  12 165.499 108.983   1
   1  -1 -12 179.128 59.4049   2
  -1   1  12 137.917 69.6853   3
  -1   1  11 2226.68 306.225   1
  -1   1  11 2636.09 213.576   3
   1  -1 -11 2426.55 204.327   2
  -1   1  10 4467.61 261.537   3
   1  -1 -10 4177.38 253.419   3
   1  -1 -10 4414.98 255.945   2
  -1   1  10 4533.35 402.989   1
   1  -1  -9 4999.78 256.278   2
  -1   1   9 5231.97 267.223   3
  -1   1   9 5170.88 404.101   1
   1  -1  -9 5673.31 427.536   1
   1  -1  -8 4908.03 236.777   2
  -1   1   8 5415.99 251.948   3
  -1   1   8 5039.96 374.371   1
  -1   1   7 7397.79 272.772   3
  -1   1   7 7601.85 429.916   1
   1  -1  -7 7354.47 269.556   2
  -1   1   6 3045.58 254.202   1
   1  -1  -6 3155.03 162.568   2
  -1   1   6 3432.61 169.502   3
   1  -1  -5 154.622 35.3727   2
  -1   1   5 132.717 37.3421   3
  -1   1   5 92.2912 59.2729   1
   1  -1  -4 27219.6 613.055   1
  -1   1   4 26516.4 616.167   1
  -1   1   4 26416.9 401.014   3
   1  -1  -4 27272.6 401.302   2
  -1   1   3 2793.70 125.859   2
   1  -1  -3 2844.92 175.877   1
  -1   1   3 2668.23 176.261   1
   1  -1  -3 2672.81 120.087   2
  -1   1   2 157.402 44.4379   1
   1  -1  -2 178.008 45.8742   1
   1  -1  -2 126.477 30.4035   2
  -1   1   2 220.857 49.1202   2
   1  -1  -1 56073.1 590.022   2
  -1   1   1 55280.3 551.015   1
   1  -1   0 1486.23 106.341   2
  -1   1   0 1519.13 108.165   3
  -1   1  -1 8445.61 270.277   3
  -1   1  -2 25546.5 509.778   3
  -1   1  -2 24566.9 422.625   1
  -1   1  -3 2585.06 178.612   3
  -1   1  -3 2590.17 162.957   1
  -1   1  -4 10354.6 381.142   3
   1  -1   4 10068.0 369.743   1
  -1   1  -4 9757.38 361.927   1
   1  -1   4 9399.25 365.935   3
  -1   1  -5 4469.80 273.142   1
   1  -1   5 4477.51 269.726   3
   1  -1   5 5149.43 293.979   1
  -1   1  -5 4627.71 270.125   3
  -1   1  -6 996.663 142.897   1
   1  -1   6 1108.78 149.531   3
  -1   1  -6 1216.58 151.627   3
   1  -1   6 1147.45 157.714   1
  -1   1  -7 4468.84 328.247   1
   1  -1   7 4122.31 292.887   3
  -1   1  -7 4654.46 304.959   3
   1  -1   7 4770.33 335.957   1
   1  -1   8-6.50803 37.9729   3
  -1   1  -8-3.57097 62.4896   1
  -1   1  -8 39.5764 36.4203   3
   1  -1   8 62.3639 59.6099   1
  -1   1  -9 41.9548 66.4050   1
  -1   1  -9 77.6760 58.2705   3
   1  -1   9-27.2297 60.7136   3
   1  -1   9-25.7599 59.1772   1
  -1   1 -10 3269.78 296.111   3
   1  -1  10 3223.34 298.211   3
   1  -1  10 3372.74 341.055   1
  -1   1 -11 1438.22 205.958   3
   1  -1  11 1334.60 205.208   3
   1  -1  11 1627.23 254.663   1
   1  -1  12 1852.48 256.151   3
   1  -1  12 1832.80 278.172   1
   1  -1  13 59.4169 55.7054   3
   1  -1  13 18.6706 81.2366   1
   1  -1  14 125.912 80.2289   3
   1  -1  14 252.479 134.468   1
   1  -1  15 190.830 93.0454   3
   1  -1  15 268.469 124.635   1
   1  -1  16 58.5519 133.662   1
   1  -1  16 205.488 112.922   3
  -1   0  16 115.616 125.165   1
  -1   0  15 227.463 112.213   1
  -1   0  14 631.014 187.553   1
  -1   0  13 898.717 219.634   1
  -1   0  13 643.802 112.283   3
  -1   0  12 3054.71 232.299   3
   1   0 -12 3341.39 245.642   3
  -1   0  12 3116.68 378.298   1
  -1   0  11 710.831 107.587   3
  -1   0  11 628.982 160.063   1
   1   0 -11 756.714 110.752   3
   1   0 -10 1431.45 141.825   3
  -1   0  10 1260.67 220.315   1
  -1   0  10 1331.29 136.222   3
  -1   0   9 3483.25 337.829   1
   1   0  -9 3730.06 209.085   3
   1   0  -9 4374.69 378.441   1
  -1   0   9 3807.24 213.773   3
   1   0  -8 5739.91 238.907   3
  -1   0   8 5839.73 410.338   1
  -1   0   8 5630.44 239.532   3
  -1   0   7 1830.95 123.548   3
   1   0  -7 1873.80 122.623   3
  -1   0   7 1602.96 201.870   1
  -1   0   6 16559.7 600.502   1
   1   0  -6 17009.3 323.821   3
  -1   0   6 17264.0 334.506   3
   1   0  -5 309.748 38.2229   3
  -1   0   5 217.688 59.7960   1
  -1   0   5 278.106 38.7838   3
  -1   0   4 6464.20 313.501   1
   1   0  -4 6756.83 150.896   2
  -1   0   3 151.974 58.2386   1
  -1   0   2 350.262 67.7254   1
  -1   0   1 22450.3 275.787   2
  -1   0   1 23137.0 409.754   1
  -1   0   1 22218.3 274.351   3
   1   0  -1 22903.5 272.793   3
   1   0   0 20911.2 321.780   3
  -1   0   0 20812.8 329.306   3
  -1   0  -1 23768.1 407.829   3
  -1   0  -2 122920. 1044.81   3
  -1   0  -3 2383.66 160.430   3
  -1   0  -3 2302.76 159.934   1
  -1   0  -4 37.7701 41.8747   1
  -1   0  -4 75.8558 45.0817   3
  -1   0  -5 8501.76 351.935   3
  -1   0  -5 8103.33 369.338   1
   1   0   5 8313.93 357.971   3
   1   0   5 8879.13 395.807   1
   1   0   6 3206.47 237.771   3
  -1   0  -6 3505.73 267.604   1
  -1   0  -6 3281.21 237.884   3
   1   0   6 3512.05 268.702   1
  -1   0  -7 3437.17 286.256   1
   1   0   7 3555.60 295.859   1
  -1   0  -7 3519.99 257.077   3
   1   0   7 3326.90 255.917   3
   1   0   8 18.9428 53.6177   1
  -1   0  -8-4.52344 32.3671   3
   1   0   8 3.57415 46.7262   3
  -1   0  -8-26.0683 62.1508   1
  -1   0  -9 11964.6 599.817   1
  -1   0  -9 11487.4 519.163   3
   1   0   9 12312.6 615.349   1
   1   0   9 10994.7 518.169   3
   1   0  10 579.063 153.918   1
   1   0  10 530.581 120.577   3
  -1   0 -10 563.540 131.563   3
  -1   0 -11 1947.60 237.080   3
   1   0  11 1452.69 238.611   1
   1   0  11 1774.02 231.398   3
   1   0  12 364.510 134.669   1
   1   0  12 258.499 95.2334   3
   1   0  13 554.335 142.249   3
   1   0  13 858.420 205.273   1
   1   0  14 579.595 153.777   3
   1   0  14 698.781 198.807   1
   1   0  15 560.250 151.313   3
   1   0  15 640.828 193.222   1
   1   0  16 1283.25 240.063   3
   1   0  16 1024.09 246.549   1
  -1  -1  16 38.0847 123.234   1
  -1  -1  15-13.2798 86.6592   1
  -1  -1  14 4.03960 111.884   1
  -1  -1  13 54.6231 101.615   1
  -1  -1  12 815.281 204.696   1
   1   1 -12 907.336 128.088   3
  -1  -1  11 195.271 108.194   1
   1   1 -11 72.6021 34.0437   3
   1   1 -10 3099.36 204.391   3
  -1  -1  10 3580.02 370.440   1
  -1  -1   9 1181.87 203.296   1
   1   1  -9 1438.94 131.606   3
  -1  -1   8 2147.87 255.450   1
   1   1  -8 2420.05 154.176   3
   1   1  -8 2363.55 271.656   1
   1   1  -7 2309.07 135.523   3
  -1  -1   7 2168.05 236.435   1
  -1  -1   6 15264.5 596.339   1
   1   1  -6 14906.1 306.289   3
  -1  -1   5 22139.9 657.275   1
   1   1  -5 21870.6 318.419   3
  -1  -1   4 1301.67 154.973   1
   1   1  -4 1362.93 67.8741   2
   1   1  -4 1232.36 62.4292   3
  -1  -1   3 20625.7 534.372   1
  -1  -1   2 44401.8 710.709   1
   1   1  -1 6895.44 156.378   3
  -1  -1   1 6808.03 160.288   3
   1   1   0 16981.0 298.740   3
  -1  -1   0 16985.1 302.649   3
  -1  -1  -1 11261.2 285.845   3
  -1  -1  -2 159.340 47.9726   3
  -1  -1  -3 3228.26 186.507   3
  -1  -1  -4 1053.13 121.386   3
  -1  -1  -5 5745.79 295.185   3
   1   1   5 5089.66 280.020   3
  -1  -1  -6 14466.1 490.897   3
   1   1   6 13407.7 484.450   3
   1   1   7 2934.88 270.989   1
  -1  -1  -7 2877.04 237.319   3
   1   1   7 3046.97 244.797   3
   1   1   8 362.768 98.2201   1
  -1  -1  -8 357.962 107.237   1
   1   1   8 302.581 86.8816   3
  -1  -1  -8 293.779 89.6544   3
   1   1   9 10.5891 48.5007   1
   1   1   9-17.7180 55.0455   3
  -1  -1  -9 66.9689 77.2363   1
  -1  -1  -9 99.1496 67.8204   3
   1   1  10 1380.70 220.588   1
  -1  -1 -10 1518.53 198.121   3
   1   1  10 1594.50 214.144   3
  -1  -1 -11 272.983 84.9290   3
   1   1  11 195.166 76.2830   3
   1   1  11 348.382 117.294   1
   1   1  12 270.831 127.604   1
   1   1  12 65.8029 76.2240   3
   1   1  13 540.345 147.106   3
   1   1  13 759.749 197.262   1
   1   1  14-88.6271 112.965   1
   1   1  14 18.1204 72.8565   3
   1   1  15-87.0092 114.483   1
   1   1  15 86.9393 89.4524   3
   1   1  16 102.633 78.1952   3
   1   1  17 299.292 122.275   3
  -1  -2  15 217.605 176.242   1
  -1  -2  14 1169.30 260.084   1
  -1  -2  13 575.148 190.855   1
  -1  -2  12 566.459 170.392   1
   1   2 -12 467.638 99.3474   2
  -1  -2  11 3391.40 385.181   1
   1   2 -11 3520.19 239.313   3
   1   2 -10 1648.43 155.439   3
  -1  -2  10 1562.47 253.300   1
   1   2 -10 1687.40 165.362   2
  -1  -2   9 1799.71 252.587   1
   1   2  -9 2127.14 173.169   2
   1   2  -9 2279.78 172.631   3
   1   2  -8 665.026 91.3869   2
  -1  -2   8 532.763 124.898   1
   1   2  -8 608.483 82.6727   3
   1   2  -8 747.485 159.373   1
   1   2  -7 465.573 69.4699   2
  -1  -2   7 441.483 113.574   1
   1   2  -7 462.699 70.0587   3
   1   2  -7 480.170 119.249   1
  -1  -2   6 5248.10 355.989   1
   1   2  -6 5277.97 361.006   1
   1   2  -6 5279.60 208.970   2
   1   2  -6 5209.32 209.086   3
   1   2  -5 1512.18 182.633   1
   1   2  -5 1376.51 94.7712   2
   1   2  -5 1515.17 104.442   3
  -1  -2   5 1817.90 197.251   1
   1   2  -4 24677.4 664.488   1
  -1  -2   4 24258.3 659.799   1
   1   2  -4 24560.3 350.930   2
   1   2  -4 24422.5 398.588   3
   1   2  -3 87822.6 604.927   2
  -1  -2   3 86308.3 652.282   2
  -1  -2   3 90429.9 1179.14   1
   1   2  -3 86226.6 1158.07   1
   1   2  -2 1351.19 74.7664   2
  -1  -2   2 1323.68 78.2563   2
  -1  -2   2 1205.54 133.478   1
  -1  -2   1 45701.8 481.678   2
   1   2  -1 46581.4 470.305   2
   1   2   0 322776. 1576.47   3
  -1  -2   0 314547. 1377.76   2
   1   2   1 50468.3 672.754   3
  -1  -2  -1 49149.5 678.909   3
  -1  -2  -2 33779.3 602.323   3
  -1  -2  -3 11260.5 373.968   3
  -1  -2  -4 140.729 49.9759   3
  -1  -2  -5 79.8289 52.0612   3
   1   2   6 170.102 56.5836   3
  -1  -2  -6 154.766 58.9132   3
   1   2   7 8827.49 425.484   3
  -1  -2  -7 8738.93 419.394   3
   1   2   8 1755.52 202.136   3
  -1  -2  -8 1756.48 195.050   3
  -1  -2  -9 316.304 98.3262   1
   1   2   9 244.469 100.852   3
  -1  -2  -9 174.601 65.2045   3
   1   2  10 76.8752 57.5190   3
  -1  -2 -10 202.814 80.9115   3
   1   2  11 3457.46 374.295   1
  -1  -2 -11 3600.54 321.114   3
   1   2  11 3428.20 318.171   3
   1   2  12 2821.97 303.731   3
   1   2  13 405.792 144.696   3
   1   2  14 4170.24 400.125   3
   1   2  15 9.93828 75.6877   3
   1   2  16 255.141 117.262   3
   1   2  17 97.9737 87.9771   3
  -1  -3  15 96.3801 123.611   1
  -1  -3  14 468.795 182.994   1
  -1  -3  13 445.380 178.301   1
  -1  -3  12 1563.88 274.435   1
  -1  -3  11 206.435 112.948   1
   1   3 -11 378.521 81.0218   3
   1   3 -11 375.560 82.2494   2
   1   3 -10 16.5872 23.2521   2
  -1  -3  10-6.51975 52.2211   1
   1   3 -10 70.3599 43.6518   3
   1   3  -9 1471.73 146.508   2
  -1  -3   9 1806.53 257.345   1
   1   3  -9 1440.85 148.440   3
  -1  -3   8-66.1168 90.1860   1
   1   3  -8 29.5239 51.3200   1
   1   3  -8 48.7974 35.4753   3
   1   3  -8 25.6801 26.7611   2
  -1  -3   7 1300.13 191.656   1
   1   3  -7 1391.58 204.399   1
   1   3  -7 1283.33 121.342   2
   1   3  -7 1295.51 128.839   3
   1   3  -6 3227.24 182.583   2
  -1  -3   6 3692.03 311.688   1
   1   3  -6 3240.68 193.998   3
   1   3  -6 3254.01 288.860   1
   1   3  -5 1751.36 203.440   1
   1   3  -5 1683.29 123.912   2
  -1  -3   5 1816.60 204.772   1
   1   3  -5 1646.33 134.725   3
  -1  -3   4 14193.8 531.583   1
   1   3  -4 13765.4 516.997   1
   1   3  -4 14060.2 335.783   2
   1   3  -3 106.182 38.0245   2
  -1  -3   3 83.3966 46.8701   1
  -1  -3   3 105.853 37.4862   2
   1   3  -2 5713.74 205.904   2
  -1  -3   2 5380.55 208.838   2
  -1  -3   2 5813.12 300.221   1
   1   3  -1 16278.9 355.106   2
  -1  -3   1 15817.7 359.930   2
  -1  -3   0 2086.63 139.324   2
   1   3   0 2142.18 136.082   2
   1   3   1 105814. 1130.55   3
  -1  -3  -1 105729. 1017.66   2
  -1  -3  -2 108725. 1085.51   2
  -1  -3  -3 16839.3 504.659   3
  -1  -3  -4 1842.89 175.747   3
  -1  -3  -5 12151.2 466.762   3
   1   3   6 10432.8 453.838   3
  -1  -3  -6 10969.7 467.697   3
  -1  -3  -7 7824.80 407.394   3
   1   3   7 7059.56 395.291   3
  -1  -3  -8 1584.46 194.663   3
   1   3   8 1559.70 196.581   3
  -1  -3  -9 887.002 177.130   1
   1   3   9 650.170 136.690   3
  -1  -3  -9 545.693 120.455   3
  -1  -3 -10 1284.56 193.598   3
   1   3  10 1023.16 173.227   3
  -1  -3 -11 10.7791 55.2361   3
   1   3  11 92.9945 83.8805   3
   1   3  12 149.690 97.7881   3
   1   3  13 23.0459 69.8098   3
   1   3  14 1847.21 271.251   3
   1   3  15-18.0302 59.0228   3
   1   3  16 931.352 206.804   3
   1   3  17 195.900 123.890   3
  -1  -4  15 148.371 145.657   1
  -1  -4  14 62.8611 89.0692   1
  -1  -4  13 245.426 136.275   1
  -1  -4  12 129.542 107.203   1
  -1  -4  11 1306.43 251.192   1
   1   4 -10 1456.50 160.087   2
   1   4 -10 1270.01 160.176   3
  -1  -4  10 1174.50 229.422   1
  -1  -4   9 1513.76 248.708   1
   1   4  -9 1258.49 153.111   3
   1   4  -8 272.757 72.9493   3
  -1  -4   8 133.331 88.9208   1
   1   4  -8 133.584 43.6214   2
   1   4  -7-61.1882 60.2502   1
   1   4  -7 65.1553 44.6664   3
  -1  -4   7 36.0756 80.1869   1
   1   4  -7 35.0063 37.2486   2
   1   4  -6 38.6955 32.6870   2
  -1  -4   6-2.49968 58.8601   1
   1   4  -6-15.2450 49.5513   1
   1   4  -6 44.3486 28.8724   3
  -1  -4   5 14687.3 600.146   1
   1   4  -5 14710.8 469.363   3
   1   4  -5 14707.5 596.247   1
   1   4  -5 13945.7 408.791   2
   1   4  -4 11727.3 362.818   2
  -1  -4   4 12615.2 527.731   1
  -1  -4   4 12056.1 392.018   2
  -1  -4   3 19858.0 617.285   1
   1   4  -3 18075.9 443.228   2
  -1  -4   3 17737.8 462.944   2
  -1  -4   2 433.367 93.5934   1
  -1  -4   2 274.359 59.1501   2
   1   4  -2 281.612 60.1863   2
  -1  -4   1-6.24824 25.2138   2
   1   4  -1 43.6860 29.4559   2
   1   4   0 366.224 67.7406   2
  -1  -4   0 277.073 58.2972   2
  -1  -4  -1 1865.72 157.416   2
   1   4   1 1835.50 149.200   2
  -1  -4  -2 784.548 107.306   2
   1   4   2 859.764 129.206   3
  -1  -4  -3 16815.5 500.473   2
  -1  -4  -4 107.814 56.5404   2
  -1  -4  -5 11892.8 456.235   2
  -1  -4  -6 14868.9 535.418   2
  -1  -4  -6 15207.1 583.762   3
   1   4   7 2006.56 225.064   3
  -1  -4  -7 2283.22 236.843   3
  -1  -4  -8 8679.46 513.974   1
   1   4   8 9103.26 489.833   3
  -1  -4  -8 9242.85 489.792   3
  -1  -4  -9 128.683 73.9925   1
  -1  -4  -9 131.077 52.8693   3
   1   4   9 135.009 75.9500   3
   1   4  10 2136.32 259.170   3
  -1  -4 -10 2583.45 281.123   3
   1   4  11 1742.83 242.473   3
   1   4  12 3889.10 369.689   3
   1   4  13 67.8647 57.7654   3
   1   4  14 144.689 89.7851   3
   1   4  15 66.5196 81.0458   3
   1   4  16 81.9531 74.5489   3
   1   4  17 842.384 211.367   3
   1   4  18 315.029 134.810   3
  -1  -5  14 117.342 110.147   1
  -1  -5  13 54.7345 77.7587   1
  -1  -5  12 15.1849 75.2222   1
  -1  -5  11 384.664 134.936   1
  -1  -5  10 315.758 137.157   1
   1   5  -9 99.9937 44.2251   3
  -1  -5   9 45.0490 66.6040   1
   1   5  -8 876.034 136.565   3
   1   5  -8 804.656 121.054   2
  -1  -5   8 738.959 179.329   1
  -1  -5   7 2216.97 274.897   1
   1   5  -7 1868.58 196.893   3
  -1  -5   6 3658.77 329.364   1
   1   5  -6 3994.40 280.872   3
  -1  -5   5 143.099 69.2310   1
   1   5  -5-2.43601 36.0124   2
   1   5  -4 1175.65 132.201   2
  -1  -5   4 1347.75 150.627   2
  -1  -5   4 1222.58 174.139   1
   1   5  -3 150.239 38.5485   2
  -1  -5   3 49.2436 28.1837   2
  -1  -5   3 44.7622 40.6661   1
   1   5  -2 325.863 67.1241   2
  -1  -5   2 323.490 84.8492   1
  -1  -5   2 292.760 72.5921   2
  -1  -5   1 2819.78 220.507   1
   1   5  -1 2398.80 187.149   2
  -1  -5   1 2623.41 202.433   2
   1   5   0 5758.12 292.236   2
  -1  -5   0 6046.92 307.988   2
  -1  -5  -1 10105.6 405.805   2
   1   5   1 51.0509 54.9845   2
   1   5   2-10.5760 27.1913   2
  -1  -5  -2 1070.57 134.656   2
  -1  -5  -3 19535.2 593.889   2
  -1  -5  -4 2122.41 201.040   2
  -1  -5  -5 217.779 75.1514   2
  -1  -5  -6 3597.27 281.205   2
  -1  -5  -7 97.4454 44.9896   2
  -1  -5  -7 128.093 78.0560   1
   1   5   7 106.734 58.1448   3
  -1  -5  -8 5246.62 357.704   2
   1   5   8 4507.55 364.168   3
  -1  -5  -8 4618.88 383.946   1
   1   5   9 232.876 105.846   3
   1   5  10 1504.40 229.140   3
   1   5  11 3031.73 325.122   3
   1   5  12 775.785 175.944   3
   1   5  13 187.192 92.5077   3
   1   5  14 623.016 165.330   3
   1   5  15 1382.75 246.735   3
   1   5  16 57.2063 67.8720   3
   1   5  17 206.367 118.130   3
   1   5  18 336.865 141.841   3
  -1  -6  14-44.7960 87.2585   1
  -1  -6  13 80.6542 115.053   1
  -1  -6  12-5.63147 103.198   1
  -1  -6  11 109.559 106.667   1
  -1  -6  10 797.376 196.063   1
  -1  -6   9 968.670 202.555   1
  -1  -6   8 1911.91 270.014   1
   1   6  -8 1574.60 198.687   3
   1   6  -7 2938.84 272.715   3
  -1  -6   7 2756.63 311.158   1
  -1  -6   6 934.783 177.224   1
   1   6  -6 751.197 140.590   3
  -1  -6   5 1576.93 189.664   2
  -1  -6   5 1497.82 213.648   1
  -1  -6   4 1639.32 211.976   1
  -1  -6   4 1425.96 173.327   2
  -1  -6   3 3345.65 282.691   1
  -1  -6   3 2824.86 238.954   2
  -1  -6   2 1890.24 202.528   1
  -1  -6   2 1761.12 185.385   2
  -1  -6   1 3270.64 257.251   1
  -1  -6   1 3238.74 253.316   2
  -1  -6   0 284.031 74.7352   2
  -1  -6  -1 88.6744 59.3601   2
  -1  -6  -2 9053.82 431.315   2
  -1  -6  -3 2674.70 241.463   2
  -1  -6  -4 118.774 55.5380   2
  -1  -6  -5 494.599 114.931   2
  -1  -6  -6 2598.12 255.979   2
   1   6   6 2485.90 267.988   3
  -1  -6  -7 964.427 186.005   1
  -1  -6  -7 1025.91 167.621   2
   1   6   7 884.121 166.416   3
   1   6   8 136.560 85.2299   3
  -1  -6  -8 187.024 93.6166   1
   1   6   9 2709.25 311.297   3
   1   6  10 442.799 136.631   3
   1   6  11 854.817 186.562   3
   1   6  12 154.312 73.6287   3
   1   6  13 664.253 175.519   3
   1   6  14-108.175 79.2090   3
   1   6  15 710.005 193.319   3
   1   6  16 162.739 109.726   3
   1   6  17-37.7575 73.1832   3
   1   6  18 1361.82 282.584   3
  -1  -7  13 79.4984 76.9668   1
  -1  -7  12 440.670 159.045   1
  -1  -7  11 949.353 244.409   1
  -1  -7  10 75.3629 62.3142   1
  -1  -7   9 281.759 113.686   1
   1   7  -9 353.032 91.1425   2
   1   7  -8 2137.01 226.617   2
  -1  -7   8 1947.32 280.573   1
   1   7  -7 1205.19 188.165   3
   1   7  -7 1108.37 162.499   2
  -1  -7   7 1016.54 207.325   1
   1   7  -6 1289.47 193.515   3
   1   7  -6 1503.66 187.797   2
  -1  -7   6 1465.56 223.647   1
  -1  -7   5 36.7071 52.7893   2
  -1  -7   5 96.9171 74.4359   1
   1   7  -5 73.6325 61.3858   2
  -1  -7   4 34.8307 43.2633   2
  -1  -7   4-20.1876 46.6929   1
  -1  -7   3 257.893 84.1639   2
  -1  -7   3 121.488 63.4266   1
  -1  -7   2 660.265 128.616   2
  -1  -7   2 549.332 123.165   1
  -1  -7   1 419.210 100.552   1
  -1  -7   1 342.086 89.7889   2
   1   7   0 63.6580 53.5060   2
  -1  -7   0 101.779 44.0160   2
   1   7   1 2400.49 231.540   2
  -1  -7  -1 2315.20 239.746   2
   1   7   2 91.5450 68.8754   2
  -1  -7  -2 107.452 63.7365   2
   1   7   3 2120.97 229.796   2
  -1  -7  -3 2085.45 232.235   2
  -1  -7  -4 2372.79 251.072   2
   1   7   4 2032.43 254.343   3
   1   7   5 363.444 115.803   3
  -1  -7  -5 547.165 129.838   2
   1   7   6 86.4869 79.1342   3
  -1  -7  -6 433.891 125.015   1
  -1  -7  -7 1728.09 245.035   1
   1   7   7 1497.61 232.228   3
  -1  -7  -8 36.8670 65.1645   1
   1   7   8 76.5528 72.3905   3
   1   7   9 11622.6 656.197   3
   1   7  10 149.668 99.2270   3
   1   7  11 443.167 152.624   3
   1   7  12 521.944 162.348   3
   1   7  13 524.223 170.635   3
   1   7  14-0.50263 84.7074   3
   1   7  15 173.797 121.193   3
   1   7  16 135.236 95.3689   3
   1   7  17 1658.67 312.944   3
   1   7  18 848.598 224.851   3
  -1  -8  11 928.267 227.920   1
  -1  -8  10-118.687 94.1908   1
  -1  -8   9 2258.94 318.865   1
   1   8  -8 16.8047 51.6187   2
  -1  -8   8-48.5198 87.7814   1
  -1  -8   7 1692.59 255.540   1
   1   8  -7 1527.11 203.677   2
   1   8  -6 1445.98 201.070   2
  -1  -8   6 1241.18 213.113   1
  -1  -8   5 3302.68 329.319   1
   1   8  -5 2375.72 247.906   2
   1   8  -4 119.753 73.1008   2
  -1  -8   4 67.0142 66.1440   1
  -1  -8   4 172.376 77.8947   2
  -1  -8   3 948.343 161.786   1
   1   8  -3 866.499 151.554   2
  -1  -8   3 887.219 162.482   2
   1   8  -2 20.2163 38.5754   2
  -1  -8   2 126.327 68.7384   2
  -1  -8   2 58.1247 37.1501   1
  -1  -8   1 16.6274 36.6100   1
   1   8  -1 45.2580 52.1401   2
  -1  -8   1 6.67722 43.8945   2
  -1  -8   0 1178.39 171.312   1
   1   8   0 982.771 157.495   2
  -1  -8   0 1303.33 196.687   2
   1   8   1 349.017 98.3235   2
   1   8   2 1657.00 213.157   2
   1   8   3 2139.45 247.401   2
   1   8   4 971.560 169.210   2
   1   8   4 790.760 175.662   3
   1   8   5 1260.86 222.756   3
   1   8   6 1159.60 208.896   3
  -1  -8  -6 1515.85 220.471   1
   1   8   7 192.728 113.750   3
  -1  -8  -7 66.9820 50.7994   1
   1   8   8 36.2228 65.2993   3
   1   8   9 2115.78 297.766   3
   1   8  10 1168.64 228.045   3
   1   8  11 249.833 138.721   3
   1   8  12 261.475 132.016   3
   1   8  13 288.589 136.932   3
   1   8  14 704.095 205.173   3
   1   8  15 194.256 107.967   3
   1   8  16 194.650 145.501   3
   1   8  17 704.226 220.006   3
  -1  -9   9 393.751 144.722   1
  -1  -9   8 3.54816 59.3277   1
   1   9  -7 220.373 94.3896   2
  -1  -9   7 111.141 51.9832   1
  -1  -9   6 863.158 181.764   1
   1   9  -6 749.933 153.174   2
  -1  -9   5 1132.48 201.761   1
   1   9  -5 1111.96 192.921   2
  -1  -9   4 51.5978 51.4019   1
   1   9  -4-4.92754 39.3807   2
   1   9  -3 163.516 70.7597   2
  -1  -9   3 204.175 77.1402   1
   1   9  -2 1181.77 187.948   2
  -1  -9   2 1162.73 183.524   1
   1   9  -1 489.836 131.019   2
  -1  -9   1 485.091 117.578   1
  -1  -9   0 1594.20 206.260   1
   1   9   0 1342.47 207.368   2
   1   9   1 375.288 114.951   2
   1   9   2 3.43256 47.5169   2
   1   9   3 142.483 93.7840   2
   1   9   4 209.692 91.2123   2
   1   9   4 261.801 139.068   3
   1   9   5 1568.16 253.262   3
   1   9   6 26.1648 55.0571   3
  -1  -9  -6-126.685 102.040   1
   1   9   7 1031.13 215.274   3
   1   9   8 476.817 168.938   3
   1   9   9 117.266 87.1107   3
   1   9  10 39.9446 72.4464   3
   1   9  11 671.760 197.139   3
   1   9  12 89.2463 132.806   3
   1   9  13 700.150 196.058   3
   1   9  14 348.206 131.943   3
   1   9  15 906.642 234.787   3
   1   9  16-172.388 123.417   3
   1  10  -6-73.1059 62.3415   2
  -1 -10   5 33.4992 63.1349   1
   1  10  -5-82.7134 68.9794   2
  -1 -10   4 397.266 123.299   1
   1  10  -4 239.786 92.0153   2
  -1 -10   3 549.542 135.076   1
   1  10  -3 557.178 147.318   2
  -1 -10   2 314.317 103.895   1
   1  10  -2 305.294 120.035   2
   1  10  -1 70.5603 85.2897   2
  -1 -10   1 37.6841 54.4445   1
   1  10   0 602.215 144.773   2
  -1 -10   0 582.963 139.928   1
   1  10   1 36.7376 51.0929   2
  -1 -10  -1 21.2111 44.9355   1
   1  10   2 31.7918 47.1735   2
   1  10   3 1310.13 216.585   2
   1  10   4 70.8277 52.8824   2
   1  10   4 22.4638 63.6517   3
   1  10   5 1020.99 229.214   3
   1  10   6-37.8499 69.6054   3
   1  10   7 1102.24 235.250   3
   1  10   8 3717.50 432.528   3
   1  10   9 3178.65 406.661   3
   1  10  10 1371.02 273.661   3
   1  10  11 215.991 135.900   3
   1  10  12 1317.20 282.098   3
   1  10  13 431.442 164.619   3
   1  10  14 130.693 100.836   3
   1  11  -5 372.409 133.999   2
   1  11  -4 168.344 70.3877   2
   1  11  -3 60.9072 51.0003   2
   1  11  -2 125.145 80.6271   2
   1  11  -1 372.573 135.915   2
  -1 -11   1 193.555 96.2202   1
   1  11   0 73.1683 73.7077   2
  -1 -11   0-27.2048 49.3079   1
   1  11   1 75.7936 63.9011   2
  -1 -11  -1 82.9811 56.6026   1
  -1 -11  -2 107.015 63.3091   1
   1  11   2 155.916 108.345   2
   1  11   3-34.6638 76.5090   2
   1  11   4 93.1564 69.7231   2
   1  11   4 297.622 145.128   3
   1  11   5 195.953 122.850   3
   1  11   6 889.183 224.405   3
   1  11   7-20.0537 82.8843   3
   1  11   8 121.229 127.259   3
   1  11   9 590.454 178.310   3
   1  11  10 11.2268 103.395   3
   1  11  11 481.280 173.629   3
   1  11  12 2351.27 390.466   3
   1  12  -4-14.5206 68.6395   2
   1  12  -3 221.427 113.754   2
   1  12  -2 428.040 136.981   2
   1  12  -1 201.713 104.415   2
   1  12   0 444.038 153.637   2
   1  12   1 335.680 119.683   2
   1  12   2 223.205 115.112   2
   1  12   3-86.3596 91.6657   2
   1  12   4 42.7582 69.9514   3
   1  12   5 145.492 78.2358   3
   1  12   6 276.158 154.743   3
   1  12   7 428.780 183.317   3
   1  12   8 1135.74 265.722   3
   1  12   9 706.024 221.434   3
   1  12  10-31.8822 93.1230   3
   1  13  -2 82.0033 65.5235   2
   1  13  -1-187.501 109.170   2
   1  13   0 225.034 125.993   2
   1  13   1-6.67883 81.9039   2
   1  13   2-42.5389 80.2647   2
   1  13   3-52.8476 101.166   3
   1  13   3-96.5222 110.508   2
   1  13   4 134.842 99.5998   3
   1  13   5 152.397 96.8554   3
  -2  12   7 133.234 119.329   2
  -2  12   6 5.63590 100.337   2
  -2  12   5-119.407 110.319   2
  -2  12   4-1.68747 85.9730   2
  -2  12   3-38.4885 80.5910   2
  -2  12   2 496.946 164.953   2
  -2  12   1 669.314 197.143   2
  -2  11  13-24.6938 72.4280   3
  -2  11  12 571.096 188.601   3
  -2  11  11-32.5437 84.8391   3
  -2  11  10-5.35637 65.4125   2
  -2  11  10 49.8359 81.2325   3
  -2  11   9 281.929 129.901   2
  -2  11   8 424.277 152.232   2
  -2  11   7 45.8128 81.5384   2
  -2  11   6 330.387 128.464   2
  -2  11   5 2750.12 369.750   2
  -2  11   4 2105.74 326.975   2
  -2  11   3 465.395 161.850   2
  -2  11   2 48.1466 85.2159   2
  -2  11   1 309.616 143.306   2
  -2  11   0 152.200 105.034   2
  -2  11  -1 31.4712 83.8645   2
  -2  11  -2 318.861 133.876   2
  -2  11  -3 17.8107 69.7367   2
  -2  11  -4 465.984 168.754   2
  -2  10  15-1.73553 93.8570   3
  -2  10  14 119.524 112.407   3
  -2  10  13 40.9226 71.1043   3
  -2  10  12-86.0036 72.0432   3
  -2  10  11 232.125 131.286   3
  -2  10  10 3.84167 65.6284   3
  -2  10  10 179.478 108.833   2
  -2  10   9-138.752 114.146   2
  -2  10   8-33.1750 55.6226   2
  -2  10   7 291.951 127.635   2
  -2  10   6 168.420 112.548   2
  -2  10   5 162.442 84.0382   2
  -2  10   4 17.9946 61.0548   2
  -2  10   3 4612.87 457.841   2
  -2  10   2 796.633 200.985   2
  -2  10   1 3407.54 395.434   2
  -2  10   0 259.444 139.502   2
  -2  10  -1 96.8747 91.5313   2
  -2  10  -2 1330.57 253.961   2
  -2  10  -3 115.550 120.850   2
  -2  10  -4 139.569 84.5820   2
  -2  10  -5 241.871 118.700   2
  -2  10  -6 94.5331 97.5197   2
  -2  10  -7 194.087 138.241   2
  -2   9  15 77.6169 85.9855   3
  -2   9  14 414.605 140.733   3
  -2   9  13 72.8554 76.5143   3
  -2   9  12 75.3894 64.3904   3
  -2   9  11 103.013 98.2192   3
  -2   9  10 98.2833 79.1977   3
  -2   9  10 59.8260 87.5705   2
  -2   9   9 262.911 135.978   2
  -2   9   8 149.605 93.5074   2
   2  -9  -7 118.807 53.2149   1
  -2   9   7 481.169 143.069   2
   2  -9  -6 1085.39 117.667   1
  -2   9   6 837.775 188.296   2
  -2   9   5 210.508 89.3457   2
   2  -9  -5 246.049 41.7238   1
  -2   9   4 669.670 164.474   2
  -2   9   3 1548.89 248.904   2
  -2   9   2 704.992 177.528   2
  -2   9   1 297.283 109.071   2
  -2   9   0 11998.0 700.219   2
  -2   9  -1 1515.31 254.128   2
  -2   9  -2 2161.64 309.808   2
  -2   9  -3 143.908 99.4416   2
  -2   9  -4 1933.26 301.751   2
  -2   9  -5 390.633 152.055   2
  -2   9  -6 617.967 179.115   2
  -2   9  -7 251.489 133.451   2
  -2   9  -8 266.849 135.658   2
  -2   9  -9 306.370 141.678   2
  -2   8  15-98.4217 106.196   3
  -2   8  14 151.616 68.3007   3
  -2   8  13-95.4162 85.9719   3
  -2   8  12 1809.80 277.711   3
  -2   8  11 74.5560 89.2522   3
  -2   8  10 6.50636 57.6864   2
  -2   8  10 50.0910 67.8642   3
  -2   8   9 125.610 82.3644   2
   2  -8  -9 56.6383 56.2115   1
  -2   8   8 28.2623 82.0256   2
   2  -8  -7 515.464 101.399   1
  -2   8   7 454.312 133.630   2
  -2   8   6 1266.10 212.651   2
   2  -8  -6 1471.66 149.165   1
   2  -8  -5 11.5793 18.0281   1
  -2   8   5 29.5159 71.6002   2
  -2   8   4 649.086 163.096   2
  -2   8   3 788.425 183.530   2
  -2   8   2-84.6216 85.6601   2
  -2   8   1 41.5718 68.5360   2
  -2   8   0 842.693 180.023   2
  -2   8  -1 379.092 121.519   2
  -2   8  -2 447.000 135.272   2
  -2   8  -3 191.478 90.0020   2
  -2   8  -4 675.397 174.978   2
  -2   8  -5 2086.16 302.166   2
  -2   8  -6 364.584 144.166   2
  -2   8  -7 530.204 166.570   2
  -2   8  -8 117.252 120.467   2
  -2   8  -9-41.4524 75.0122   2
  -2   8 -10 258.442 136.622   2
  -2   8 -11 356.507 158.712   2
  -2   7  16 503.213 198.241   1
  -2   7  15-13.1550 107.581   1
  -2   7  14 233.367 121.787   1
  -2   7  14 138.049 82.0912   3
  -2   7  13 307.188 138.398   1
  -2   7  13 364.813 123.394   3
  -2   7  12 92.3781 102.937   1
  -2   7  12 86.7023 78.9732   3
  -2   7  11 537.881 137.209   3
  -2   7  11 381.549 151.567   1
  -2   7  10 1228.08 213.625   3
  -2   7  10 1200.60 215.410   1
   2  -7  -9 564.319 129.422   1
  -2   7   9 482.018 132.497   2
  -2   7   9 626.313 151.516   1
  -2   7   8-11.6104 50.6997   1
  -2   7   8 33.6893 76.4766   2
   2  -7  -7 30.5007 37.6932   1
  -2   7   7 29.6072 44.1290   2
   2  -7  -6 252.747 69.5084   1
  -2   7   6 2129.69 255.532   2
  -2   7   5 33.9965 54.9233   2
   2  -7  -5 40.0653 31.3323   1
  -2   7   4 1284.48 200.378   2
   2  -7  -4 1430.83 106.812   1
  -2   7   3 1611.52 224.212   2
  -2   7   2 5359.35 406.779   2
  -2   7   1-2.21997 65.0074   2
  -2   7   0 778.034 165.386   2
  -2   7  -1 5536.36 429.066   2
  -2   7  -2 4668.06 399.811   2
  -2   7  -3-1.07850 50.1217   2
  -2   7  -4 1975.38 275.670   2
  -2   7  -5 103.525 88.2180   2
  -2   7  -6 294.308 96.2857   2
  -2   7  -7 386.214 140.415   2
  -2   7  -8-96.0884 98.9453   2
  -2   7  -9 72.0257 87.2631   2
  -2   7 -10 78.3930 82.9720   2
  -2   7 -11 117.950 91.7600   2
  -2   7 -12 474.848 171.180   2
  -2   6  16 1032.44 265.454   1
  -2   6  15 123.363 115.195   1
  -2   6  14 144.554 106.479   1
  -2   6  14 246.221 113.619   3
  -2   6  13 2173.10 272.410   3
  -2   6  13 1670.58 293.900   1
  -2   6  12 70.5163 85.3215   1
  -2   6  12 200.681 95.4445   3
  -2   6  11 897.620 169.786   3
  -2   6  11 895.312 188.876   1
  -2   6  10 246.815 106.002   1
  -2   6  10 189.484 90.7225   3
  -2   6   9 27.2576 62.5970   3
   2  -6  -9 89.2324 48.0299   1
  -2   6   9 25.1140 41.0341   2
  -2   6   9 117.773 91.4270   1
  -2   6   8 50.5969 44.4772   2
  -2   6   8 79.2621 74.8458   1
  -2   6   7 645.996 133.388   2
  -2   6   7 567.296 119.222   1
   2  -6  -7 464.545 109.235   2
  -2   6   6 115.260 65.7027   1
  -2   6   6-1.59900 49.5976   2
   2  -6  -6 20.6866 23.6499   1
   2  -6  -6 75.3294 53.3851   2
   2  -6  -5 46.1609 25.3635   1
  -2   6   5 94.4044 82.3683   2
   2  -6  -5 35.8832 43.6789   2
  -2   6   5 48.7981 39.0422   1
  -2   6   4 1496.26 201.449   2
   2  -6  -4 1788.67 135.161   1
   2  -6  -4 1978.33 227.680   2
  -2   6   3 1984.03 233.819   2
   2  -6  -3 2002.05 228.450   2
   2  -6  -2 1359.71 194.679   2
  -2   6   2 1160.85 182.106   2
  -2   6   1-25.9760 42.5464   2
   2  -6  -1 37.7833 47.7992   2
  -2   6   0 855.341 157.093   2
   2  -6   0 720.933 144.514   2
  -2   6  -1 10.8356 57.2020   2
  -2   6  -2 185.368 81.8342   2
  -2   6  -3 5459.24 416.558   2
  -2   6  -4 275.528 55.7457   1
  -2   6  -4 400.056 107.916   2
  -2   6  -5 62.7881 70.4112   2
  -2   6  -5 43.8700 23.6848   1
  -2   6  -6 256.573 109.912   2
  -2   6  -6 241.531 68.6324   1
  -2   6  -7 200.650 100.748   2
  -2   6  -7 204.411 75.5428   1
  -2   6  -8 5.05205 58.3996   2
  -2   6  -9 169.792 116.893   2
  -2   6 -10-46.2632 74.1211   2
  -2   6 -11 264.549 120.645   2
  -2   6 -12 247.751 88.2832   2
  -2   6 -13 73.9136 74.3442   2
  -2   5  16 1293.49 293.381   1
  -2   5  15 1630.16 321.551   1
  -2   5  14 1205.19 188.274   3
  -2   5  14 1063.88 244.097   1
  -2   5  13 267.083 118.824   1
  -2   5  13 326.574 98.1424   3
  -2   5  12 414.472 150.045   1
  -2   5  12 601.300 138.104   3
   2  -5 -11 4272.37 330.656   2
  -2   5  11 4062.65 404.153   1
  -2   5  11 4029.40 329.379   3
   2  -5 -10 3303.91 288.232   2
  -2   5  10 3380.75 355.474   1
  -2   5  10 3259.50 294.542   3
   2  -5  -9 11676.5 595.947   1
   2  -5  -9 11622.4 527.349   2
  -2   5   9 12008.4 618.538   1
  -2   5   9 11703.4 552.053   3
   2  -5  -8 216.179 82.5523   1
  -2   5   8 380.485 97.9104   2
   2  -5  -8 394.238 100.637   2
  -2   5   8 415.582 118.809   1
  -2   5   7-2.98910 54.2017   2
  -2   5   7 29.4714 43.8227   1
   2  -5  -7-10.4564 50.2297   2
  -2   5   6 4180.19 303.971   2
   2  -5  -6 4581.64 316.260   2
  -2   5   6 4775.74 313.166   1
  -2   5   5 2044.48 214.673   2
   2  -5  -5 2279.01 186.008   1
   2  -5  -5 2211.21 223.971   2
  -2   5   5 2230.80 194.077   1
  -2   5   4 167.392 71.4885   2
   2  -5  -4 63.9421 56.6569   2
   2  -5  -4 103.024 32.0533   1
  -2   5   4 145.779 44.4525   1
   2  -5  -3 1280.91 100.387   1
   2  -5  -3 1468.12 179.898   2
  -2   5   3 1144.27 163.426   2
  -2   5   3 1343.69 109.352   1
  -2   5   2 31.0539 54.6613   2
   2  -5  -2-33.1491 34.5896   2
   2  -5  -1 2367.65 236.868   2
   2  -5   0 29949.1 882.319   2
   2  -5   1 101.881 60.5230   2
  -2   5  -2 1964.22 230.852   2
  -2   5  -2 2197.31 248.723   3
  -2   5  -3 2157.47 129.730   1
  -2   5  -3 2479.71 267.586   2
  -2   5  -3 2434.78 272.720   3
  -2   5  -4 143.621 46.1136   1
  -2   5  -4-38.4238 74.9600   2
  -2   5  -5 83.5870 45.8307   1
  -2   5  -5 32.0058 46.6189   2
  -2   5  -6 179.925 61.9748   1
  -2   5  -6 129.580 74.6702   2
  -2   5  -7 1287.17 178.047   1
  -2   5  -7 1099.60 211.382   2
  -2   5  -8 1851.78 239.659   1
  -2   5  -8 2108.20 282.511   2
  -2   5  -9 131.925 109.575   2
  -2   5 -10-11.0627 70.1477   2
  -2   5 -11-53.7357 80.7354   2
  -2   5 -12 113.314 86.6038   2
  -2   5 -13 1176.59 250.465   2
  -2   5 -14 46.4586 57.9133   2
  -2   4  16 531.086 190.137   1
  -2   4  15 243.037 130.385   1
  -2   4  14 527.010 209.445   1
  -2   4  14 311.207 83.4918   3
  -2   4  13-44.3401 41.8603   3
  -2   4  13 19.0639 64.9994   1
  -2   4  12 421.073 104.032   3
  -2   4  12 166.540 98.9173   1
   2  -4 -12 338.144 93.4631   2
   2  -4 -11 1435.28 179.434   2
  -2   4  11 1482.89 183.029   3
  -2   4  11 1584.49 268.777   1
   2  -4 -10 13890.6 540.667   2
  -2   4  10 14530.5 726.845   1
  -2   4  10 13933.5 547.842   3
   2  -4  -9 63.6807 62.6980   1
  -2   4   9 26.3906 49.2161   1
  -2   4   9 102.751 52.6306   3
   2  -4  -9 54.9689 25.7503   2
  -2   4   8 7098.50 373.630   2
   2  -4  -8 7378.26 449.266   1
   2  -4  -8 7781.01 386.054   2
  -2   4   8 7571.27 398.511   3
  -2   4   8 7305.25 460.784   1
  -2   4   7 3602.31 262.992   2
   2  -4  -7 3607.78 259.971   2
  -2   4   7 3551.94 298.187   1
   2  -4  -6-5.01584 35.1272   1
  -2   4   6 194.356 84.9944   1
  -2   4   6 95.0050 48.6452   2
   2  -4  -6 103.477 47.9753   2
  -2   4   5 1816.03 183.203   2
   2  -4  -5 1822.89 171.686   1
   2  -4  -5 2185.99 200.906   2
  -2   4   5 2040.05 192.971   1
   2  -4  -4 6280.53 286.889   1
  -2   4   4 6295.29 337.342   2
   2  -4  -4 6293.55 340.944   2
  -2   4   4 6412.26 299.739   1
  -2   4   3 17.1532 50.6258   2
   2  -4  -3-48.2394 43.2719   2
   2  -4  -3 38.2702 32.8233   1
  -2   4   3-8.44197 34.5031   1
  -2   4   2 1845.13 195.199   2
   2  -4  -2 1946.29 195.613   2
  -2   4   2 2121.62 122.412   1
  -2   4   1 206.671 31.0717   1
   2  -4  -1 214.219 70.9205   2
   2  -4   0 753.368 128.568   2
   2  -4   1 19593.9 671.345   2
  -2   4  -1 18390.7 651.863   3
  -2   4  -2 2173.17 117.795   1
  -2   4  -2 2249.25 238.655   3
  -2   4  -3 11003.5 535.782   3
  -2   4  -3 11420.6 332.614   1
  -2   4  -3 10477.3 511.448   2
  -2   4  -4 3025.86 204.697   1
  -2   4  -4 3279.86 297.505   2
  -2   4  -4 2668.70 272.024   3
  -2   4  -5 4.36809 31.0700   1
  -2   4  -5 104.577 61.4270   3
  -2   4  -5-10.0837 45.2213   2
  -2   4  -6 1060.74 150.130   1
  -2   4  -6 1114.98 194.455   2
  -2   4  -7 508.235 117.551   1
  -2   4  -7 489.172 133.815   2
  -2   4  -8 913.876 158.142   1
  -2   4  -8 694.791 165.650   2
  -2   4  -9 670.836 154.191   1
  -2   4  -9 894.900 192.057   2
  -2   4 -10 1122.85 221.324   2
  -2   4 -11 22.7401 87.1273   2
  -2   4 -12 174.682 107.431   2
  -2   4 -13 146.757 98.4048   2
  -2   4 -14 203.765 101.156   2
  -2   4 -15 7.91598 71.4519   2
  -2   3  16 301.328 144.517   1
  -2   3  15 1372.78 290.305   1
  -2   3  14 45.7643 64.9180   1
  -2   3  13 52.5666 52.8494   1
  -2   3  13 29.0065 32.5274   3
  -2   3  12 630.093 179.469   1
   2  -3 -12 457.357 93.8425   2
  -2   3  12 497.691 100.715   3
   2  -3 -11 6317.41 343.201   2
  -2   3  11 6174.92 508.957   1
  -2   3  11 6868.15 348.425   3
   2  -3 -10 6186.89 329.477   2
  -2   3  10 5620.08 458.224   1
  -2   3  10 6179.79 324.960   3
   2  -3  -9 10632.7 584.585   1
   2  -3  -9 10716.3 421.080   2
  -2   3   9 10978.5 600.657   1
  -2   3   9 11053.4 424.401   3
   2  -3  -8-6.84776 44.7911   1
  -2   3   8 65.9224 40.1786   3
  -2   3   8 32.2219 59.7203   1
   2  -3  -8-5.27840 19.7113   2
  -2   3   7 4433.10 258.395   2
   2  -3  -7 4625.31 266.213   2
  -2   3   7 4616.03 342.660   1
  -2   3   6 1148.64 133.982   2
   2  -3  -6 1004.80 121.940   2
  -2   3   6 945.311 147.415   1
   2  -3  -6 364.513 94.2933   1
   2  -3  -5 14806.2 506.825   1
  -2   3   5 15006.3 465.710   2
   2  -3  -5 14594.2 462.098   2
  -2   3   5 15017.4 523.697   1
   2  -3  -4 6036.28 295.768   1
  -2   3   4 6022.06 295.993   2
   2  -3  -4 5626.41 290.412   2
  -2   3   4 5612.64 289.973   1
   2  -3  -3 60419.4 841.755   1
  -2   3   3 59319.4 948.016   2
  -2   3   3 60297.3 856.598   1
   2  -3  -3 61321.9 961.891   2
  -2   3   2 3239.36 175.225   1
  -2   3   2 3225.20 225.143   2
   2  -3  -2 3133.04 223.750   2
  -2   3   1 78.0828 50.4433   2
  -2   3   1 75.8391 28.6059   1
   2  -3  -1 41.1292 39.6458   2
   2  -3   0 396.784 99.7247   2
  -2   3   0 360.317 87.4546   3
  -2   3  -1 326.017 89.1665   3
  -2   3  -2 9027.28 435.101   3
  -2   3  -2 9041.09 270.047   1
  -2   3  -3 3359.98 194.417   1
  -2   3  -3 3475.55 279.253   3
  -2   3  -4 221.225 62.3135   1
  -2   3  -4 247.943 80.2815   3
  -2   3  -5 185.587 84.5762   2
  -2   3  -5 322.437 99.3408   3
  -2   3  -5 222.402 70.7491   1
  -2   3  -6 1045.16 187.323   2
  -2   3  -6 1156.40 156.247   1
  -2   3  -6 1375.30 200.263   3
  -2   3  -7 412.546 126.748   2
  -2   3  -7 376.937 100.413   1
  -2   3  -7 465.851 113.054   3
  -2   3  -8 122.676 50.8094   2
  -2   3  -8-6.63794 48.6079   1
  -2   3  -9 354.513 124.106   2
  -2   3  -9 137.723 65.5665   1
  -2   3 -10 1916.98 273.226   2
  -2   3 -11 339.281 110.671   2
  -2   3 -12 443.245 156.077   2
  -2   3 -13 360.195 153.178   2
  -2   3 -14 44.2079 63.9651   2
  -2   3 -15 386.243 154.037   2
  -2   3 -16 192.434 119.823   2
  -2   2  16-168.502 145.659   1
  -2   2  15 713.132 217.140   1
  -2   2  14 247.914 132.562   1
  -2   2  13-36.4902 56.0397   1
  -2   2  13 2.40725 32.0997   3
  -2   2  12 574.792 173.700   1
   2  -2 -12 541.908 98.7592   2
  -2   2  12 583.114 93.1684   3
  -2   2  11-15.9171 94.2192   1
   2  -2 -11 7.01101 22.7848   2
  -2   2  11 41.5245 29.5748   3
  -2   2  10 399.612 127.964   1
  -2   2  10 405.714 76.6029   3
   2  -2 -10 336.752 76.3326   2
   2  -2  -9 32.1974 32.3863   2
  -2   2   9-38.5901 61.5303   1
  -2   2   9-26.1355 26.3707   3
   2  -2  -8 13071.1 621.322   1
   2  -2  -8 13138.7 401.390   2
  -2   2   8 13148.8 626.564   1
  -2   2   8 12978.3 385.955   3
  -2   2   7 76.9847 32.9414   3
   2  -2  -7 122.644 43.3919   2
  -2   2   7 115.529 69.0303   1
  -2   2   6 1447.64 129.037   2
   2  -2  -6 1411.32 125.773   2
  -2   2   6 1577.81 195.436   1
  -2   2   5 4269.96 218.042   2
   2  -2  -5 4404.73 223.099   2
  -2   2   5 4634.03 304.092   1
  -2   2   4 23.0174 27.9655   2
   2  -2  -4 70.6752 48.2725   1
   2  -2  -4 60.6277 37.3391   2
   2  -2  -3 3450.90 214.198   1
  -2   2   3 3163.19 209.612   1
  -2   2   3 3390.44 199.073   2
   2  -2  -3 3286.04 199.472   2
  -2   2   2 2740.61 177.875   1
  -2   2   2 2609.83 179.397   2
   2  -2  -2 2946.57 197.497   2
  -2   2   1 12324.6 337.777   1
  -2   2   1 11649.2 393.469   2
   2  -2  -1 13399.1 438.320   2
  -2   2   1 12305.6 407.331   3
  -2   2   0 478.562 90.1483   3
  -2   2   0 348.624 80.3292   2
  -2   2  -1 16157.8 511.226   3
  -2   2  -2 6410.60 340.205   3
  -2   2  -3 6408.03 277.952   1
  -2   2  -3 6699.68 362.506   3
  -2   2  -4 21860.7 563.414   1
  -2   2  -4 23555.0 717.126   3
   2  -2   5 170.895 75.5426   3
  -2   2  -5 179.933 70.0972   1
  -2   2  -5 278.181 86.8075   3
  -2   2  -6 105.759 52.7895   1
   2  -2   6 175.048 71.3752   3
  -2   2  -6 196.244 84.3486   3
  -2   2  -7 7032.27 413.111   1
   2  -2   7 6849.19 440.272   3
  -2   2  -7 7614.03 462.739   3
  -2   2  -8 11579.4 569.989   1
  -2   2  -8 11708.4 593.818   3
   2  -2   8 10085.5 558.213   3
   2  -2   9 52.1152 75.5158   3
  -2   2  -9-93.7498 79.7634   1
   2  -2  10 100.530 72.3885   3
   2  -2  11-13.7317 79.7194   3
   2  -2  12 1534.68 256.662   3
   2  -2  13 94.9909 102.420   3
  -2   2 -15 312.236 135.072   2
  -2   2 -16 650.335 196.708   2
  -2   1  16 22.5873 70.5502   1
  -2   1  15 320.511 148.716   1
  -2   1  14 58.0429 86.0863   1
  -2   1  13 165.787 128.254   1
  -2   1  12 1301.44 255.034   1
  -2   1  12 1222.22 107.492   3
   2  -1 -12 1415.51 138.663   2
   2  -1 -11 3288.73 199.486   2
  -2   1  11 3074.01 370.065   1
  -2   1  11 3120.90 166.134   3
   2  -1 -10 375.910 63.0087   2
  -2   1  10 400.601 60.6078   3
  -2   1  10 398.986 141.477   1
   2  -1  -9 3233.84 176.468   2
  -2   1   9 3215.20 332.211   1
  -2   1   9 3441.90 159.713   3
   2  -1  -8 4917.72 389.251   1
   2  -1  -8 5208.31 213.533   2
  -2   1   8 5027.12 181.496   3
  -2   1   8 4832.72 391.800   1
   2  -1  -7 13.2694 20.3118   2
  -2   1   7 26.7177 52.9669   1
   2  -1  -7 0.81257 58.0651   1
  -2   1   7 20.9099 14.2536   3
   2  -1  -6 999.723 88.3593   2
  -2   1   6 828.450 145.905   1
  -2   1   6 996.328 79.3505   3
  -2   1   5 20781.3 383.764   2
  -2   1   5 19790.2 644.930   1
   2  -1  -5 20843.9 391.423   2
  -2   1   4 752.139 121.555   1
   2  -1  -4 758.119 79.4769   2
  -2   1   4 660.863 68.0990   2
   2  -1  -4 812.005 121.144   1
  -2   1   3 555.745 68.0446   3
   2  -1  -3 481.729 88.3189   1
  -2   1   3 385.631 56.3779   2
  -2   1   3 471.200 93.9331   1
   2  -1  -3 563.044 72.9792   2
  -2   1   2 1678.39 150.017   1
  -2   1   2 1642.41 124.187   2
  -2   1   2 1624.06 124.109   3
  -2   1   1 307.050 61.7216   3
  -2   1   1 287.656 59.7643   2
  -2   1   0 106.787 50.5351   2
   2  -1   0 113.589 46.8144   3
  -2   1   0 154.720 55.6731   3
   2  -1   1 278.329 67.1958   3
  -2   1  -1 245.792 67.6256   3
  -2   1  -2 392.502 82.7436   3
  -2   1  -3 188.910 70.7192   3
  -2   1  -4 3214.68 223.706   1
  -2   1  -4 3320.57 257.726   3
  -2   1  -5 7334.78 402.828   3
  -2   1  -5 7032.41 356.570   1
   2  -1   6 285.364 105.511   3
  -2   1  -6 329.973 100.529   3
  -2   1  -6 399.796 97.8128   1
   2  -1   7 55.6202 59.0393   3
  -2   1  -7 151.438 68.7588   1
  -2   1  -7 135.788 70.1839   3
  -2   1  -8 14594.8 641.003   1
   2  -1   8 14073.6 639.105   3
  -2   1  -8 15100.7 656.463   3
   2  -1   9 5015.87 397.835   3
  -2   1  -9 5253.44 408.354   1
   2  -1  10 90.3458 80.2435   3
   2  -1  11 5322.46 447.460   3
   2  -1  12 76.7839 99.7488   3
   2  -1  13 1039.50 217.653   3
   2  -1  14 502.975 172.704   3
   2  -1  15 28.6518 82.5228   3
   2  -1  16 525.713 176.782   3
   2  -1  17 285.128 154.969   3
  -2   0  15 288.316 163.505   1
  -2   0  14 428.045 176.823   1
  -2   0  13 62.1532 105.776   1
  -2   0  12 2112.59 322.025   1
   2   0 -12 2226.12 151.368   2
   2   0 -11 41.0071 22.6170   2
  -2   0  11 35.0293 101.431   1
   2   0 -10 7825.69 246.775   2
  -2   0  10 7365.23 535.734   1
   2   0  -9 2915.16 138.036   2
  -2   0   9 2918.58 328.858   1
   2   0  -8 111.322 25.6991   2
  -2   0   8 127.486 82.1455   1
   2   0  -8 159.653 82.9668   1
   2   0  -7 21.3730 12.1229   2
   2   0  -7 26.4511 42.2394   1
  -2   0   6 61.8760 52.4983   1
   2   0  -6 71.9840 18.0217   2
  -2   0   5 4364.04 317.091   1
   2   0  -5 4483.19 125.404   2
  -2   0   4-13.7341 56.1296   1
  -2   0   4 2.75070 16.0324   2
   2   0  -4-15.3457 38.1617   1
  -2   0   3 347.282 44.1485   2
  -2   0   3 287.350 39.3238   3
  -2   0   3 276.783 76.8924   1
  -2   0   2 44884.7 828.842   1
  -2   0   2 44163.5 545.049   2
   2   0  -2 46197.2 543.585   3
  -2   0   2 44732.0 555.519   3
  -2   0   1 3906.20 183.793   3
   2   0  -1 4067.67 183.270   3
   2   0   0 1749.83 132.154   3
  -2   0   0 1826.21 142.776   3
   2   0   1 37.1257 35.6819   3
  -2   0  -1 125.175 50.7835   3
  -2   0  -2 5704.90 285.917   3
  -2   0  -3 10040.9 405.400   3
  -2   0  -4 2325.74 208.279   3
  -2   0  -5 5073.98 313.536   1
  -2   0  -5 5787.57 346.252   3
  -2   0  -6 4399.58 313.373   3
  -2   0  -6 4110.73 297.711   1
  -2   0  -7 4519.52 336.670   1
   2   0   7 4385.07 335.475   3
  -2   0  -7 4499.84 336.197   3
  -2   0  -8 152.615 82.8836   1
   2   0   8-3.07947 66.2097   3
  -2   0  -8 143.566 61.1899   3
  -2   0  -9 57.4580 66.8008   1
   2   0   9-62.9073 82.0362   3
  -2   0  -9 86.9157 60.8972   3
   2   0  10 17172.8 753.213   3
   2   0  11 856.035 178.749   3
   2   0  12 2001.98 279.611   3
   2   0  13 28.7298 73.2511   3
   2   0  14 1011.45 217.922   3
   2   0  15 852.988 200.396   3
   2   0  16 1448.37 280.236   3
   2   0  17 218.622 134.896   3
  -2  -1  15 169.386 134.633   1
  -2  -1  14 309.847 127.014   1
  -2  -1  13 245.437 129.705   1
  -2  -1  12 1460.62 277.693   1
   2   1 -12 1271.22 100.091   2
   2   1 -11 22.3035 16.5048   2
  -2  -1  11 23.2065 77.4178   1
   2   1 -11 23.5872 17.0831   2
   2   1 -10 2868.05 116.913   2
   2   1 -10 3058.95 127.091   2
  -2  -1  10 3314.32 372.101   1
  -2  -1   9-29.1384 47.5046   1
   2   1  -9 17.4775 9.74128   2
   2   1  -9 19.2505 9.60380   2
  -2  -1   8 270.301 99.3914   1
  -2  -1   7 190.721 110.958   1
   2   1  -7 242.340 94.2420   1
  -2  -1   6 212.045 86.5795   1
  -2  -1   5 497.823 122.624   1
  -2  -1   4 16065.6 583.201   1
   2   1  -3 490.165 39.6582   3
  -2  -1   3 429.356 98.4331   1
  -2  -1   2 3305.56 243.118   1
   2   1  -2 3393.52 137.578   3
  -2  -1   2 3382.86 139.171   3
   2   1  -1 4338.58 183.333   3
  -2  -1   1 4535.61 192.772   3
  -2  -1   0 3431.97 190.801   3
   2   1   0 3629.01 190.074   3
   2   1   1 136.059 44.1831   3
  -2  -1  -1 139.554 48.7408   3
   2   1   2 4865.25 260.778   3
  -2  -1  -2 5172.96 272.481   3
  -2  -1  -3 3916.68 253.402   3
  -2  -1  -4 14641.4 516.697   3
  -2  -1  -5 1041.50 146.398   3
  -2  -1  -6 28.4110 34.4716   3
  -2  -1  -6 12.2422 46.0780   1
  -2  -1  -7 2568.29 259.368   1
   2   1   7 2793.29 266.345   3
  -2  -1  -7 2757.71 259.808   3
  -2  -1  -8 3149.25 305.356   1
   2   1   8 2744.40 275.147   3
  -2  -1  -8 3149.21 293.554   3
  -2  -1  -9 79.5351 38.5525   3
  -2  -1  -9-98.0775 79.3072   1
   2   1   9 94.2875 80.5105   3
   2   1  10 2302.10 282.083   3
   2   1  11 176.698 96.7644   3
   2   1  12 1498.45 250.145   3
   2   1  13 211.227 118.797   3
   2   1  14 1748.45 277.500   3
   2   1  15 535.884 174.162   3
   2   1  16-75.2305 91.2868   3
   2   1  17 772.229 214.215   3
  -2  -2  15 1260.19 304.231   1
  -2  -2  14 49.3789 89.8852   1
  -2  -2  13 1186.85 262.212   1
  -2  -2  12 443.958 165.516   1
   2   2 -11 2122.79 85.0937   2
  -2  -2  11 2737.34 363.560   1
  -2  -2  10 249.264 113.855   1
  -2  -2   9 66.4919 81.8920   1
  -2  -2   8 4231.18 392.734   1
  -2  -2   7 79.0285 74.7058   1
   2   2  -7-35.7032 60.1519   1
  -2  -2   6 152.729 86.7067   1
   2   2  -6 95.5786 61.9162   1
  -2  -2   5 172.724 71.7173   1
  -2  -2   4 1097.84 173.870   1
   2   2  -4 956.099 56.4064   3
  -2  -2   3 1587.47 186.891   1
   2   2  -3 1543.85 90.1309   3
  -2  -2   2 1563.36 175.622   1
  -2  -2   2 1388.57 83.9561   2
   2   2  -2 1490.68 102.222   3
  -2  -2   1 1732.13 128.371   3
   2   2  -1 1609.05 122.263   3
   2   2   0 12427.2 362.023   3
  -2  -2   0 13146.6 382.775   3
   2   2   1 6265.41 278.845   3
  -2  -2  -1 6143.52 284.766   3
   2   2   2 930.302 120.363   3
  -2  -2  -2 1048.82 128.551   3
  -2  -2  -3 19.0191 32.4102   3
  -2  -2  -4 182.432 66.6027   3
  -2  -2  -5 3728.03 281.620   3
  -2  -2  -6 1809.71 207.366   3
   2   2   7 5746.31 384.178   3
  -2  -2  -7 5745.59 377.675   3
  -2  -2  -7 6067.22 408.543   1
  -2  -2  -8 8882.46 517.962   1
   2   2   8 8846.28 491.776   3
  -2  -2  -8 10018.2 522.524   3
   2   2   9 808.259 155.421   3
  -2  -2  -9 1137.22 185.891   3
   2   2  10-10.7334 53.6367   3
   2   2  11 5526.91 446.894   3
   2   2  12 104.664 76.1031   3
   2   2  13 2476.39 324.538   3
   2   2  14 1431.89 262.622   3
   2   2  15 190.374 59.2510   3
   2   2  16 1189.97 245.894   3
   2   2  17 52.1206 75.9608   3
   2   2  18 109.087 101.002   3
  -2  -3  14 86.7424 111.385   1
  -2  -3  13 368.594 161.866   1
  -2  -3  12-41.3475 91.0282   1
  -2  -3  11-9.56518 91.8365   1
  -2  -3  10 320.792 124.909   1
  -2  -3   9 160.771 99.8505   1
   2   3  -9 137.106 28.2008   3
  -2  -3   8 499.472 153.304   1
   2   3  -8 480.855 51.1966   3
  -2  -3   7 614.709 153.498   1
   2   3  -7 585.227 58.0706   3
   2   3  -6 13956.2 655.981   1
  -2  -3   6 14647.8 672.026   1
   2   3  -6 13410.1 283.808   3
  -2  -3   5 4607.92 361.089   1
   2   3  -5 4197.54 168.092   3
  -2  -3   4 1746.28 211.786   1
  -2  -3   4 1490.03 85.3517   2
   2   3  -4 1566.35 109.648   3
   2   3  -3 255.611 48.2566   3
  -2  -3   3 221.744 80.8753   1
  -2  -3   3 174.812 33.8819   2
   2   3  -2 397.024 66.5408   3
  -2  -3   2 384.921 52.7252   2
  -2  -3   2 395.931 100.523   1
  -2  -3   1 367.497 61.9017   2
   2   3  -1 405.571 70.3859   3
  -2  -3   0 3091.81 179.324   2
   2   3   0 2720.80 186.534   3
   2   3   1 927.606 119.318   3
  -2  -3  -1 930.194 124.977   3
  -2  -3  -2 3460.29 244.674   3
   2   3   2 3351.12 232.369   3
  -2  -3  -3 1683.25 180.962   3
   2   3   3 650.178 111.021   3
  -2  -3  -4 21703.3 665.025   3
  -2  -3  -5 2168.93 224.109   3
  -2  -3  -6 7141.22 415.656   3
  -2  -3  -7 124.009 75.3130   3
  -2  -3  -8 40.1416 75.3557   1
   2   3   8 11.1903 45.3671   3
  -2  -3  -8-12.8624 57.6336   3
   2   3   9 1790.78 237.893   3
   2   3  10 3043.32 320.027   3
   2   3  11 115.441 85.2182   3
   2   3  12 1179.64 214.769   3
   2   3  13 2095.93 303.070   3
   2   3  14 526.879 178.092   3
   2   3  15 568.358 175.684   3
   2   3  16 12.2992 92.3558   3
   2   3  17 487.478 167.215   3
   2   3  18 372.604 162.857   3
  -2  -4  14 57.6659 87.2972   1
  -2  -4  13 269.505 132.584   1
  -2  -4  12-77.6056 91.3286   1
  -2  -4  11-45.8502 89.9615   1
   2   4 -10 1294.34 79.9469   2
  -2  -4  10 1447.38 265.530   1
   2   4  -9 14.0880 11.2902   2
   2   4  -9 27.7420 19.8516   3
  -2  -4   9 49.2733 56.4980   1
  -2  -4   8 161.788 109.099   1
   2   4  -8 52.4451 18.4008   2
   2   4  -8 57.5110 27.8059   3
  -2  -4   7 49.9958 55.4759   1
   2   4  -7 24.0836 15.3407   2
   2   4  -7 6.16956 18.3011   3
   2   4  -6 1560.22 133.534   3
   2   4  -6 1353.85 91.5533   2
  -2  -4   6 1743.49 241.457   1
   2   4  -5 678.492 67.4565   2
  -2  -4   5 829.549 160.831   1
  -2  -4   4 5308.25 393.811   1
  -2  -4   4 4597.79 199.776   2
  -2  -4   3 19256.9 704.150   1
  -2  -4   3 17715.7 407.516   2
   2   4  -3 17840.0 471.092   3
  -2  -4   2 7918.25 427.565   1
  -2  -4   2 6815.08 265.727   2
   2   4  -2 7006.19 304.618   3
  -2  -4   1 2591.52 172.266   2
   2   4  -1 2504.49 187.963   3
  -2  -4   0 19938.5 500.683   2
   2   4   0 18872.4 538.925   3
  -2  -4  -1 21367.5 547.483   2
   2   4   1 19567.4 573.907   3
  -2  -4  -2 440.786 86.4633   2
   2   4   2 24.7451 29.9967   3
  -2  -4  -3 1507.52 181.772   3
  -2  -4  -4 2542.95 243.128   3
  -2  -4  -5 3461.01 293.432   3
  -2  -4  -6 6266.47 411.103   3
  -2  -4  -7 322.555 95.1436   3
  -2  -4  -7 564.049 150.850   1
   2   4   7 368.802 113.860   3
  -2  -4  -8 24.5791 47.8428   3
  -2  -4  -8 40.2682 38.4368   1
   2   4   8 78.6375 60.1137   3
   2   4   9 0.32901 54.4066   3
   2   4  10 170.345 91.3396   3
   2   4  11 5552.81 459.029   3
   2   4  12 2242.46 303.420   3
   2   4  13 1123.27 227.000   3
   2   4  14 1177.96 245.794   3
   2   4  15 434.943 155.572   3
   2   4  16 84.4812 95.5789   3
   2   4  17 450.965 178.969   3
   2   4  18 196.577 105.886   3
  -2  -5  13 179.825 103.444   1
  -2  -5  12 231.713 125.959   1
  -2  -5  11 79.5173 82.7428   1
  -2  -5  10-10.2227 76.0374   1
   2   5  -9 155.234 37.5551   2
  -2  -5   9 159.438 95.2556   1
   2   5  -8 1403.44 112.911   2
  -2  -5   8 1300.67 239.612   1
   2   5  -8 1365.74 141.558   3
  -2  -5   7 350.547 130.853   1
   2   5  -7 303.084 55.6402   2
   2   5  -7 377.767 76.5764   3
  -2  -5   6 26.3464 45.8397   1
   2   5  -6 54.1719 31.9455   2
   2   5  -6 35.2653 31.9013   3
  -2  -5   5 37.4486 56.2130   1
  -2  -5   5 35.2354 26.9255   2
   2   5  -5 41.8483 21.4005   2
   2   5  -4-11.5954 29.1503   2
  -2  -5   4 15.6071 34.5667   2
  -2  -5   4 45.6922 67.9443   1
  -2  -5   3 512.851 122.269   1
   2   5  -3 358.692 65.6917   2
  -2  -5   3 411.113 78.5964   2
  -2  -5   2 9821.09 510.898   1
  -2  -5   2 9662.74 364.318   2
   2   5  -1-7.85926 43.7236   3
  -2  -5   1 5118.65 271.098   2
   2   5   0 23.8171 44.7612   3
  -2  -5   0 53.8522 47.6302   2
  -2  -5  -1 8969.71 389.064   2
  -2  -5  -2 78785.1 1194.00   2
  -2  -5  -3 627.660 116.125   2
  -2  -5  -4 6597.29 373.818   2
  -2  -5  -5 206.341 72.8150   2
   2   5   5 64.3902 58.7810   3
  -2  -5  -6 2753.76 288.721   3
   2   5   6 2581.42 269.344   3
  -2  -5  -7 777.799 162.683   3
   2   5   7 697.667 151.268   3
   2   5   8 12423.2 633.877   3
   2   5   9 254.678 103.332   3
   2   5  10 7863.43 541.310   3
   2   5  11 759.016 183.303   3
   2   5  12 295.686 119.352   3
   2   5  13 1719.95 286.312   3
   2   5  14 1409.39 267.809   3
   2   5  15 150.069 114.389   3
   2   5  16 28.5143 74.9185   3
   2   5  17 65.4802 74.8856   3
   2   5  18-92.6051 96.3035   3
  -2  -6  13 349.151 173.044   1
  -2  -6  12-84.6476 99.3628   1
  -2  -6  11 458.136 156.069   1
  -2  -6  10 129.078 81.8673   1
  -2  -6   9 1141.24 249.887   1
   2   6  -8-14.0994 21.6622   2
  -2  -6   8-66.8082 74.5338   1
  -2  -6   7 11.0224 71.2364   1
   2   6  -7 13.2255 20.4804   2
   2   6  -7 48.7400 33.3042   3
  -2  -6   6 107.155 92.6589   1
   2   6  -6 34.3266 32.0114   2
  -2  -6   5 648.380 106.346   2
  -2  -6   5 755.188 175.003   1
  -2  -6   4 690.827 110.100   2
  -2  -6   4 770.451 165.896   1
   2   6  -3 29.2642 30.3984   2
  -2  -6   3 464.946 123.897   1
  -2  -6   3 266.363 67.7326   2
   2   6  -2-4.77653 33.0145   2
  -2  -6   2 78.8723 46.5540   2
  -2  -6   2 158.784 92.4735   1
  -2  -6   1 661.401 111.834   2
  -2  -6   0 372.691 86.6650   2
  -2  -6  -1 3058.96 251.282   2
  -2  -6  -2 1115.87 156.706   2
  -2  -6  -3 1922.14 209.222   2
   2   6   3 1811.58 219.030   3
   2   6   4 584.817 132.244   3
  -2  -6  -4 638.728 128.213   2
  -2  -6  -5 6708.74 410.821   2
   2   6   5 6205.50 423.608   3
   2   6   6 2549.23 278.818   3
  -2  -6  -6 2878.67 276.674   2
   2   6   7 2847.51 308.659   3
   2   6   8 3192.17 333.536   3
   2   6   9 1481.41 239.217   3
   2   6  10 1199.06 224.858   3
   2   6  11 6099.17 504.253   3
   2   6  12-100.030 94.5879   3
   2   6  13 505.793 162.420   3
   2   6  14 142.260 113.217   3
   2   6  15 247.062 138.333   3
   2   6  16-37.2086 72.0400   3
   2   6  17 712.105 199.720   3
  -2  -7  12 27.4946 77.9686   1
  -2  -7  11-95.6122 122.334   1
  -2  -7  10-12.9796 65.5756   1
  -2  -7   9 75.7159 91.0198   1
   2   7  -8 649.499 103.173   2
  -2  -7   8 667.250 185.741   1
  -2  -7   7 171.544 107.151   1
  -2  -7   6 809.981 195.669   1
  -2  -7   5 52.8515 31.2396   2
  -2  -7   5 104.333 81.2104   1
  -2  -7   4 247.945 78.8477   2
  -2  -7   4 242.900 98.1346   1
  -2  -7   3 66.3185 65.1486   1
  -2  -7   3 120.063 50.9007   2
  -2  -7   2 161.736 93.4285   1
  -2  -7   2 159.833 59.3850   2
  -2  -7   1 1262.35 166.738   2
  -2  -7   1 1178.41 194.937   1
   2   7  -1 1102.56 176.218   3
   2   7   0 599.577 137.388   3
  -2  -7   0 617.965 116.559   2
  -2  -7  -1 549.286 118.641   2
   2   7   1 643.696 139.740   3
  -2  -7  -2 2616.43 258.568   2
   2   7   2 2419.15 262.724   3
  -2  -7  -3 4189.13 333.873   2
   2   7   3 4140.67 350.472   3
   2   7   4 396.271 117.318   3
  -2  -7  -4 363.639 103.874   2
   2   7   5 4663.41 390.032   3
   2   7   6 6537.14 468.629   3
   2   7   7 551.851 159.779   3
   2   7   8 5052.60 442.269   3
   2   7   9 2178.83 298.113   3
   2   7  10 1794.82 275.855   3
   2   7  11 1762.39 287.584   3
   2   7  12 7.81492 62.6614   3
   2   7  13 243.293 111.980   3
   2   7  14-45.2729 72.4610   3
   2   7  15 424.892 168.486   3
   2   7  16 652.194 215.582   3
   2   7  17 314.311 148.444   3
  -2  -8  11-31.6391 70.6667   1
  -2  -8  10 14.1607 96.1468   1
  -2  -8   9 60.5040 87.2838   1
  -2  -8   8 13.4394 74.6320   1
  -2  -8   7 52.5008 104.473   1
  -2  -8   6 8.48762 68.8213   1
   2   8  -6 105.995 64.6360   2
  -2  -8   5-51.4531 68.4153   1
   2   8  -5 20.9678 54.3815   2
   2   8  -4 80.1764 44.5153   2
  -2  -8   4 82.8845 35.5456   2
  -2  -8   4 95.8770 83.1086   1
   2   8  -3 135.292 64.5977   2
  -2  -8   3 51.2848 41.6883   2
  -2  -8   3-25.5188 73.9435   1
   2   8  -2 92.2841 68.7224   2
  -2  -8   2 128.167 89.8483   1
  -2  -8   2-9.58939 48.4073   2
   2   8  -1 13.2198 36.4220   2
  -2  -8   1-21.0425 59.3176   1
  -2  -8   1 68.9444 56.5425   2
   2   8   0 841.774 171.816   3
  -2  -8   0 1060.15 172.154   2
   2   8   1 22.6785 57.0664   3
  -2  -8  -1 47.7892 44.2315   2
   2   8   2 1848.07 254.866   3
   2   8   3 2305.73 281.193   3
   2   8   4 347.224 121.714   3
   2   8   5-40.5443 71.1446   3
   2   8   6 957.332 199.718   3
   2   8   7 4525.57 425.836   3
   2   8   8 301.341 127.841   3
   2   8   9 3848.60 407.609   3
   2   8  10 728.614 184.237   3
   2   8  11 863.567 216.331   3
   2   8  12 25.4228 87.9238   3
   2   8  13 97.7211 82.9415   3
   2   8  14 231.789 123.695   3
   2   8  15 692.055 211.962   3
   2   8  16-25.6295 101.204   3
  -2  -9  10 0.61416 70.9236   1
  -2  -9   9-88.4284 112.451   1
  -2  -9   8 618.150 193.197   1
  -2  -9   7 191.455 130.562   1
  -2  -9   6 151.608 107.019   1
   2   9  -6 9.30000 58.6017   2
  -2  -9   5 37.9295 82.1252   1
   2   9  -5-13.1404 50.1686   2
  -2  -9   4-55.1637 53.6041   1
   2   9  -4 62.8798 63.7377   2
   2   9  -3 832.521 144.564   2
  -2  -9   3 954.454 190.472   1
   2   9  -2 963.819 161.544   2
  -2  -9   2 1136.23 211.964   1
   2   9  -1 12.9520 54.8259   2
  -2  -9   1 38.3615 55.3183   1
   2   9   0 939.523 194.568   3
  -2  -9   0 1000.57 183.694   1
   2   9   1 63.6863 54.5199   3
   2   9   2 69.1488 87.8920   3
   2   9   3 1404.57 238.683   3
   2   9   4 1890.53 280.862   3
   2   9   5 82.8135 99.6949   3
   2   9   6 824.618 195.374   3
   2   9   7 1183.54 231.309   3
   2   9   8 758.053 195.457   3
   2   9   9 1771.98 304.921   3
   2   9  10 728.423 216.224   3
   2   9  11 254.258 140.704   3
   2   9  12 230.582 126.013   3
   2   9  13 391.553 171.064   3
   2   9  14 102.591 104.086   3
   2   9  15 332.688 146.050   3
  -2 -10   7 197.105 116.318   1
  -2 -10   6 1166.58 242.624   1
  -2 -10   5-107.856 103.559   1
   2  10  -5 211.158 92.2088   2
  -2 -10   4 751.468 187.682   1
   2  10  -4 811.451 163.423   2
   2  10  -3 115.744 59.3692   2
  -2 -10   3 68.1433 69.5389   1
   2  10  -2 95.8684 63.8048   2
  -2 -10   2 159.690 67.0223   1
   2  10  -1 221.169 98.8970   3
   2  10  -1 326.107 106.359   2
  -2 -10   1 282.802 107.064   1
   2  10   0-47.6337 61.4264   3
  -2 -10   0 153.007 89.3508   1
   2  10   1 277.167 129.829   3
   2  10   2-40.9686 84.2021   3
   2  10   3 1000.87 224.859   3
   2  10   4 67.7120 86.9368   3
   2  10   5 1737.37 290.504   3
   2  10   6 1150.88 240.802   3
   2  10   7 38.4821 84.2479   3
   2  10   8 359.392 149.400   3
   2  10   9 1213.74 257.708   3
   2  10  10 98.7675 100.613   3
   2  10  11-77.1076 93.5499   3
   2  10  12 109.785 130.539   3
   2  10  13 29.6459 86.7548   3
  -2 -11   4 230.163 125.336   1
   2  11  -4 289.878 103.761   2
  -2 -11   3 228.465 109.557   1
   2  11  -3 216.760 100.088   2
   2  11  -2 468.224 158.638   3
   2  11  -2 608.833 159.002   2
  -2 -11   2 526.335 163.279   1
   2  11  -1 593.492 190.140   3
  -2 -11   1 599.609 156.788   1
   2  11   0 118.687 93.4777   3
  -2 -11   0 194.317 94.7900   1
   2  11   1 368.718 153.406   3
  -2 -11  -1 138.580 74.6045   1
   2  11   2 162.506 107.722   3
   2  11   3-69.4898 107.450   3
   2  11   4 180.828 129.697   3
   2  11   5 1681.10 302.397   3
   2  11   6 97.1834 79.3996   3
   2  11   7 159.087 111.915   3
   2  11   8 305.554 128.098   3
   2  11   9 197.090 108.488   3
   2  11  10 3.01792 81.6334   3
   2  11  11 420.741 176.748   3
   2  12  -4 45.6096 76.6028   3
   2  12  -3 569.450 178.171   3
   2  12  -2 98.7854 79.5188   3
   2  12  -1 218.756 121.778   3
   2  12   0-116.843 76.3212   3
   2  12   1 89.1930 90.4850   3
  -2 -12  -1 145.293 64.5571   1
   2  12   2 736.047 218.256   3
  -2 -12  -2 798.892 183.282   1
   2  12   3 266.860 140.241   3
   2  12   4-38.7583 94.3457   3
   2  12   5 510.394 186.772   3
   2  12   6 338.768 149.197   3
   2  12   7 20.5978 65.0133   3
   2  12   8-130.194 93.1669   3
   2  12   9 598.466 198.699   3
   2  13  -2-5.60274 74.8992   3
   2  13  -1 119.884 147.500   3
   2  13   0 45.8213 103.278   3
   2  13   1-1.88872 98.0358   3
   2  13   2 200.311 152.451   3
   2  13   3-206.060 134.107   3
  -3  11  12 150.130 90.9968   3
  -3  11  11-63.5265 84.9322   3
  -3  11  10 190.020 122.966   2
  -3  11   9 232.217 126.331   2
  -3  11   8-53.8150 69.2924   2
  -3  11   7 289.925 128.487   2
  -3  11   6 315.572 125.462   2
  -3  11   5 24.6067 63.4567   2
  -3  11   4-92.8084 114.789   2
  -3  11   3-76.0650 75.5472   2
  -3  11   2 320.565 147.770   2
  -3  11   1 118.874 115.456   2
  -3  11   0 49.2828 91.2150   2
  -3  10  13 188.993 135.639   3
  -3  10  12-38.0779 97.2639   3
  -3  10  11-203.065 120.588   3
  -3  10  11 246.778 131.031   2
  -3  10  10 472.918 160.657   2
  -3  10   9 1043.99 225.827   2
  -3  10   8 1017.70 230.671   2
  -3  10   7-8.81571 62.3040   2
  -3  10   6 12.7477 53.4921   2
  -3  10   5 163.610 115.621   2
  -3  10   4 77.1379 87.5012   2
  -3  10   3 179.387 100.042   2
  -3  10   2 1853.44 305.970   2
  -3  10   1 4319.46 461.450   2
  -3  10   0-22.7360 84.3921   2
  -3  10  -1 374.741 163.675   2
  -3  10  -2 429.572 180.280   2
  -3  10  -3 65.7673 61.6768   2
  -3  10  -4 250.898 140.473   2
  -3   9  13 222.840 126.827   3
  -3   9  12 883.267 221.279   3
  -3   9  11 153.191 106.964   3
  -3   9  11 275.165 110.862   2
  -3   9  10-43.1231 66.7866   2
  -3   9   9 420.185 149.559   2
  -3   9   8 1145.18 219.849   2
  -3   9   7 518.821 153.643   2
  -3   9   6 585.946 171.700   2
  -3   9   5 2197.30 315.541   2
  -3   9   4 1657.69 277.027   2
  -3   9   3 204.620 114.627   2
  -3   9   2 78.5744 64.4929   2
  -3   9   1 702.768 189.472   2
  -3   9   0 1737.53 285.786   2
  -3   9  -1 29.9449 74.2794   2
  -3   9  -2 1419.96 272.155   2
  -3   9  -3 724.576 202.122   2
  -3   9  -4 692.694 201.903   2
  -3   9  -5 442.647 159.980   2
  -3   9  -6-97.3784 120.288   2
  -3   9  -7-70.5169 116.602   2
  -3   8  15 98.6478 107.079   1
  -3   8  14 388.278 175.397   1
  -3   8  13 200.299 84.6873   3
  -3   8  13 447.884 158.941   1
  -3   8  12 470.697 155.676   3
  -3   8  12 266.422 135.026   1
  -3   8  11 2.65514 62.5226   3
  -3   8  11 88.5660 71.7676   2
  -3   8  11 133.317 98.2411   1
  -3   8  10 917.531 187.467   2
  -3   8  10 1515.78 240.187   1
  -3   8   9-30.2279 47.8645   2
  -3   8   9-67.0085 70.2650   1
  -3   8   8 633.889 159.001   2
  -3   8   7 1164.65 210.944   2
   3  -8  -7 904.494 130.542   1
  -3   8   6 1468.14 241.672   2
  -3   8   5 1178.62 221.397   2
  -3   8   4 849.229 191.121   2
  -3   8   3 13330.2 713.676   2
  -3   8   2 462.446 157.708   2
  -3   8   1 6978.44 531.580   2
  -3   8   0-70.9770 59.5268   2
  -3   8  -1 77.1912 86.1560   2
  -3   8  -2-17.3408 56.4296   2
  -3   8  -3 31.3264 79.5172   2
  -3   8  -4 25.8832 78.4914   2
  -3   8  -5 250.804 128.005   2
  -3   8  -6 64.8000 107.313   2
  -3   8  -7 17.0994 67.3657   2
  -3   8  -8 297.102 142.108   2
  -3   8  -9 43.1112 107.426   2
  -3   7  16 321.013 162.287   1
  -3   7  15 280.188 133.692   1
  -3   7  14 1448.16 284.197   1
  -3   7  13 256.350 108.844   3
  -3   7  13 67.8928 78.3452   1
  -3   7  12 34.8628 62.8344   3
  -3   7  12-13.8945 55.3536   1
  -3   7  11 230.103 83.7943   3
  -3   7  11 244.512 112.647   1
  -3   7  10 63.0542 71.0506   2
  -3   7  10 124.124 92.5652   1
  -3   7   9 907.432 172.538   2
  -3   7   9 1168.16 199.572   1
   3  -7  -9 1026.20 176.189   1
  -3   7   8 656.449 152.651   2
  -3   7   8 688.996 141.059   1
   3  -7  -8 670.843 134.952   1
  -3   7   7 76.4333 69.3060   2
  -3   7   7 39.3575 35.8375   1
   3  -7  -6-6.50153 24.6012   1
  -3   7   6 84.6335 60.4002   1
  -3   7   6-9.53725 52.6339   2
  -3   7   5 48.6928 55.7683   2
  -3   7   5 123.240 50.6940   1
  -3   7   4 1954.81 258.233   2
  -3   7   3 7932.59 520.539   2
  -3   7   2 728.987 167.950   2
  -3   7   1 3159.20 335.973   2
  -3   7   0 14901.1 737.258   2
  -3   7  -1 8969.51 583.569   2
  -3   7  -2 1635.99 250.648   2
  -3   7  -3-89.8319 104.587   2
  -3   7  -4 789.193 183.185   2
  -3   7  -5 1246.75 241.064   2
  -3   7  -6 956.828 221.743   2
  -3   7  -7-29.7819 69.9698   2
  -3   7  -8 229.641 137.439   2
  -3   7  -9 747.780 197.522   2
  -3   7 -10 82.5579 86.6495   2
  -3   6  16 48.2813 158.259   1
  -3   6  15 219.000 122.316   1
  -3   6  14 241.837 145.733   1
  -3   6  13-190.768 134.560   1
  -3   6  12 208.843 92.1190   3
  -3   6  12 229.150 104.970   1
  -3   6  11 156.297 71.9518   3
  -3   6  11 274.660 120.644   1
  -3   6  10 567.251 131.713   3
  -3   6  10 524.396 129.977   2
  -3   6  10 622.875 156.635   1
  -3   6   9 29.3028 65.8948   2
  -3   6   9-12.8143 55.4520   1
   3  -6  -9 35.5782 58.0104   1
  -3   6   8 425.554 109.579   2
  -3   6   8 354.460 112.452   1
   3  -6  -8 397.088 108.560   1
  -3   6   7 5830.47 412.970   2
  -3   6   7 6500.70 408.843   1
   3  -6  -6 5747.37 330.635   1
  -3   6   6 6294.51 427.857   2
  -3   6   6 6164.31 364.564   1
  -3   6   5 803.618 121.360   1
  -3   6   5 753.083 156.136   2
  -3   6   4 26.5817 49.9291   2
  -3   6   4 208.458 56.4033   1
  -3   6   3 3078.36 310.174   2
  -3   6   3 3436.18 167.658   1
  -3   6   2 130.098 92.9349   2
  -3   6   1 19.5626 46.6411   2
  -3   6   0 2451.76 281.641   2
  -3   6  -1 1200.28 205.200   2
  -3   6  -2 764.196 156.761   2
  -3   6  -3 330.012 128.246   2
  -3   6  -4 216.595 108.083   2
  -3   6  -4 104.474 30.0948   1
  -3   6  -5 4636.77 242.018   1
  -3   6  -5 4289.65 421.226   2
  -3   6  -6 60.0421 75.5541   2
  -3   6  -7 322.864 132.226   2
  -3   6  -8 221.244 115.528   2
  -3   6  -9 152.584 141.013   2
  -3   6 -10 176.929 124.712   2
  -3   6 -11 143.745 102.324   2
  -3   6 -12 359.355 158.143   2
  -3   5  16 473.591 182.332   1
  -3   5  15 395.639 181.404   1
  -3   5  14-153.520 102.627   1
  -3   5  13-39.4815 59.3159   1
  -3   5  12 154.807 115.349   1
  -3   5  12 85.6276 57.4466   3
  -3   5  11 1558.36 257.613   1
  -3   5  11 2014.82 228.365   3
   3  -5 -10 7511.72 444.566   2
  -3   5  10 8395.91 567.539   1
  -3   5  10 8342.86 468.041   3
  -3   5   9 193.535 106.869   1
  -3   5   9 122.156 50.9205   2
   3  -5  -9 100.091 53.6035   2
   3  -5  -8 1467.24 205.915   1
  -3   5   8 1304.36 183.764   2
   3  -5  -8 1502.85 199.548   2
  -3   5   8 1629.94 226.206   1
  -3   5   7 6717.73 405.656   2
   3  -5  -7 6433.26 399.220   2
  -3   5   7 6937.41 431.455   1
  -3   5   6 5087.78 356.921   2
   3  -5  -6 5602.75 376.069   2
  -3   5   6 5683.86 362.658   1
  -3   5   5 3711.72 305.716   2
   3  -5  -5 3808.50 312.071   2
  -3   5   5 4034.22 276.338   1
   3  -5  -4 1459.77 195.994   2
  -3   5   4 1499.92 150.317   1
  -3   5   4 1320.22 181.631   2
  -3   5   3 2129.97 237.714   2
   3  -5  -3 2418.70 262.895   2
  -3   5   3 2204.42 164.799   1
  -3   5   2 1072.09 98.5579   1
  -3   5   2 1040.66 178.416   2
   3  -5  -2 934.493 159.937   2
   3  -5  -1 201.106 91.5931   2
  -3   5   1 232.224 39.1517   1
  -3   5   1 140.815 66.0133   3
  -3   5   1 271.404 96.9357   2
  -3   5   0 510.752 125.251   2
  -3   5  -1-39.4967 73.7301   2
  -3   5  -2 3656.25 346.566   2
  -3   5  -2 3907.75 155.458   1
  -3   5  -3 4049.48 364.775   2
  -3   5  -3 4680.83 210.447   1
  -3   5  -4 572.117 90.6682   1
  -3   5  -4 443.388 126.659   2
  -3   5  -5 293.112 70.8716   1
  -3   5  -5 110.710 87.3742   2
  -3   5  -6 178.387 61.4155   1
  -3   5  -6 117.246 107.680   2
  -3   5  -7 2992.53 267.172   1
  -3   5  -7 2873.57 348.083   2
  -3   5  -8 104.159 83.7915   2
  -3   5  -9-48.5936 84.4572   2
  -3   5 -10 115.878 87.3916   2
  -3   5 -11 59.7690 72.0234   2
  -3   5 -12 1194.58 270.121   2
  -3   5 -13 5.55844 81.8328   2
  -3   4  16 974.707 259.163   1
  -3   4  15 334.561 160.066   1
  -3   4  14-16.2329 94.9311   1
  -3   4  13 688.095 195.811   1
  -3   4  12 227.888 117.308   1
  -3   4  12 183.838 61.8910   3
   3  -4 -11 721.874 127.014   2
  -3   4  11 1024.52 215.780   1
  -3   4  11 707.098 117.756   3
  -3   4  10 1514.32 252.154   1
   3  -4 -10 1651.10 191.038   2
  -3   4  10 1685.63 190.957   3
  -3   4   9 2148.04 215.451   2
   3  -4  -9 2343.62 226.145   2
  -3   4   9 2499.97 306.270   1
  -3   4   9 2472.43 227.976   3
  -3   4   8 214.828 76.7176   2
   3  -4  -8 236.936 70.7637   2
   3  -4  -8 326.726 99.7571   1
  -3   4   8 258.193 107.226   1
  -3   4   7 625.740 116.723   2
   3  -4  -7 702.304 141.083   1
  -3   4   7 584.902 126.591   1
   3  -4  -7 663.362 117.959   2
  -3   4   6 673.129 125.324   2
  -3   4   6 555.974 123.266   1
   3  -4  -6 591.377 122.628   2
   3  -4  -5-0.98985 25.0851   1
  -3   4   5 56.6746 53.5069   2
  -3   4   5-19.4565 55.4617   1
   3  -4  -5 73.7503 53.0104   2
  -3   4   4 1393.42 178.152   2
  -3   4   4 1604.53 172.745   1
   3  -4  -4 1570.34 191.748   2
  -3   4   3 132.260 52.3470   1
  -3   4   3 177.366 66.5761   2
   3  -4  -3 182.123 74.5486   2
   3  -4  -2 575.246 122.354   2
  -3   4   2 543.454 81.6278   1
  -3   4   2 597.593 127.359   3
  -3   4   2 718.183 138.484   2
  -3   4   1 1211.76 112.565   1
  -3   4   1 1294.05 179.578   3
  -3   4   1 1225.11 176.532   2
  -3   4   0 634.404 75.4153   1
  -3   4   0 487.097 115.609   3
  -3   4   0 593.209 133.876   2
  -3   4  -1 1278.03 190.156   3
  -3   4  -1 1397.92 199.317   2
  -3   4  -2 448.725 69.2645   1
  -3   4  -2 425.113 114.333   3
  -3   4  -2 418.442 113.148   2
  -3   4  -3 738.512 100.770   1
  -3   4  -3 621.429 139.924   2
  -3   4  -4 2148.23 267.840   2
  -3   4  -4 2107.37 179.274   1
  -3   4  -5 1210.91 154.397   1
  -3   4  -5 1123.04 206.704   2
  -3   4  -6 5.96647 34.3205   1
  -3   4  -6 15.9622 67.9784   2
  -3   4  -7 21.1716 41.3121   1
  -3   4  -7 37.7899 58.4342   2
  -3   4  -8-1.19669 51.8625   1
  -3   4  -8 195.129 112.661   2
  -3   4  -9 104.764 77.5659   2
  -3   4 -10 183.358 121.050   2
  -3   4 -11 180.940 126.691   2
  -3   4 -12 40.9133 63.2489   2
  -3   4 -13 29.0311 101.121   2
  -3   4 -14 481.613 170.297   2
  -3   3  15 2059.49 368.151   1
  -3   3  14 426.943 152.606   1
  -3   3  13 395.413 160.640   1
  -3   3  12 275.248 108.179   1
  -3   3  11 889.353 203.233   1
   3  -3 -11 1236.06 148.896   2
  -3   3  11 1122.07 125.405   3
   3  -3 -10 232.008 69.4537   2
  -3   3  10 171.766 103.174   1
  -3   3  10 174.362 59.6572   3
  -3   3   9 26589.2 633.856   3
   3  -3  -9 26528.5 674.663   2
  -3   3   9 25514.3 968.684   1
  -3   3   8 1148.76 140.283   2
   3  -3  -8 944.754 128.656   2
   3  -3  -8 987.001 183.441   1
  -3   3   8 1042.81 189.482   1
   3  -3  -7 1421.64 201.402   1
  -3   3   7 1464.46 158.095   2
   3  -3  -7 1375.02 155.283   2
  -3   3   7 1514.48 212.384   1
  -3   3   6 646.515 131.514   1
  -3   3   6 651.707 107.441   2
   3  -3  -6 554.730 97.7771   2
  -3   3   5 1481.09 160.942   2
  -3   3   5 1567.50 190.976   1
   3  -3  -5 1815.88 184.431   2
  -3   3   4 2462.54 214.469   2
  -3   3   4 2572.79 224.858   1
   3  -3  -4 2468.64 221.203   2
  -3   3   4 2543.97 215.611   3
  -3   3   3 2171.03 194.876   1
  -3   3   3 2355.10 214.080   2
   3  -3  -3 2284.52 219.872   2
  -3   3   3 2061.03 202.789   3
  -3   3   2 242.314 83.3305   3
  -3   3   2 231.683 86.5383   2
  -3   3   2 216.826 63.7875   1
  -3   3   1 9145.34 346.290   1
  -3   3   1 8929.76 432.445   2
  -3   3   1 9283.50 449.476   3
  -3   3   0 11935.8 526.705   3
  -3   3   0 11135.6 501.296   2
  -3   3  -1 6206.32 384.334   2
  -3   3  -1 6298.66 394.175   3
  -3   3  -2 81.9698 75.2116   3
  -3   3  -2 121.135 70.6678   2
  -3   3  -3-2.57734 36.6395   3
  -3   3  -3 16.7182 24.6760   1
  -3   3  -3-8.77376 53.4348   2
  -3   3  -4 75.1373 42.3273   1
  -3   3  -4 120.645 73.2139   3
  -3   3  -4 131.719 86.5531   2
  -3   3  -5 696.264 162.197   2
  -3   3  -5 813.613 132.182   1
  -3   3  -6 19.0018 55.2809   2
  -3   3  -6 61.2147 50.8587   1
  -3   3  -7-6.42986 53.8418   2
  -3   3  -7-14.0298 39.5306   1
  -3   3  -8 946.835 197.548   2
  -3   3  -8 729.106 145.834   1
  -3   3  -9 1801.22 275.390   2
  -3   3 -10 756.486 193.748   2
  -3   3 -11-32.8842 78.9109   2
  -3   3 -12 32.5691 88.0071   2
  -3   3 -13 1623.71 300.042   2
  -3   3 -14 160.740 79.6166   2
  -3   2  15 233.846 131.626   1
  -3   2  14 602.506 204.384   1
  -3   2  13-97.1683 117.155   1
  -3   2  12 1735.03 297.151   1
   3  -2 -11 3777.31 218.493   2
  -3   2  11 3721.68 414.673   1
  -3   2  11 3478.39 133.238   3
   3  -2 -10 12178.4 391.114   2
  -3   2  10 12110.0 711.445   1
  -3   2  10 12607.5 301.596   3
   3  -2  -9 2061.28 162.873   2
  -3   2   9 1872.11 268.052   1
  -3   2   9 1994.41 132.258   3
  -3   2   8 2296.77 280.139   1
   3  -2  -8 2243.81 172.566   2
  -3   2   8 2183.61 148.877   3
   3  -2  -7 2733.95 285.542   1
  -3   2   7 2496.99 177.116   2
  -3   2   7 2387.65 274.310   1
   3  -2  -7 2652.16 187.549   2
  -3   2   7 2480.11 162.898   3
  -3   2   6 224.330 84.3059   1
  -3   2   6 108.499 44.9098   2
   3  -2  -6 185.920 83.4301   1
  -3   2   6 189.505 51.6825   3
   3  -2  -6 111.681 35.7506   2
  -3   2   5 230.610 99.6864   1
  -3   2   5 31.0561 25.7626   2
  -3   2   5 75.6309 31.5601   3
   3  -2  -5 104.433 39.8026   2
   3  -2  -4 25.9215 36.1829   2
  -3   2   4-65.1298 57.0993   1
  -3   2   4 83.3847 42.0486   3
  -3   2   4 61.4207 46.7703   2
  -3   2   3 1711.06 185.620   1
  -3   2   3 1565.45 158.121   2
  -3   2   3 1577.82 157.728   3
  -3   2   2 57.7213 44.4696   3
  -3   2   2 28.1273 36.9711   1
  -3   2   2 82.7353 53.4771   2
  -3   2   1 891.489 132.540   3
  -3   2   1 926.478 127.249   1
  -3   2   1 895.888 130.699   2
  -3   2   0 10366.5 454.137   2
  -3   2   0 10597.8 464.206   3
  -3   2  -1 38.4894 37.4509   3
  -3   2  -1 21.9431 42.8449   2
  -3   2  -2 796.008 140.886   2
  -3   2  -2 669.556 127.594   3
   3  -2   3 47.1014 60.3085   3
  -3   2  -3 128.261 60.6347   3
   3  -2   4 2529.67 269.618   3
  -3   2  -4 2788.14 279.208   3
  -3   2  -4 2716.46 222.029   1
   3  -2   5 98.6572 72.8070   3
  -3   2  -5 47.6133 60.7430   3
  -3   2  -5 28.3851 43.4026   1
  -3   2  -6 2006.91 218.493   1
   3  -2   6 1990.61 257.616   3
  -3   2  -7-20.7785 53.1785   1
   3  -2   7 36.4369 73.2897   3
  -3   2  -8 28.6605 50.1646   1
   3  -2   8 93.3410 80.0116   3
   3  -2   9 2649.05 330.514   3
   3  -2  10 217.945 108.322   3
   3  -2  11 12.9206 84.5961   3
   3  -2  12 18.4588 61.3508   3
   3  -2  13 22.9374 62.2038   3
   3  -2  14 485.105 168.405   3
  -3   2 -15-98.5653 96.3444   2
  -3   1  15 1464.77 316.709   1
  -3   1  14 112.332 111.456   1
  -3   1  13 22.0924 58.3776   1
  -3   1  12 2526.11 363.024   1
   3  -1 -11 5851.20 189.917   2
  -3   1  11 5885.93 525.249   1
   3  -1 -10 421.125 55.4056   2
  -3   1  10 343.191 129.723   1
  -3   1   9 8836.46 593.846   1
   3  -1  -9 9020.55 260.461   2
  -3   1   8 2775.77 312.979   1
   3  -1  -8 3382.81 167.420   2
   3  -1  -7 4541.05 374.342   1
  -3   1   7 4125.12 367.221   1
   3  -1  -7 4730.50 205.859   2
  -3   1   7 4400.42 143.179   3
  -3   1   7 4357.94 143.567   3
   3  -1  -6 6384.31 419.392   1
  -3   1   6 6261.01 230.741   2
  -3   1   6 5733.09 407.616   1
  -3   1   6 6287.41 210.132   3
  -3   1   5 101.829 68.4604   1
  -3   1   5-3.14381 36.6631   2
  -3   1   5 98.0056 32.1871   3
  -3   1   4 707.450 89.1357   2
  -3   1   4 829.353 98.0454   3
  -3   1   4 702.360 138.406   1
  -3   1   3 62278.5 1153.87   1
  -3   1   3 63030.3 883.774   2
  -3   1   3 63028.8 889.664   3
  -3   1   2 94.5002 57.4191   1
  -3   1   2 27.3071 25.5328   3
  -3   1   2 34.6270 31.8104   2
  -3   1   1 1810.57 172.239   2
  -3   1   1 2037.05 186.246   3
  -3   1   0 1452.97 161.345   2
  -3   1   0 1331.09 157.732   3
   3  -1   1 12.9690 43.2009   3
  -3   1  -1 391.703 92.8275   3
  -3   1  -2 2031.29 213.027   3
  -3   1  -3 3087.21 270.947   3
  -3   1  -4 14075.7 604.596   3
   3  -1   5 2880.58 282.471   3
  -3   1  -5 3305.76 306.541   3
  -3   1  -5 3082.08 256.714   1
  -3   1  -6 57.0349 57.7608   1
   3  -1   6-5.09256 40.5104   3
  -3   1  -6 100.769 67.2692   3
  -3   1  -7 98.8146 57.1706   1
   3  -1   7 66.5243 65.5897   3
  -3   1  -8 2300.35 267.746   1
   3  -1   8 2653.34 303.515   3
   3  -1   9 2154.65 288.638   3
   3  -1  10 1686.47 270.180   3
   3  -1  11 1835.09 289.732   3
   3  -1  12 121.755 77.8276   3
   3  -1  13 148.217 98.5051   3
   3  -1  14 102.816 119.707   3
   3  -1  15 199.187 86.1983   3
   3  -1  16 224.208 125.721   3
  -3   0  15 919.869 244.511   1
  -3   0  14-55.6315 97.6989   1
  -3   0  13-5.97949 56.5745   1
  -3   0  12 501.484 169.969   1
  -3   0  11 24.5661 53.1713   1
  -3   0  10 54.1731 59.4777   1
  -3   0   9 127.630 82.6299   1
  -3   0   8 406.385 120.025   1
  -3   0   7 48.5928 74.9942   1
   3   0  -6 24.1445 73.3868   1
  -3   0   6 27.4231 56.1518   1
  -3   0   5 6832.75 191.895   2
  -3   0   5 6512.29 427.909   1
  -3   0   5 6686.48 173.919   3
  -3   0   4 3468.89 303.410   1
  -3   0   4 3446.80 160.597   2
  -3   0   4 3575.17 166.024   3
  -3   0   3 37.2364 52.2111   1
  -3   0   3 31.7774 25.3676   3
  -3   0   3 21.7378 29.3652   2
  -3   0   2 81.9364 50.9932   1
   3   0  -2 27.0490 20.0814   3
  -3   0   2 57.3427 29.8855   3
  -3   0   2 55.4857 38.1741   2
   3   0  -1 5915.39 283.753   3
  -3   0   1 6659.31 311.792   3
   3   0   0 1128.91 131.029   3
  -3   0   0 1104.23 137.990   3
  -3   0  -1 1808.93 186.259   3
   3   0   1 7.78821 33.2877   3
  -3   0  -2 889.514 134.899   3
  -3   0  -3 354.619 89.7014   3
  -3   0  -4 24954.7 781.888   3
  -3   0  -5 413.208 105.919   3
   3   0   6 2314.75 260.002   3
  -3   0  -6 2224.68 254.723   3
  -3   0  -6 2304.23 244.604   1
   3   0   7 2142.74 261.668   3
  -3   0  -7 2434.51 260.201   1
  -3   0  -8 2865.56 296.204   1
   3   0   8 2584.55 291.003   3
   3   0   9 127.873 74.7751   3
   3   0  10 824.388 180.298   3
   3   0  11 1715.55 266.658   3
   3   0  12 1060.04 227.243   3
   3   0  13 621.399 172.650   3
   3   0  14 364.010 145.332   3
   3   0  15-42.4711 128.462   3
   3   0  16 1240.08 276.790   3
  -3  -1  14 1047.43 263.844   1
  -3  -1  13 386.548 162.645   1
  -3  -1  12-124.358 110.386   1
  -3  -1  11 137.921 86.8649   1
  -3  -1  10 52.4555 83.8428   1
  -3  -1   9 2077.42 307.110   1
  -3  -1   8 376.476 126.966   1
  -3  -1   7 6356.10 483.770   1
  -3  -1   6 237.748 92.0593   1
  -3  -1   5 10829.0 568.975   1
  -3  -1   4 202.296 32.4916   3
  -3  -1   4 217.383 32.5293   2
  -3  -1   4 304.304 104.585   1
   3   1  -3 5.91923 19.4232   3
  -3  -1   3-28.8928 35.7428   1
  -3  -1   3-6.62466 22.8295   2
  -3  -1   3-36.3232 36.0868   3
   3   1  -2 646.869 82.1149   3
  -3  -1   2 604.568 131.641   1
  -3  -1   2 548.510 76.8074   3
   3   1  -1 48.3539 22.5003   3
  -3  -1   1 140.854 54.6450   3
   3   1   0 12066.9 420.131   3
  -3  -1   0 12453.8 442.334   3
   3   1   1 2805.32 217.480   3
  -3  -1  -1 3660.16 256.392   3
  -3  -1  -2 8614.51 414.595   3
   3   1   2 38.2783 46.2886   3
  -3  -1  -3 13414.1 545.539   3
  -3  -1  -4 605.872 126.658   3
  -3  -1  -5 5241.75 373.333   3
   3   1   6 124.629 79.9748   3
  -3  -1  -6 175.040 75.9429   3
   3   1   7 1896.48 245.698   3
  -3  -1  -7 2025.09 246.045   1
   3   1   8 4071.00 366.019   3
   3   1   9 12489.6 672.951   3
   3   1  10 3410.23 367.211   3
   3   1  11 33.1954 68.8066   3
   3   1  12 199.919 97.8196   3
   3   1  13 77.3002 75.7840   3
   3   1  14 873.319 218.571   3
   3   1  15-71.5592 88.6815   3
   3   1  16 1173.90 267.910   3
  -3  -2  14-8.37224 80.8498   1
  -3  -2  13 710.425 220.947   1
  -3  -2  12 89.4678 111.156   1
  -3  -2  11 225.616 142.884   1
  -3  -2  10-101.866 139.984   1
  -3  -2   9 764.631 196.023   1
  -3  -2   8 183.729 125.290   1
  -3  -2   7 96.9657 87.7943   1
  -3  -2   6-55.2935 59.0850   1
  -3  -2   5 5096.98 403.608   1
   3   2  -4 162.274 29.4430   3
  -3  -2   4 87.4541 59.0216   1
  -3  -2   3-20.7445 53.4539   1
   3   2  -3 1.05899 15.3517   3
  -3  -2   2 2149.74 241.307   1
   3   2  -2 2112.09 149.033   3
  -3  -2   2 2151.89 159.128   3
   3   2  -1 3327.82 205.572   3
  -3  -2   1 3617.13 222.535   3
   3   2   0 64.7269 43.6145   3
  -3  -2   0 119.450 48.7909   3
   3   2   1 2182.50 192.004   3
  -3  -2  -1 3394.27 249.998   3
   3   2   2 12.0960 31.7877   3
  -3  -2  -2 845.575 137.279   3
  -3  -2  -3 77.0158 36.4481   3
  -3  -2  -4 6464.39 401.446   3
   3   2   5 3296.81 291.587   3
  -3  -2  -5 3311.66 298.510   3
   3   2   6 221.060 77.6663   3
  -3  -2  -6 224.061 78.9566   3
   3   2   7 4692.18 377.267   3
   3   2   8 170.264 71.0555   3
   3   2   9 4528.77 407.024   3
   3   2  10 9183.10 595.832   3
   3   2  11 1007.92 204.444   3
   3   2  12 4227.89 436.346   3
   3   2  13 100.706 107.096   3
   3   2  14 1005.24 234.846   3
   3   2  15 115.743 104.265   3
   3   2  16 1697.18 315.559   3
  -3  -3  13 452.962 179.878   1
  -3  -3  12 77.2782 72.3280   1
  -3  -3  11 26.5454 60.9301   1
  -3  -3  10-67.1137 88.5336   1
  -3  -3   9 2040.19 318.943   1
  -3  -3   8 275.946 110.141   1
  -3  -3   7 583.091 158.773   1
  -3  -3   6 130.111 86.9044   1
   3   3  -5 175.632 26.5615   3
  -3  -3   5 46.2940 69.3116   1
  -3  -3   4 263.229 109.574   1
   3   3  -4 241.518 42.6208   3
  -3  -3   3 219.679 38.9334   2
  -3  -3   3 180.912 83.7019   1
   3   3  -3 196.641 43.9100   3
  -3  -3   2 4074.11 343.565   1
  -3  -3   2 3729.99 182.176   2
   3   3  -2 3549.77 205.430   3
   3   3  -1 11005.4 391.757   3
  -3  -3   1 11463.0 424.998   3
   3   3   0 2303.89 192.447   3
  -3  -3   0 2558.99 211.498   3
  -3  -3  -1 4673.65 301.806   3
   3   3   1 8.41915 28.5580   3
  -3  -3  -2 3529.64 280.755   3
  -3  -3  -3 699.647 133.291   3
  -3  -3  -4 15447.0 629.104   3
   3   3   5 188.438 68.9263   3
  -3  -3  -5 105.370 51.6772   3
   3   3   6 1163.91 184.073   3
  -3  -3  -6 1426.12 201.827   3
   3   3   7 221.550 98.0467   3
   3   3   8 6885.21 478.521   3
   3   3   9 1914.20 266.990   3
   3   3  10 3726.89 381.872   3
   3   3  11 414.172 151.404   3
   3   3  12 15.3846 62.1028   3
   3   3  13 47.0146 77.8389   3
   3   3  14 3715.71 444.490   3
   3   3  15-242.702 155.261   3
   3   3  16-156.036 119.502   3
  -3  -4  13 83.4354 121.447   1
  -3  -4  12 145.869 105.522   1
  -3  -4  11 203.888 146.399   1
  -3  -4  10-57.7039 68.2745   1
  -3  -4   9 927.401 222.621   1
  -3  -4   8 1260.48 248.134   1
  -3  -4   7 28.5021 90.6277   1
  -3  -4   6 362.751 119.530   1
   3   4  -6 306.699 41.5039   3
   3   4  -6 303.914 41.5214   3
   3   4  -5 42.4403 25.5898   3
  -3  -4   5 136.947 81.4251   1
  -3  -4   4 666.502 64.9665   2
  -3  -4   4 783.033 177.337   1
   3   4  -4 632.283 82.6632   3
  -3  -4   3 1582.18 230.578   1
  -3  -4   3 1401.76 112.309   2
   3   4  -3 1519.26 140.758   3
  -3  -4   2 210.338 49.8320   2
  -3  -4   2 204.381 94.1071   1
   3   4  -2 216.654 60.0556   3
  -3  -4   1 393.232 73.8987   2
   3   4  -1 469.771 95.3112   3
  -3  -4   0 847.957 113.626   2
   3   4   0 12.6241 33.8268   3
  -3  -4  -1 1572.29 184.643   3
  -3  -4  -2 2076.52 229.487   3
  -3  -4  -3 1527.29 201.597   3
  -3  -4  -4 56.0715 36.5023   3
   3   4   4 152.495 85.4544   3
  -3  -4  -5 1108.92 182.431   3
   3   4   5 1024.12 171.210   3
  -3  -4  -6 257.350 97.4885   3
   3   4   6 214.803 74.8461   3
   3   4   7 169.897 97.6314   3
   3   4   8 47.0228 43.8063   3
   3   4   9 73.5445 73.1316   3
   3   4  10 1714.90 263.778   3
   3   4  11 1098.55 225.778   3
   3   4  12-92.0124 89.5642   3
   3   4  13 2914.13 383.168   3
   3   4  14 274.892 124.323   3
   3   4  15 475.326 170.478   3
   3   4  16 377.517 169.113   3
  -3  -5  12 165.515 130.163   1
  -3  -5  11-81.2812 103.607   1
  -3  -5  10 176.378 138.179   1
  -3  -5   9 176.412 117.655   1
  -3  -5   8 469.700 155.732   1
  -3  -5   7 163.126 102.370   1
   3   5  -7 55.6739 21.6622   3
   3   5  -7 98.9978 31.1200   3
  -3  -5   6 1540.46 258.774   1
   3   5  -6 1893.76 145.098   3
  -3  -5   5 486.344 61.4094   2
  -3  -5   5 625.517 169.008   1
   3   5  -5 454.205 79.7571   3
  -3  -5   4 2998.60 333.973   1
  -3  -5   4 2616.35 159.587   2
   3   5  -4 2494.00 193.512   3
  -3  -5   3 11.3044 27.6691   2
  -3  -5   3 37.9851 50.6732   1
   3   5  -3-46.0270 32.8334   3
  -3  -5   2 1310.42 133.385   2
  -3  -5   2 1447.05 222.065   1
  -3  -5   1 278.823 67.1544   2
   3   5  -1 315.586 88.1656   3
  -3  -5   0 547.947 101.854   2
  -3  -5  -1 10413.0 445.477   2
  -3  -5  -2 817.927 130.589   2
  -3  -5  -3 59.9180 57.6878   3
   3   5   3 97.1728 80.6499   3
   3   5   4 1561.68 208.274   3
  -3  -5  -4 1693.59 226.872   3
  -3  -5  -5 800.671 157.889   3
   3   5   5 631.769 145.528   3
   3   5   6 1872.15 250.183   3
   3   5   7 124.792 72.5096   3
   3   5   8 471.163 144.615   3
   3   5   9 818.905 180.507   3
   3   5  10 4237.57 424.598   3
   3   5  11 139.428 88.9390   3
   3   5  12 323.041 136.834   3
   3   5  13 1096.29 236.288   3
   3   5  14 82.1968 59.4226   3
   3   5  15 1317.39 273.826   3
   3   5  16 214.702 125.264   3
  -3  -6  11 188.014 131.428   1
  -3  -6  10 406.752 159.427   1
  -3  -6   9 142.694 130.247   1
  -3  -6   8 25.2512 84.8121   1
  -3  -6   7 160.209 93.4331   1
   3   6  -7 159.236 45.6430   3
  -3  -6   6 406.164 163.014   1
   3   6  -6-8.67380 25.1909   3
  -3  -6   5 3996.77 412.372   1
  -3  -6   5 3884.47 215.999   2
   3   6  -4 103.863 52.2470   3
  -3  -6   4 75.7953 70.0991   1
  -3  -6   4 50.5623 34.3276   2
  -3  -6   3 2578.14 314.549   1
  -3  -6   3 2427.81 191.850   2
  -3  -6   2 18.6890 46.4149   1
  -3  -6   2 7.05246 33.9442   2
  -3  -6   1 819.800 124.035   2
  -3  -6   0 326.218 91.0495   2
  -3  -6  -1 8127.25 418.535   2
   3   6   1 6964.78 421.947   3
  -3  -6  -2 211.521 76.3006   2
   3   6   2 206.602 95.9684   3
  -3  -6  -3 69.9614 34.7939   2
   3   6   3 5.98442 46.4497   3
  -3  -6  -4 65.7784 56.0150   2
   3   6   4 79.0855 77.7775   3
   3   6   5 62.6177 75.3393   3
   3   6   6 199.534 93.7796   3
   3   6   7 201.442 92.2567   3
   3   6   8 980.244 203.329   3
   3   6   9 1178.09 227.610   3
   3   6  10 75.0196 101.635   3
   3   6  11 3112.09 383.584   3
   3   6  12 168.714 104.531   3
   3   6  13 250.184 142.151   3
   3   6  14 366.758 153.790   3
   3   6  15 62.2434 99.7206   3
   3   6  16 29.1362 81.6120   3
  -3  -7  11 139.976 150.533   1
  -3  -7  10 12.4801 103.514   1
  -3  -7   9 55.1796 95.7471   1
  -3  -7   8 328.949 138.538   1
  -3  -7   7 155.154 116.221   1
  -3  -7   6 11.3761 82.1928   1
  -3  -7   5 246.768 125.954   1
  -3  -7   4 35.2027 54.8327   1
  -3  -7   3 478.495 150.627   1
  -3  -7   3 579.159 110.070   2
  -3  -7   2 2370.26 307.282   1
  -3  -7   2 2257.29 215.086   2
   3   7  -2 2337.01 248.139   3
  -3  -7   1 14056.4 706.397   1
  -3  -7   1 13630.4 543.576   2
   3   7  -1 12567.5 574.285   3
  -3  -7   0 1009.14 149.200   2
   3   7   0 958.482 160.747   3
  -3  -7  -1 24.9798 47.1337   2
   3   7   1 67.3012 78.3981   3
  -3  -7  -2 9349.32 495.519   2
   3   7   2 8006.95 491.706   3
   3   7   3 63.1245 46.6293   3
   3   7   4 1426.21 223.597   3
   3   7   5 846.578 179.838   3
   3   7   6 71.2472 77.8573   3
   3   7   7 1135.69 218.299   3
   3   7   8 2940.53 351.126   3
   3   7   9 339.468 129.113   3
   3   7  10 477.668 144.797   3
   3   7  11 112.598 78.4874   3
   3   7  12 199.391 134.588   3
   3   7  13 121.952 90.6511   3
   3   7  14-2.37318 92.4317   3
   3   7  15 33.3813 84.2120   3
  -3  -8  10 191.037 135.928   1
  -3  -8   9 177.789 137.473   1
  -3  -8   8 232.566 111.321   1
  -3  -8   7 13.5161 84.6775   1
   3   8  -6 29.6521 54.6441   3
  -3  -8   6-8.43726 84.0532   1
   3   8  -5 381.478 102.920   3
  -3  -8   5 557.359 178.221   1
   3   8  -4 279.110 101.328   3
  -3  -8   4 486.495 169.951   1
   3   8  -3 41.7469 40.9285   3
  -3  -8   3 104.743 91.7876   1
   3   8  -2 786.260 156.186   3
  -3  -8   2 1251.24 229.713   1
  -3  -8   2 729.685 137.858   2
   3   8  -1 318.972 105.766   3
  -3  -8   1 159.478 72.2533   1
  -3  -8   1 347.408 95.9296   2
   3   8   0 257.718 108.904   3
  -3  -8   0 254.428 85.8379   2
   3   8   1 256.789 123.840   3
   3   8   2 562.042 139.548   3
   3   8   3 1933.17 264.915   3
   3   8   4 895.449 179.573   3
   3   8   5 1172.49 216.033   3
   3   8   6 2000.58 286.093   3
   3   8   7 1662.95 274.883   3
   3   8   8 191.835 112.381   3
   3   8   9 282.565 130.408   3
   3   8  10 8.05836 68.6132   3
   3   8  11 65.1314 101.598   3
   3   8  12 18.0276 71.9068   3
   3   8  13 174.429 99.0192   3
   3   8  14 456.320 179.746   3
  -3  -9   9 117.771 93.6428   1
  -3  -9   8 607.365 205.022   1
  -3  -9   7 247.926 152.030   1
  -3  -9   6 4.47527 77.8879   1
  -3  -9   5 226.599 114.184   1
   3   9  -5 123.296 66.6320   3
   3   9  -4-52.1685 57.7132   3
  -3  -9   4-90.1361 110.579   1
   3   9  -3 468.460 129.062   3
  -3  -9   3 675.642 174.977   1
   3   9  -2 51.4122 54.3270   3
  -3  -9   2 138.290 92.9445   1
   3   9  -1 985.090 192.654   3
  -3  -9   1 849.326 202.134   1
   3   9   0 21.0924 64.1494   3
  -3  -9   0 107.732 82.2891   1
   3   9   1 71.7905 63.0023   3
   3   9   2 227.220 95.9512   3
   3   9   3 36.8207 67.5019   3
   3   9   4 9.88447 56.6601   3
   3   9   5 5476.39 487.869   3
   3   9   6 907.623 213.084   3
   3   9   7-118.727 106.802   3
   3   9   8 163.321 61.4029   3
   3   9   9-5.13620 58.9655   3
   3   9  10 541.713 172.512   3
   3   9  11 103.494 104.587   3
   3   9  12 211.089 119.323   3
   3   9  13-11.3583 61.5309   3
  -3 -10   7 400.441 163.597   1
  -3 -10   6 119.509 115.745   1
  -3 -10   5 147.475 124.935   1
   3  10  -4 123.219 84.7245   3
  -3 -10   4 58.1243 86.9725   1
   3  10  -3-48.9877 81.0729   3
  -3 -10   3 51.2639 70.7889   1
   3  10  -2 107.484 88.3606   3
  -3 -10   2 193.642 103.016   1
   3  10  -1 371.884 137.505   3
  -3 -10   1 57.7809 68.4767   1
   3  10   0 685.572 178.322   3
  -3 -10   0 637.232 193.435   1
   3  10   1 88.7050 92.7810   3
   3  10   2 204.127 108.272   3
   3  10   3 318.644 144.861   3
   3  10   4 187.227 106.594   3
   3  10   5-14.7331 61.0656   3
   3  10   6 257.849 137.105   3
   3  10   7 554.747 164.789   3
   3  10   8 117.132 93.9892   3
   3  10   9 270.765 136.869   3
   3  10  10 139.694 94.7941   3
   3  10  11 116.721 133.503   3
   3  10  12 181.096 155.142   3
  -3 -11   5 25.6309 68.4363   1
  -3 -11   4 87.6217 91.0056   1
   3  11  -3 284.599 148.992   3
  -3 -11   3 143.232 100.670   1
   3  11  -2-25.9347 73.6014   3
  -3 -11   2 75.3570 63.8355   1
   3  11  -1 23.9875 56.2632   3
  -3 -11   1 100.821 55.3400   1
   3  11   0 88.9911 100.359   3
  -3 -11   0 56.2786 60.0686   1
   3  11   1 317.556 130.118   3
  -3 -11  -1 475.013 150.624   1
   3  11   2 111.552 108.155   3
   3  11   3 640.131 195.478   3
   3  11   4 450.926 156.259   3
   3  11   5-56.7525 81.6534   3
   3  11   6 1241.68 265.322   3
   3  11   7 130.164 123.706   3
   3  11   8 9.32600 76.7366   3
   3  11   9 183.088 136.523   3
   3  11  10 314.808 148.519   3
   3  12  -2 44.0591 76.2619   3
   3  12  -1 47.8864 60.4221   3
  -3 -12   1-124.881 122.130   1
   3  12   0-80.3771 99.9715   3
  -3 -12   0-40.7253 67.1898   1
   3  12   1 107.754 67.8265   3
  -3 -12  -1-246.404 119.831   1
   3  12   2-59.7595 82.5515   3
  -3 -12  -2 55.9788 65.6763   1
   3  12   3 164.217 115.492   3
   3  12   4 294.216 144.121   3
   3  12   5 26.8653 63.6566   3
   3  12   6 716.966 202.510   3
   3  12   7-99.6374 108.324   3
   3  13   0 212.850 148.920   3
   3  13   1-221.571 128.485   3
  -4  10  12 72.4508 92.3456   2
  -4  10  11-10.1461 74.7844   2
  -4  10  10 303.831 122.227   2
  -4  10   9 431.152 171.286   2
  -4  10   8 1024.29 228.305   2
  -4  10   7 237.786 146.869   2
  -4  10   6 841.024 223.118   2
  -4  10   5 142.717 104.918   2
  -4  10   4 70.8230 94.9386   2
  -4  10   3-120.581 113.447   2
  -4  10   2 86.7557 79.6581   2
  -4  10   1 185.086 146.747   2
  -4  10   0 78.2744 95.0218   2
  -4   9  11 179.728 106.964   2
  -4   9  10 740.612 192.143   2
  -4   9   9 163.822 113.988   2
  -4   9   8 479.068 156.921   2
  -4   9   7 94.8746 64.1396   2
  -4   9   6 1.92995 92.2992   2
  -4   9   5 214.429 106.385   2
  -4   9   4-184.637 106.313   2
  -4   9   3-49.6532 91.9920   2
  -4   9   2-63.1032 88.1920   2
  -4   9   1-53.9448 84.0277   2
  -4   9   0 404.374 151.204   2
  -4   9  -1-7.02138 49.5108   2
  -4   9  -2 1122.37 240.692   2
  -4   9  -3 740.508 215.277   2
  -4   9  -4-164.309 118.058   2
  -4   8  11 186.785 97.0755   2
  -4   8  10 2627.91 331.310   2
  -4   8   9 382.791 127.619   2
  -4   8   8 962.085 204.837   2
  -4   8   7-9.81408 75.7595   2
  -4   8   6 135.374 93.7188   2
  -4   8   5 1.73414 64.1383   2
  -4   8   4 1121.25 222.029   2
  -4   8   3-80.1263 81.2276   2
  -4   8   2 4922.00 465.685   2
  -4   8   1 649.781 184.787   2
  -4   8   0 537.709 166.984   2
  -4   8  -1 516.358 154.652   2
  -4   8  -2 185.763 86.6506   2
  -4   8  -3-176.862 137.284   2
  -4   8  -4 151.711 121.392   2
  -4   8  -5 47.9952 65.5993   2
  -4   8  -6 260.001 135.429   2
  -4   7  14-9.13447 64.8997   1
  -4   7  13 1104.53 247.147   1
  -4   7  12 661.059 183.834   1
  -4   7  11 209.597 93.1050   1
  -4   7  11 150.225 78.8744   3
  -4   7  11 80.3744 64.9531   2
  -4   7  10 64.0537 49.0696   2
  -4   7  10 114.315 97.2706   1
  -4   7   9 1166.25 202.462   2
  -4   7   9 1177.42 206.790   1
  -4   7   8 3473.46 354.632   2
  -4   7   8 3751.52 339.136   1
  -4   7   7 1853.08 264.230   2
  -4   7   7 1812.23 221.167   1
  -4   7   6 143.701 104.401   2
  -4   7   6 224.222 84.0824   1
  -4   7   5 1313.21 150.020   1
  -4   7   5 1106.26 206.272   2
  -4   7   4 694.379 90.6291   1
  -4   7   4 628.916 168.371   2
  -4   7   3 362.379 132.389   2
  -4   7   2 497.657 151.893   2
  -4   7   1 571.835 155.671   2
  -4   7   0 155.018 91.3400   2
  -4   7  -1 626.257 172.181   2
  -4   7  -2 204.884 99.2150   2
  -4   7  -3 80.2806 97.0503   2
  -4   7  -4 191.460 118.101   2
  -4   7  -5 721.250 188.602   2
  -4   7  -6 196.306 91.5943   2
  -4   7  -7 27.6182 83.7044   2
  -4   7  -8 236.562 135.101   2
  -4   6  15 113.547 98.6177   1
  -4   6  14 156.899 117.471   1
  -4   6  13 581.688 185.451   1
  -4   6  12 124.875 98.6324   1
  -4   6  11 255.828 109.905   3
  -4   6  11 248.348 119.677   1
  -4   6  10 731.906 152.080   2
  -4   6  10 628.833 164.512   1
  -4   6   9 230.376 115.125   1
  -4   6   9 24.4318 52.8151   2
  -4   6   8 115.426 111.377   1
  -4   6   8 13.3211 49.5728   2
  -4   6   7 102.917 77.6579   1
  -4   6   7-33.9650 82.8125   2
  -4   6   6 7087.32 480.478   2
  -4   6   6 7479.58 429.515   1
  -4   6   5 3183.59 321.684   2
  -4   6   5 2849.34 241.837   1
  -4   6   4 310.444 108.182   2
  -4   6   4 278.916 67.7343   1
  -4   6   3 2187.50 272.850   2
  -4   6   3 2260.67 172.655   1
  -4   6   2 1883.49 132.405   1
  -4   6   2 1525.44 238.712   2
  -4   6   1 5706.04 458.370   2
  -4   6   1 5806.04 168.401   1
  -4   6   0 2080.23 292.091   2
  -4   6  -1 45.5432 77.6666   2
  -4   6  -2-16.3160 66.5399   2
  -4   6  -3 128.950 85.5781   2
  -4   6  -4 500.980 159.577   2
  -4   6  -5 1077.10 219.339   2
  -4   6  -6 689.694 189.454   2
  -4   6  -7 490.016 177.836   2
  -4   6  -8 521.768 175.797   2
  -4   6  -9 272.412 123.867   2
  -4   5  15 225.618 163.631   1
  -4   5  14 659.194 220.156   1
  -4   5  13 274.679 148.634   1
  -4   5  12 181.074 117.814   1
  -4   5  11 383.628 149.320   1
  -4   5  10 1186.02 229.881   1
  -4   5  10 1091.54 172.342   2
  -4   5   9 158.002 99.4521   1
  -4   5   9 81.7414 55.4371   2
  -4   5   8 1999.32 239.020   2
  -4   5   8 2101.12 268.835   1
  -4   5   7 56.1863 61.6053   2
  -4   5   7-48.6874 42.5592   1
  -4   5   6 1536.85 210.098   3
  -4   5   6 1221.01 186.503   2
  -4   5   6 1118.69 175.477   1
  -4   5   5 418.800 123.506   2
  -4   5   5 234.890 87.1530   3
  -4   5   5 253.310 81.3752   1
  -4   5   4 1637.94 191.007   1
  -4   5   4 1401.52 208.672   2
  -4   5   3 3710.34 340.870   2
  -4   5   3 4418.26 282.721   1
  -4   5   2 10977.8 407.163   1
  -4   5   2 9744.02 555.399   2
  -4   5   1 11291.4 380.193   1
  -4   5   1 11708.4 620.135   2
  -4   5   0 7306.25 284.926   1
  -4   5   0 7128.08 496.973   2
  -4   5  -1 6532.56 264.716   1
  -4   5  -1 6432.19 477.374   2
  -4   5  -1 6368.91 266.414   1
  -4   5  -2 295.346 60.9119   1
  -4   5  -2 375.192 133.678   2
  -4   5  -3 364.669 72.4315   1
  -4   5  -3 335.603 133.870   2
  -4   5  -4 365.608 82.2345   1
  -4   5  -4 305.182 132.664   2
  -4   5  -5 1452.52 251.238   2
  -4   5  -6 273.237 120.462   2
  -4   5  -7 96.2988 86.7750   2
  -4   5  -8 336.170 128.965   2
  -4   5  -9 239.759 146.193   2
  -4   5 -10 183.133 117.128   2
  -4   4  15 328.860 175.241   1
  -4   4  14 103.760 92.2068   1
  -4   4  13 96.7875 107.545   1
  -4   4  12 370.946 152.629   1
  -4   4  11 37.9068 101.546   1
  -4   4  10 166.868 74.8173   3
  -4   4  10 197.212 115.354   1
  -4   4   9 2739.88 247.439   2
   4  -4  -9 2687.31 257.772   2
  -4   4   9 2551.99 316.998   1
  -4   4   8 2022.43 211.499   2
  -4   4   8 2173.66 281.839   1
   4  -4  -8 2322.59 242.987   2
  -4   4   8 2378.25 229.852   3
  -4   4   7 5013.13 344.266   2
  -4   4   7 5061.07 408.227   1
   4  -4  -7 5047.43 362.692   2
  -4   4   7 4737.25 334.688   3
   4  -4  -6 292.996 91.1075   2
  -4   4   6 196.869 48.1528   1
  -4   4   6 271.333 84.0874   2
  -4   4   6 285.135 88.8279   3
   4  -4  -5 1015.98 169.269   2
  -4   4   5 761.789 131.875   1
  -4   4   5 836.597 147.430   2
  -4   4   5 871.171 148.957   3
  -4   4   4 78.2137 58.6465   1
  -4   4   4 165.682 75.5968   2
  -4   4   4 70.6865 58.9356   3
  -4   4   3 46.6595 46.5792   1
  -4   4   3-2.54696 39.0636   3
  -4   4   3 57.4079 55.9635   2
  -4   4   2 2406.09 214.601   1
  -4   4   2 2321.91 262.701   2
  -4   4   2 2515.69 270.157   3
  -4   4   1 1349.67 154.466   1
  -4   4   1 1439.70 208.564   2
  -4   4   0 569.064 100.412   1
  -4   4   0 702.589 154.475   2
  -4   4  -1 450.523 133.008   2
  -4   4  -2 8963.94 553.439   2
  -4   4  -3 3085.07 334.746   2
  -4   4  -3 3641.44 251.999   1
  -4   4  -4 1045.59 142.936   1
  -4   4  -4 874.727 198.192   2
  -4   4  -5 2858.95 342.049   2
  -4   4  -5 3314.93 273.163   1
  -4   4  -6 194.569 80.1906   1
  -4   4  -6 203.359 97.8873   2
  -4   4  -7 63.2873 86.1513   2
  -4   4  -8 146.980 91.5335   2
  -4   4  -9-36.7117 67.2706   2
  -4   4 -10 628.270 185.964   2
  -4   4 -11 1059.29 257.806   2
  -4   3  14 473.806 180.260   1
  -4   3  13 58.1415 67.1866   1
  -4   3  12-98.9943 98.1391   1
  -4   3  11 617.577 161.376   1
  -4   3  10 2005.69 304.449   1
   4  -3  -9 751.573 124.882   2
  -4   3   9 686.243 102.830   3
  -4   3   9 785.009 120.470   2
  -4   3   9 711.501 172.275   1
  -4   3   8 1120.11 144.875   2
   4  -3  -8 1129.23 151.463   2
  -4   3   8 998.788 127.030   3
  -4   3   8 908.822 187.806   1
  -4   3   7 4830.17 302.693   2
  -4   3   7 5150.19 423.056   1
  -4   3   7 5260.43 307.970   3
  -4   3   6-2.53247 41.4429   1
  -4   3   6 46.8565 50.7665   2
  -4   3   6 36.3058 46.7452   3
  -4   3   5-53.8108 63.5025   1
  -4   3   5 52.6465 50.0193   2
  -4   3   5 17.9221 42.1237   3
  -4   3   4 159.027 75.5970   1
  -4   3   4 79.3551 67.3762   2
  -4   3   4 45.9522 24.0447   3
  -4   3   3 5279.38 345.166   1
  -4   3   3 5255.72 352.285   2
  -4   3   3 5331.06 360.435   3
  -4   3   2 586.818 124.356   3
  -4   3   2 496.483 119.389   2
  -4   3   2 554.415 115.317   1
  -4   3   1 368.446 90.1923   1
  -4   3   1 396.448 103.923   3
  -4   3   1 269.241 94.6828   2
  -4   3   0 4264.37 345.181   2
  -4   3   0 4264.28 353.258   3
  -4   3  -1 74.1070 65.3419   2
  -4   3  -2 4625.62 382.854   2
  -4   3  -3 3414.11 348.697   2
  -4   3  -4 228.401 66.8489   1
  -4   3  -4 422.852 137.246   2
  -4   3  -5 3129.56 350.114   2
  -4   3  -5 2988.48 268.333   1
  -4   3  -6 349.221 99.7751   1
  -4   3  -6 256.905 129.201   2
  -4   3  -7 2938.04 359.185   2
  -4   3  -7 3231.91 309.120   1
  -4   3  -8 925.144 222.421   2
  -4   3  -9-65.4820 91.6358   2
  -4   3 -10 334.579 140.244   2
  -4   3 -11 497.552 172.857   2
  -4   3 -12-456.738 179.788   2
  -4   2  14-53.4748 98.5943   1
  -4   2  13 28.5491 80.9495   1
  -4   2  12 697.739 201.327   1
  -4   2  11 3013.51 394.258   1
  -4   2  10 1799.90 294.532   1
  -4   2   9-70.5311 99.5036   1
  -4   2   9 6.25988 17.7805   3
  -4   2   8 68.5059 42.8962   2
  -4   2   8 252.110 128.095   1
  -4   2   8 93.6174 35.7493   3
  -4   2   7-0.37046 58.8208   1
  -4   2   7 26.6455 33.0438   2
  -4   2   7 55.3451 43.2313   3
  -4   2   6 2118.15 183.487   2
  -4   2   6 1709.45 248.112   1
  -4   2   6 2049.79 178.410   3
  -4   2   5 920.337 170.712   1
  -4   2   5 980.469 130.044   2
  -4   2   5 1118.29 138.776   3
  -4   2   4 66.2431 29.2073   2
  -4   2   4 99.2257 55.9178   3
  -4   2   4 31.1814 50.2862   1
  -4   2   3 623.973 114.612   3
  -4   2   3 734.792 118.148   2
  -4   2   3 633.733 140.611   1
  -4   2   2 266.332 82.4156   1
  -4   2   2 281.479 85.7997   3
  -4   2   2 439.192 101.812   2
  -4   2   1 1768.07 203.460   1
  -4   2   1 1813.15 204.743   2
  -4   2   1 1944.36 223.740   3
  -4   2   0 21.3150 52.3600   3
  -4   2   0 28.0715 46.3882   2
  -4   2  -1 2100.92 243.987   2
  -4   2  -1 2503.67 269.719   3
  -4   2  -2 859.994 167.756   2
  -4   2  -2 936.958 172.274   3
  -4   2  -3 316.037 106.413   2
   4  -2   3 338.365 105.055   3
  -4   2  -4 637.439 145.629   2
   4  -2   4 940.916 181.537   3
  -4   2  -5 28.3663 52.2097   1
   4  -2   5-1.09641 58.8632   3
  -4   2  -6 740.669 145.655   1
   4  -2   6 739.529 178.686   3
  -4   2  -7 401.934 107.619   1
   4  -2   7 443.097 147.234   3
   4  -2   8 524.985 159.743   3
   4  -2   9 1390.19 262.454   3
   4  -2  10 21.3364 70.8227   3
   4  -2  11 2047.41 340.678   3
   4  -2  12 1434.24 275.007   3
   4  -2  13 34.9417 103.450   3
  -4   1  14 1321.43 296.047   1
  -4   1  13 1641.66 317.198   1
  -4   1  12 767.009 221.691   1
  -4   1  11-66.1823 75.2202   1
  -4   1  10 2111.31 328.827   1
  -4   1   9 3598.94 407.030   1
  -4   1   8 85.0671 91.8400   1
  -4   1   7 186.396 94.8640   1
  -4   1   7 82.0913 41.0746   2
  -4   1   7 60.0711 22.8110   3
  -4   1   6 465.609 136.237   1
  -4   1   6 460.086 71.0564   2
  -4   1   6 586.106 82.4473   3
  -4   1   5 1956.02 251.388   1
  -4   1   5 1908.45 159.595   2
  -4   1   5 2261.25 180.290   3
  -4   1   4 993.118 125.678   2
  -4   1   4 828.050 118.835   3
  -4   1   4 881.951 159.100   1
  -4   1   3-3.97976 40.7445   1
  -4   1   3 33.9410 35.5558   3
  -4   1   3-41.1855 43.1568   2
  -4   1   2 565.567 123.880   1
  -4   1   2 560.568 107.800   3
  -4   1   2 561.213 103.931   2
  -4   1   1 3054.99 260.876   2
  -4   1   1 3124.27 263.063   3
  -4   1   0 3480.25 290.416   2
  -4   1   0 3985.95 312.895   3
  -4   1  -1 42.7638 42.6121   2
   4  -1   1 58.3287 62.5743   3
  -4   1  -1 14.0054 42.1101   3
   4  -1   2 85.1668 43.2591   3
  -4   1  -2 257.858 86.8749   3
   4  -1   3 4669.41 372.294   3
  -4   1  -3 5219.38 399.469   3
   4  -1   4-29.8379 41.1806   3
   4  -1   5 1016.36 188.413   3
   4  -1   6 1683.95 252.312   3
  -4   1  -6 1800.31 229.822   1
   4  -1   7 442.292 133.107   3
   4  -1   8 137.086 94.0501   3
   4  -1   9 1359.68 250.939   3
   4  -1  10 749.621 205.825   3
   4  -1  11 327.292 131.737   3
   4  -1  12 166.846 124.943   3
   4  -1  13 311.517 148.059   3
   4  -1  14 946.105 247.272   3
  -4   0  13-140.497 144.466   1
  -4   0  12 1008.69 256.486   1
  -4   0  11 11.4669 75.9153   1
  -4   0  10 3302.67 412.650   1
  -4   0   9 2682.97 360.106   1
  -4   0   8 7718.07 581.032   1
  -4   0   7 2562.33 323.186   1
  -4   0   6 215.498 108.910   1
  -4   0   6 136.731 29.1225   2
  -4   0   5 23.5854 24.1077   2
  -4   0   5 47.8743 31.7583   3
  -4   0   5-38.4981 70.1913   1
  -4   0   4 555.259 87.6223   2
  -4   0   4 525.956 136.850   1
  -4   0   4 457.944 82.5533   3
  -4   0   3 833.965 122.542   3
  -4   0   3 732.138 155.446   1
  -4   0   3 804.909 110.037   2
   4   0  -2 14.0395 44.0509   3
  -4   0   2 396.254 107.762   1
  -4   0   2 313.354 75.8009   3
  -4   0   2 428.622 93.2109   2
  -4   0   1 833.321 126.560   2
  -4   0   1 925.866 143.640   3
   4   0  -1 632.999 112.940   3
  -4   0   0 938.836 150.505   3
  -4   0  -1 172.063 83.8923   3
   4   0   2 44.0983 47.0321   3
  -4   0  -2 26.8542 42.2341   3
   4   0   3 1874.56 227.264   3
  -4   0  -3 2405.92 269.339   3
   4   0   4 18.4030 59.4706   3
   4   0   5 697.139 154.218   3
   4   0   6 85.5213 57.5653   3
   4   0   7 1979.45 277.075   3
   4   0   8 130.309 89.9458   3
   4   0   9 2214.01 309.871   3
   4   0  10 3727.45 413.831   3
   4   0  11 121.824 88.2694   3
   4   0  12 45.1461 73.5648   3
   4   0  13 810.041 228.926   3
   4   0  14 697.734 217.414   3
  -4  -1  13 105.301 98.3225   1
  -4  -1  12 2382.08 384.415   1
  -4  -1  11-16.3111 75.2921   1
  -4  -1  10 472.368 164.908   1
  -4  -1   9 4991.86 501.620   1
  -4  -1   8 2389.72 330.286   1
  -4  -1   7 318.627 140.363   1
  -4  -1   6 3458.58 374.823   1
  -4  -1   5 45.4603 16.1559   3
  -4  -1   5 52.2822 19.3733   2
  -4  -1   5 43.9468 65.6101   1
  -4  -1   4 1937.44 262.153   1
  -4  -1   4 1934.55 134.360   2
  -4  -1   4 1886.39 142.009   3
  -4  -1   3 8226.65 521.488   1
  -4  -1   3 7605.18 311.061   2
   4   1  -3 7682.25 317.257   3
  -4  -1   3 7554.56 326.927   3
  -4  -1   2 215.711 59.8834   2
  -4  -1   2 186.616 76.1901   1
   4   1  -2 213.137 61.8541   3
  -4  -1   2 266.764 70.3423   3
   4   1  -1-32.6484 42.1726   3
  -4  -1   1 660.733 114.415   3
  -4  -1   0 1636.86 192.526   3
  -4  -1  -1 817.088 145.171   3
  -4  -1  -2 331.340 96.7197   3
   4   1   3 2639.37 264.350   3
  -4  -1  -3 2881.45 291.398   3
   4   1   4 378.906 97.5397   3
  -4  -1  -4 456.883 129.940   3
   4   1   5 8076.03 499.635   3
   4   1   6 25.1358 56.5076   3
   4   1   7 707.424 161.751   3
   4   1   8-45.9590 100.892   3
   4   1   9 458.089 170.660   3
   4   1  10-55.9713 91.1212   3
   4   1  11 5025.58 488.435   3
   4   1  12 505.699 162.843   3
   4   1  13-106.155 102.171   3
   4   1  14 47.7372 90.4723   3
  -4  -2  13-187.223 127.517   1
  -4  -2  12 165.779 89.1484   1
  -4  -2  11 183.554 106.452   1
  -4  -2  10 512.773 183.346   1
  -4  -2   9 1525.17 279.407   1
  -4  -2   8 217.353 132.391   1
  -4  -2   7 235.997 113.324   1
  -4  -2   6 1180.99 229.774   1
  -4  -2   5 4866.16 439.947   1
  -4  -2   4 1952.61 274.544   1
  -4  -2   4 1717.22 107.122   2
   4   2  -4 1825.06 129.453   3
  -4  -2   3 1201.49 115.261   2
   4   2  -3 1151.88 119.396   3
  -4  -2   3 1358.73 137.619   3
  -4  -2   3 1109.08 201.396   1
  -4  -2   2 3171.44 326.333   1
   4   2  -2 2939.87 210.071   3
  -4  -2   2 3238.07 232.021   3
  -4  -2   1 7731.21 384.953   3
   4   2  -1-9.02561 25.7614   3
  -4  -2   0 534.320 109.297   3
  -4  -2  -1 1261.59 175.473   3
  -4  -2  -2 1153.23 177.328   3
   4   2   3 80.0128 62.3902   3
  -4  -2  -3 34.7345 40.9067   3
   4   2   4 101.591 72.9153   3
  -4  -2  -4 66.4254 56.4857   3
   4   2   5 5569.24 413.577   3
   4   2   6 100.766 55.4349   3
   4   2   7-41.5986 75.4896   3
   4   2   8 58.8979 72.8230   3
   4   2   9 866.153 199.008   3
   4   2  10 2473.17 330.260   3
   4   2  11 1873.05 300.955   3
   4   2  12 390.250 148.289   3
   4   2  13 34.9524 87.2133   3
   4   2  14 78.6874 73.5419   3
   4   2  15 864.146 240.025   3
  -4  -3  12 28.1340 82.2509   1
  -4  -3  11 307.934 147.386   1
  -4  -3  10 113.525 114.750   1
  -4  -3   9 469.500 179.868   1
  -4  -3   8 249.686 119.461   1
  -4  -3   7 3452.43 406.740   1
  -4  -3   6 55.8553 82.0517   1
   4   3  -5 353.454 39.2362   3
  -4  -3   5 321.259 118.061   1
  -4  -3   4 829.255 64.3529   2
  -4  -3   4 831.292 68.5746   2
   4   3  -4 814.232 87.7408   3
  -4  -3   4 890.376 194.894   1
  -4  -3   3 129.483 37.0781   2
  -4  -3   3 171.413 90.5872   1
   4   3  -3 147.629 50.1844   3
  -4  -3   2 355.583 86.3876   3
  -4  -3   2 487.544 141.784   1
   4   3  -2 285.995 71.6370   3
  -4  -3   1 1002.30 145.118   3
   4   3  -1-6.41537 40.7926   3
  -4  -3   0 33.1035 44.7892   3
  -4  -3  -1 56.2102 56.5797   3
   4   3   2 2860.82 261.029   3
  -4  -3  -2 3156.13 294.984   3
   4   3   3 1949.23 229.068   3
  -4  -3  -3 2554.44 274.990   3
  -4  -3  -4 1397.15 212.318   3
   4   3   4 1245.85 191.075   3
   4   3   5 5560.39 417.603   3
   4   3   6 2706.52 304.611   3
   4   3   7 1674.92 252.013   3
   4   3   8 392.230 132.716   3
   4   3   9 5858.63 499.917   3
   4   3  10 7045.70 566.646   3
   4   3  11 200.251 139.123   3
   4   3  12 399.577 163.521   3
   4   3  13-24.6835 67.5061   3
   4   3  14 947.105 240.896   3
   4   3  15-64.3966 76.1014   3
  -4  -4  11 217.547 106.108   1
  -4  -4  10 226.000 127.889   1
  -4  -4   9 162.015 97.2848   1
  -4  -4   8 127.393 87.3806   1
  -4  -4   7 751.591 212.161   1
  -4  -4   6-96.0854 118.550   1
  -4  -4   5 3053.48 373.411   1
   4   4  -5 2882.82 147.139   3
  -4  -4   4 562.897 56.9027   2
  -4  -4   4 688.100 167.490   1
   4   4  -4 518.380 77.6177   3
  -4  -4   3 540.074 74.2448   2
  -4  -4   3 633.153 163.073   1
   4   4  -3 469.905 84.8333   3
  -4  -4   2 29.1368 29.2273   2
  -4  -4   2 7.95825 59.2534   1
   4   4  -2-20.6645 45.9023   3
  -4  -4   1 35.4726 25.3837   2
  -4  -4   0 1739.33 204.280   3
  -4  -4  -1 591.213 137.961   3
   4   4   2 1713.51 209.072   3
  -4  -4  -2 2106.04 252.884   3
  -4  -4  -3 234.631 91.9094   3
   4   4   3 166.789 73.0285   3
   4   4   4 53.3996 63.1609   3
   4   4   5 215.074 91.2500   3
   4   4   6 547.206 140.342   3
   4   4   7 354.547 118.646   3
   4   4   8 5540.32 468.387   3
   4   4   9 403.226 136.438   3
   4   4  10 2329.90 327.082   3
   4   4  11 804.266 212.710   3
   4   4  12 1795.40 307.876   3
   4   4  13-112.576 93.1329   3
   4   4  14 306.711 157.136   3
  -4  -5  11-44.5931 125.279   1
  -4  -5  10-179.264 164.026   1
  -4  -5   9 761.821 233.128   1
  -4  -5   8-6.38063 75.3223   1
  -4  -5   7 114.218 75.5397   1
  -4  -5   6 685.767 192.444   1
   4   5  -5 25.6380 26.7675   3
  -4  -5   5 224.393 126.781   1
  -4  -5   4 262.604 49.7552   2
  -4  -5   4 291.784 138.080   1
   4   5  -4 246.985 58.5812   3
  -4  -5   3 51.0550 25.2341   2
   4   5  -3-34.2428 38.6973   3
  -4  -5   2 1013.90 121.593   2
  -4  -5   2 885.729 182.039   1
  -4  -5   1 1882.06 182.699   2
  -4  -5   0 7665.46 393.706   2
  -4  -5  -1 1252.85 169.727   2
   4   5   1 1214.76 177.053   3
   4   5   2 1911.60 234.764   3
  -4  -5  -2 2140.42 263.398   3
   4   5   3 828.737 157.932   3
   4   5   4 860.423 169.627   3
   4   5   5 2131.35 268.736   3
   4   5   6 1786.29 253.465   3
   4   5   7 1962.34 275.183   3
   4   5   8 3409.18 378.056   3
   4   5   9 901.608 189.469   3
   4   5  10 416.118 140.237   3
   4   5  11 223.173 103.071   3
   4   5  12 879.141 224.058   3
   4   5  13 193.732 126.323   3
   4   5  14 1075.15 263.634   3
  -4  -6  10 52.5315 87.8495   1
  -4  -6   9 346.513 156.792   1
  -4  -6   8 131.133 109.964   1
  -4  -6   7-28.3183 107.574   1
  -4  -6   6 68.7720 85.8117   1
   4   6  -5-3.83724 22.6019   3
  -4  -6   5-1.03757 71.0374   1
  -4  -6   4 61.3744 87.3371   1
   4   6  -4 155.957 53.0090   3
  -4  -6   3 175.259 100.654   1
  -4  -6   2 567.670 103.934   2
  -4  -6   2 527.641 157.875   1
  -4  -6   1 1798.95 188.516   2
   4   6  -1 1579.34 200.077   3
  -4  -6   0 629.558 121.804   2
   4   6   0 511.199 125.452   3
  -4  -6  -1 546.622 115.655   2
   4   6   1 443.318 114.758   3
  -4  -6  -2 680.779 135.055   2
   4   6   2 536.900 133.384   3
   4   6   3 4.23593 47.6987   3
   4   6   4 1411.99 221.242   3
   4   6   5 1203.82 213.601   3
   4   6   6 263.636 124.526   3
   4   6   7 471.941 138.560   3
   4   6   8 420.601 134.065   3
   4   6   9 140.448 85.5206   3
   4   6  10 560.549 162.973   3
   4   6  11 508.433 181.478   3
   4   6  12 541.443 188.823   3
   4   6  13 311.025 151.948   3
   4   6  14 162.627 115.064   3
  -4  -7   9 64.0586 123.877   1
  -4  -7   8 42.2523 83.0210   1
  -4  -7   7 219.796 134.340   1
  -4  -7   6 160.131 108.327   1
  -4  -7   5 110.168 113.292   1
  -4  -7   4 68.1154 69.8488   1
  -4  -7   3 59.7551 69.8228   1
  -4  -7   2-28.2831 64.7745   1
   4   7  -2-24.1860 52.1595   3
  -4  -7   1 2514.88 328.995   1
  -4  -7   1 2735.49 248.453   2
   4   7  -1 2492.01 267.187   3
  -4  -7   0 71.4375 33.1991   2
   4   7   0 275.562 91.3962   3
  -4  -7  -1 875.772 156.279   2
   4   7   1 919.096 176.933   3
   4   7   2 1563.37 233.583   3
   4   7   3 175.797 82.6171   3
   4   7   4 767.009 180.788   3
   4   7   5 1487.46 251.584   3
   4   7   6 24.1295 68.2889   3
   4   7   7 10.9887 83.5426   3
   4   7   8 1124.51 232.162   3
   4   7   9 203.471 98.1157   3
   4   7  10 11.9223 100.930   3
   4   7  11 32.8658 56.5486   3
   4   7  12 143.293 102.260   3
   4   7  13 390.350 177.069   3
  -4  -8   8-203.903 132.637   1
  -4  -8   7-404.340 173.058   1
  -4  -8   6-92.3618 131.417   1
  -4  -8   5 169.481 112.018   1
  -4  -8   4 756.532 209.762   1
   4   8  -4 660.820 135.831   3
  -4  -8   3 1362.93 266.937   1
   4   8  -3 1312.89 199.174   3
  -4  -8   2 919.815 219.270   1
   4   8  -2 689.000 150.081   3
  -4  -8   1-79.5459 98.9699   1
   4   8  -1 8.42963 53.7177   3
   4   8   0 218.012 97.0650   3
   4   8   1-16.3370 65.7432   3
   4   8   2 3245.46 349.448   3
   4   8   3-29.4530 49.9651   3
   4   8   4 96.0839 88.4918   3
   4   8   5 1.69919 82.0441   3
   4   8   6-47.8652 90.4215   3
   4   8   7 729.759 188.930   3
   4   8   8 108.507 109.818   3
   4   8   9 51.0104 93.8619   3
   4   8  10-73.4639 96.0423   3
   4   8  11 345.820 144.698   3
   4   8  12 78.5552 101.624   3
  -4  -9   6 76.1799 92.1389   1
  -4  -9   5 120.754 97.5698   1
  -4  -9   4 843.202 235.103   1
  -4  -9   3 260.962 133.047   1
   4   9  -3 96.7022 58.8333   3
  -4  -9   2 540.229 191.546   1
   4   9  -2 686.563 154.940   3
  -4  -9   1 658.818 179.926   1
   4   9  -1 651.356 155.910   3
  -4  -9   0 851.246 207.116   1
   4   9   0 877.657 186.761   3
   4   9   1 126.818 80.1846   3
   4   9   2 2019.75 294.835   3
   4   9   3 179.420 127.418   3
   4   9   4 646.900 184.453   3
   4   9   5 379.576 140.224   3
   4   9   6 213.666 131.982   3
   4   9   7 956.851 225.850   3
   4   9   8-55.2707 97.7840   3
   4   9   9-1.11592 68.9460   3
   4   9  10 9.93726 93.8984   3
   4   9  11 70.4381 59.1115   3
  -4 -10   5 114.843 111.374   1
  -4 -10   4 397.827 170.399   1
  -4 -10   3 77.0702 80.5105   1
  -4 -10   2 79.4127 103.197   1
   4  10  -2 196.310 97.2382   3
  -4 -10   1 288.816 131.086   1
   4  10  -1 469.194 139.810   3
  -4 -10   0 1298.68 257.592   1
   4  10   0 985.380 212.842   3
   4  10   1 301.323 120.881   3
   4  10   2-24.6939 63.7372   3
   4  10   3 771.447 198.184   3
   4  10   4 276.755 136.506   3
   4  10   5 12.1562 57.1753   3
   4  10   6 338.275 157.825   3
   4  10   7 262.782 137.439   3
   4  10   8 91.1069 101.528   3
   4  10   9 31.0704 68.6176   3
   4  10  10 167.610 106.447   3
  -4 -11   3 232.632 169.193   1
  -4 -11   2-165.805 115.622   1
  -4 -11   1 198.825 130.110   1
   4  11  -1 166.543 108.006   3
  -4 -11   0-12.2240 75.1436   1
   4  11   0 57.3983 82.3164   3
  -4 -11  -1-2.79774 70.7802   1
   4  11   1-70.8244 80.1395   3
   4  11   2 46.2666 81.1510   3
   4  11   3 139.947 112.849   3
   4  11   4 64.4646 96.9828   3
   4  11   5 1209.29 257.066   3
   4  11   6-44.1676 78.4863   3
   4  11   7 445.591 185.279   3
   4  11   8 199.429 142.269   3
  -4 -12   1-23.0711 99.4076   1
  -4 -12   0 54.9271 124.647   1
   4  12   0 115.372 98.6174   3
  -4 -12  -1-104.229 119.712   1
   4  12   1 62.2444 73.9414   3
  -4 -12  -2-154.326 112.539   1
   4  12   2-271.084 135.531   3
   4  12   3 534.302 184.064   3
   4  12   4-88.0760 61.7442   3
   4  12   5 64.3206 88.4493   3
  -5   9  10 261.533 131.058   2
  -5   9   9 384.824 172.593   2
  -5   9   8-45.9039 66.1089   2
  -5   9   7-95.8545 85.2681   2
  -5   9   6 953.117 233.057   2
  -5   9   5 190.973 95.6449   2
  -5   9   4 8.66059 69.4987   2
  -5   9   3-0.55039 57.1859   2
  -5   9   2-157.688 118.188   2
  -5   9   1 92.0657 80.8613   2
  -5   8  10 126.082 86.6215   2
  -5   8   9 91.1156 75.4936   2
  -5   8   8-42.4846 69.6011   2
  -5   8   7 56.7681 72.8578   2
  -5   8   6 40.0553 90.3658   2
  -5   8   5 894.932 207.122   2
  -5   8   4 128.071 98.2863   2
  -5   8   3 29.7211 104.707   2
  -5   8   2 436.062 166.778   2
  -5   8   1 105.283 79.2660   2
  -5   8   0-1.08084 68.6895   2
  -5   8  -1 8.32337 97.4314   2
  -5   8  -2 40.6983 92.5593   2
  -5   7  10 433.787 136.356   2
  -5   7   9-52.4175 82.6796   2
  -5   7   8 150.489 92.6728   2
  -5   7   7 134.052 92.7089   2
  -5   7   6-60.9552 79.3155   2
  -5   7   5 163.870 95.8981   2
  -5   7   4 117.645 72.7587   2
  -5   7   3 16.9670 77.6017   2
  -5   7   2-44.3910 59.4034   2
  -5   7   1 1191.42 242.448   2
  -5   7   0-38.3735 59.2699   2
  -5   7  -1-7.13181 79.2420   2
  -5   7  -2 82.1721 104.430   2
  -5   7  -3-102.371 106.373   2
  -5   7  -4 151.169 78.2389   2
  -5   7  -5 1148.30 262.354   2
  -5   6  13 362.676 160.913   1
  -5   6  12 649.783 203.845   1
  -5   6  11 175.508 108.113   1
  -5   6  10 418.309 141.707   1
  -5   6   9 262.040 114.857   1
  -5   6   9 64.3026 76.6746   2
  -5   6   8 37.3269 73.7029   1
  -5   6   8 19.1525 64.9476   2
  -5   6   7 241.067 113.903   2
  -5   6   7-75.5747 45.0757   1
  -5   6   6-80.1632 74.9203   2
  -5   6   6-23.4660 52.7760   1
  -5   6   5 277.064 103.551   2
  -5   6   5 279.476 89.9839   1
  -5   6   4 1315.87 229.543   2
  -5   6   3 350.282 129.860   2
  -5   6   2 188.750 111.195   2
  -5   6   1 444.694 151.524   2
  -5   6   0 334.924 130.025   2
  -5   6  -1 3.28301 84.4244   2
  -5   6  -2-16.9939 76.5648   2
  -5   6  -3-15.6367 71.0507   2
  -5   6  -4 2973.75 392.508   2
  -5   6  -5-46.3430 100.424   2
  -5   6  -6 84.0047 89.4227   2
  -5   5  13 1720.19 331.224   1
  -5   5  12 30.7146 86.6929   1
  -5   5  11-53.5187 51.2481   1
  -5   5  10 164.617 102.704   1
  -5   5   9 243.807 98.7445   2
  -5   5   9 168.003 96.6698   1
  -5   5   8 1057.26 186.482   2
  -5   5   8 1251.15 222.567   1
  -5   5   7 316.632 112.678   2
  -5   5   7 309.838 102.225   1
  -5   5   6-7.28051 50.4768   2
  -5   5   6-46.4994 64.8205   1
  -5   5   5 168.021 82.0897   1
  -5   5   5 227.167 98.6421   2
  -5   5   4 629.610 139.238   1
  -5   5   4 342.352 109.682   2
  -5   5   3 15.6837 49.2948   1
  -5   5   3 15.8695 62.1774   2
  -5   5   2-6.66869 33.8053   1
  -5   5   2 39.2581 68.1314   2
  -5   5   1-56.4961 86.7593   2
  -5   5   1 2.57320 29.2190   1
  -5   5   0 29.6954 66.4852   2
  -5   5   0 57.3873 47.5412   1
  -5   5  -1 3768.99 255.403   1
  -5   5  -1 3212.56 363.167   2
  -5   5  -2 385.890 149.028   2
  -5   5  -3 70.3500 55.7905   2
  -5   5  -4 494.364 166.426   2
  -5   5  -5 1631.67 287.935   2
  -5   5  -6 191.005 119.366   2
  -5   5  -7 77.3359 110.421   2
  -5   5  -8 177.134 120.049   2
  -5   4  13 297.202 170.235   1
  -5   4  12 101.213 122.286   1
  -5   4  11 225.957 115.415   1
  -5   4  10-14.5824 61.9705   1
  -5   4   9 158.443 90.2816   2
  -5   4   9-80.3117 109.634   1
  -5   4   8 472.046 113.115   2
  -5   4   8 433.435 146.121   1
  -5   4   7-112.096 110.472   1
  -5   4   7 105.433 64.4108   2
  -5   4   6 4723.95 365.417   2
  -5   4   6 4452.53 393.006   1
  -5   4   5 532.443 125.960   1
  -5   4   5 429.680 115.134   2
  -5   4   4 1387.16 203.156   1
  -5   4   4 1255.09 198.552   2
  -5   4   3 699.055 144.300   1
  -5   4   3 586.867 150.531   2
  -5   4   2 763.432 172.085   2
  -5   4   2 589.095 127.327   1
  -5   4   1 142.289 70.1236   2
  -5   4   1 173.594 73.8779   1
  -5   4   0 125.441 63.8780   1
  -5   4   0 122.423 70.0327   2
  -5   4  -1 2984.83 255.741   1
  -5   4  -1 2431.75 309.601   2
  -5   4  -2 336.454 105.757   2
  -5   4  -3 32.9803 55.9085   2
  -5   4  -4-107.805 97.5692   2
  -5   4  -5 845.094 200.282   2
  -5   4  -6 1824.12 304.198   2
  -5   4  -7 765.682 205.873   2
  -5   4  -8 194.315 106.821   2
  -5   4  -9 269.646 147.804   2
  -5   3  13 11.3264 93.2429   1
  -5   3  12-20.9035 88.1222   1
  -5   3  11 594.448 175.278   1
  -5   3  10 152.305 110.379   1
  -5   3   9-72.0285 100.545   1
  -5   3   8 122.298 51.5404   2
  -5   3   8 156.221 102.547   1
  -5   3   7 838.553 190.308   1
  -5   3   7 434.593 100.298   2
  -5   3   6 564.751 156.746   1
  -5   3   6 509.778 109.422   2
  -5   3   5 1595.55 231.783   1
  -5   3   5 1648.03 210.829   2
  -5   3   5 1958.91 231.625   3
  -5   3   4 125.628 82.6899   1
  -5   3   4 161.613 81.2728   2
  -5   3   4 292.565 100.962   3
  -5   3   3 1893.46 241.710   1
  -5   3   3 2072.81 247.464   2
  -5   3   3 2019.84 248.427   3
  -5   3   2 485.724 128.484   2
  -5   3   2 383.855 113.376   1
  -5   3   1 8769.72 490.364   1
  -5   3   1 8919.10 530.039   2
  -5   3   0 1138.06 176.474   1
  -5   3   0 792.447 170.559   2
  -5   3  -1 17205.2 780.405   2
  -5   3  -2 73.2298 61.6695   2
  -5   3  -3 95.1223 86.6230   2
  -5   3  -4 1488.93 249.851   2
  -5   3  -5 582.606 164.788   2
  -5   3  -6-16.6814 63.5962   2
  -5   3  -7 156.560 119.694   2
  -5   3  -8 58.9284 91.7409   2
  -5   3  -9 1.77276 78.6324   2
  -5   3 -10 213.712 133.122   2
  -5   2  13-68.1841 88.9794   1
  -5   2  12 601.251 181.345   1
  -5   2  11 151.476 108.259   1
  -5   2  10 277.509 137.753   1
  -5   2   9 181.845 97.4347   1
  -5   2   8 586.961 165.508   1
  -5   2   7 265.273 118.888   1
  -5   2   7 290.722 70.9288   2
  -5   2   6 77.1233 68.6191   1
  -5   2   6-76.4626 76.1734   2
  -5   2   5-103.254 92.4811   1
  -5   2   5 60.0406 52.2996   2
  -5   2   5 12.6928 41.8963   3
  -5   2   4 29.9017 41.0916   2
  -5   2   4 87.2183 61.8658   3
  -5   2   4-6.65630 49.8855   1
  -5   2   3 67.9650 63.9021   3
  -5   2   3 8.90524 51.9599   2
  -5   2   3 128.066 77.9038   1
  -5   2   2 215.385 100.754   1
  -5   2   2 266.235 95.0196   3
  -5   2   2 293.370 98.9303   2
  -5   2   1 13599.7 640.761   1
  -5   2   1 12387.0 603.725   2
  -5   2   0 4114.93 356.390   2
  -5   2  -1-69.1425 71.1812   2
  -5   2  -2 4878.05 418.590   2
  -5   2  -3 384.350 125.510   2
  -5   2  -4 577.653 167.093   2
   5  -2   4 788.167 182.142   3
  -5   2  -5 2225.27 317.296   2
   5  -2   5 2224.78 310.808   3
  -5   2  -6 273.761 114.447   2
   5  -2   6 329.804 116.586   3
  -5   2  -7 654.446 179.013   2
   5  -2   7 371.281 123.785   3
  -5   2  -8 1365.43 280.849   2
   5  -2   8 1296.08 258.887   3
  -5   2  -9 179.877 114.900   2
   5  -2   9 56.1041 83.9932   3
  -5   2 -10 188.513 114.651   2
   5  -2  10 56.8564 97.2413   3
  -5   2 -11 1769.27 328.023   2
   5  -2  11 1915.29 343.818   3
  -5   1  12 56.1903 94.0176   1
  -5   1  11 402.992 153.108   1
  -5   1  10 389.528 160.976   1
  -5   1   9 510.524 184.941   1
  -5   1   8 270.221 150.867   1
  -5   1   7-73.9434 80.3685   1
  -5   1   7-12.2234 25.8919   2
  -5   1   6 160.360 101.545   1
  -5   1   6 45.9357 31.5685   2
  -5   1   5 2336.77 306.712   1
  -5   1   5 1941.62 185.114   2
  -5   1   5 2143.14 201.560   3
  -5   1   4 2142.05 284.210   1
  -5   1   4 2816.07 242.313   2
  -5   1   4 2622.55 237.293   3
  -5   1   3 16.7452 58.5739   1
  -5   1   3-3.95645 48.3628   3
  -5   1   3-43.4212 65.6665   2
  -5   1   2 1037.39 191.124   1
  -5   1   2 1141.33 173.288   3
  -5   1   2 1083.89 162.236   2
  -5   1   1 5450.66 420.819   1
  -5   1   1 5304.39 380.089   2
  -5   1   1 5459.25 398.313   3
  -5   1   0 44.7720 52.1237   3
  -5   1   0 28.5937 46.3577   2
  -5   1  -1 630.286 145.358   2
   5  -1   1 404.673 124.603   3
  -5   1  -2 3598.07 349.286   2
   5  -1   2 3784.85 353.271   3
   5  -1   3 1503.99 231.308   3
   5  -1   4 3354.17 357.620   3
   5  -1   5 1134.36 210.087   3
   5  -1   6 165.125 126.005   3
   5  -1   7 5749.08 516.363   3
   5  -1   8 880.106 219.479   3
   5  -1   9 137.498 112.426   3
   5  -1  10 478.241 183.138   3
   5  -1  11 214.105 147.404   3
  -5   0  12 172.405 108.160   1
  -5   0  11 141.115 107.401   1
  -5   0  10-131.156 61.6045   1
  -5   0   9 188.444 123.622   1
  -5   0   8 902.776 219.135   1
  -5   0   7 221.420 121.704   1
  -5   0   6 633.995 80.9792   2
  -5   0   6 528.225 152.848   1
  -5   0   5 2332.35 320.502   1
  -5   0   5 1925.29 163.279   2
  -5   0   5 1939.64 170.311   3
  -5   0   4 1503.21 163.049   2
  -5   0   4 1624.36 177.051   3
  -5   0   4 1628.50 261.014   1
  -5   0   3 1075.71 148.439   2
  -5   0   3 1028.50 151.365   3
  -5   0   3 804.620 167.856   1
  -5   0   2 1753.34 259.872   1
  -5   0   2 1830.23 203.697   2
  -5   0   2 1585.00 199.279   3
   5   0  -1 38.1891 53.7561   3
  -5   0   1 84.0217 43.0876   3
  -5   0   1 5.67488 32.2781   2
  -5   0   0 131.117 67.6999   2
   5   0   0 91.5537 69.3731   3
  -5   0   0 73.9437 47.8069   3
   5   0   1 8041.25 482.761   3
   5   0   2 520.236 133.297   3
   5   0   3 50.5785 63.6907   3
   5   0   4 1082.38 203.088   3
   5   0   5 4074.14 391.420   3
   5   0   6 198.047 103.003   3
   5   0   7 225.880 110.688   3
   5   0   8 233.233 126.252   3
   5   0   9 620.960 188.587   3
   5   0  10-57.8879 106.109   3
   5   0  11 183.437 113.009   3
   5   0  12 608.426 193.151   3
  -5  -1  11 120.747 157.271   1
  -5  -1  10-28.4416 125.537   1
  -5  -1   9 328.573 168.063   1
  -5  -1   8 170.237 111.231   1
  -5  -1   7 1374.24 267.223   1
  -5  -1   6 96.8275 81.6801   1
  -5  -1   5 350.721 59.1266   2
  -5  -1   5 509.238 155.068   1
  -5  -1   4 1977.76 294.657   1
  -5  -1   4 1731.49 154.839   2
  -5  -1   4 1547.65 159.465   3
  -5  -1   3-31.6929 68.6273   1
  -5  -1   3 133.020 57.8515   2
  -5  -1   3-1.62625 52.8222   3
  -5  -1   2 1429.64 174.868   2
  -5  -1   2 1340.88 180.725   3
  -5  -1   2 1597.72 254.655   1
  -5  -1   1 2279.17 232.736   2
  -5  -1   1 2185.19 243.160   3
   5   1   0 245.458 93.0703   3
  -5  -1   0 279.293 102.731   3
   5   1   1 255.091 86.8140   3
  -5  -1  -1 327.463 106.501   3
   5   1   2 852.353 156.120   3
   5   1   3 3125.04 316.104   3
   5   1   4 1156.86 204.165   3
   5   1   5 729.468 157.595   3
   5   1   6 934.604 200.089   3
   5   1   7-26.4896 87.9542   3
   5   1   8 771.541 189.705   3
   5   1   9 313.874 128.068   3
   5   1  10-28.8629 85.8156   3
   5   1  11 895.133 225.964   3
   5   1  12 19.0000 97.3752   3
  -5  -2  11 788.663 238.422   1
  -5  -2  10-17.8939 84.1010   1
  -5  -2   9 1399.28 294.605   1
  -5  -2   8-3.46476 59.1376   1
  -5  -2   7 5127.66 517.856   1
  -5  -2   6 348.138 149.505   1
  -5  -2   5 645.057 191.343   1
  -5  -2   4 1735.87 138.300   2
  -5  -2   4 1831.37 168.763   3
  -5  -2   4 1556.18 266.184   1
  -5  -2   3 149.571 58.9316   3
   5   2  -3-8.78552 22.2077   3
  -5  -2   3 190.170 102.436   1
  -5  -2   3 220.961 61.5539   2
  -5  -2   2 32.7059 71.1880   1
  -5  -2   2 61.5496 47.6910   3
  -5  -2   1 2820.41 270.206   3
   5   2   0-33.5177 52.7853   3
  -5  -2   0-24.0890 60.8754   3
   5   2   1 1658.30 212.282   3
  -5  -2  -1 1865.58 242.342   3
   5   2   2 521.169 131.345   3
   5   2   3 2653.26 290.440   3
   5   2   4 181.147 107.030   3
   5   2   5 797.001 179.348   3
   5   2   6 1181.54 213.680   3
   5   2   7 457.414 133.657   3
   5   2   8-83.8283 77.3792   3
   5   2   9 436.154 142.871   3
   5   2  10 637.973 187.435   3
   5   2  11 223.845 143.276   3
   5   2  12 679.378 199.416   3
  -5  -3  10 323.911 135.303   1
  -5  -3   9 2075.39 375.491   1
  -5  -3   8 3918.09 487.809   1
  -5  -3   7 478.850 166.098   1
  -5  -3   6 1226.82 256.195   1
  -5  -3   5 10.8073 68.1355   1
   5   3  -4 290.722 62.4019   3
  -5  -3   4 68.9692 50.8753   1
  -5  -3   4 327.168 54.2160   2
  -5  -3   3 633.129 94.2727   2
  -5  -3   3 741.307 181.913   1
  -5  -3   2 911.287 202.933   1
  -5  -3   2 1395.82 181.423   3
  -5  -3   1 154.530 72.3561   3
   5   3   0 2276.65 243.281   3
  -5  -3   0 2126.73 243.756   3
   5   3   1 64.4094 46.2497   3
  -5  -3  -1 113.275 74.7119   3
   5   3   2 5879.81 421.356   3
   5   3   3 312.213 102.908   3
   5   3   4 330.512 106.624   3
   5   3   5 412.099 139.774   3
   5   3   6 169.239 79.3804   3
   5   3   7 6.11344 63.7223   3
   5   3   8 2061.57 310.249   3
   5   3   9 575.141 159.387   3
   5   3  10 244.790 128.417   3
   5   3  11 169.492 91.5726   3
   5   3  12 75.2406 75.0462   3
  -5  -4   9 580.779 189.853   1
  -5  -4   8 519.257 169.504   1
  -5  -4   7-67.2433 72.9063   1
  -5  -4   6 708.728 207.367   1
  -5  -4   5 1248.69 262.022   1
  -5  -4   4 2366.85 348.645   1
   5   4  -4 2542.97 188.013   3
  -5  -4   3 545.106 186.309   1
   5   4  -3 493.178 94.7974   3
  -5  -4   2 110.116 39.7984   2
  -5  -4   2 123.809 81.2286   1
  -5  -4   1 4011.09 330.224   3
  -5  -4   0-36.1098 62.8085   3
   5   4   0 11.6373 43.3469   3
  -5  -4  -1 141.646 68.4007   3
   5   4   1 103.174 73.5922   3
   5   4   2 2281.12 266.535   3
   5   4   3 19.9895 46.4634   3
   5   4   4 70.7077 42.3650   3
   5   4   5-18.2141 51.5074   3
   5   4   6 1367.52 241.463   3
   5   4   7 463.349 144.226   3
   5   4   8 701.598 185.710   3
   5   4   9 196.096 82.8150   3
   5   4  10 1537.88 289.725   3
   5   4  11 184.564 120.586   3
   5   4  12 1508.99 304.913   3
  -5  -5   8 530.066 204.360   1
  -5  -5   7 476.196 163.519   1
  -5  -5   6-119.038 94.4160   1
  -5  -5   5 94.4351 61.6357   1
   5   5  -4 29.5322 24.3183   3
  -5  -5   4 383.957 167.760   1
  -5  -5   3 747.558 206.183   1
  -5  -5   2 1103.45 242.249   1
   5   5  -1 243.074 78.0087   3
  -5  -5   0 1021.35 154.721   2
   5   5   0 909.837 160.547   3
   5   5   1-39.7245 67.4558   3
   5   5   2 142.612 83.0117   3
   5   5   3-32.7794 80.8096   3
   5   5   4 271.432 113.648   3
   5   5   5-14.7856 84.8483   3
   5   5   6 5400.87 474.494   3
   5   5   7 124.300 101.313   3
   5   5   8 437.035 162.239   3
   5   5   9 146.308 124.741   3
   5   5  10 1192.85 252.928   3
   5   5  11 872.501 222.470   3
   5   5  12 560.447 193.270   3
  -5  -6   7 558.190 206.135   1
  -5  -6   6 322.252 137.414   1
  -5  -6   5 837.914 229.139   1
  -5  -6   4 72.7587 96.3923   1
  -5  -6   3 1.10529 54.0132   1
  -5  -6   2-47.3235 85.8391   1
   5   6  -2-57.3352 44.2301   3
  -5  -6   1 1069.86 223.071   1
   5   6  -1 891.411 162.877   3
   5   6   0 999.019 178.328   3
   5   6   1-78.9868 80.1094   3
   5   6   2 60.7000 57.2991   3
   5   6   3 781.790 169.499   3
   5   6   4 110.534 88.2888   3
   5   6   5 245.192 108.273   3
   5   6   6 1044.22 207.161   3
   5   6   7 125.811 109.920   3
   5   6   8 577.765 185.956   3
   5   6   9 88.5357 121.999   3
   5   6  10 1078.85 248.198   3
   5   6  11 2034.17 348.427   3
   5   6  12-82.0306 125.820   3
  -5  -7   6 261.789 112.138   1
  -5  -7   5 138.812 110.749   1
  -5  -7   4-29.8915 72.6993   1
  -5  -7   3 1431.62 284.781   1
  -5  -7   2 241.459 118.021   1
   5   7  -2 113.438 65.0685   3
  -5  -7   1 526.077 169.046   1
   5   7  -1 387.733 116.549   3
   5   7   0 153.035 76.2178   3
   5   7   1-12.1601 54.1078   3
   5   7   2-16.6314 79.5918   3
   5   7   3 603.198 162.104   3
   5   7   4 1042.09 215.503   3
   5   7   5 3.96522 80.0649   3
   5   7   6 122.348 89.5550   3
   5   7   7 796.466 208.802   3
   5   7   8 171.945 123.188   3
   5   7   9 1453.27 275.621   3
   5   7  10-47.3679 102.190   3
   5   7  11 417.045 151.828   3
  -5  -8   5-41.4104 58.3987   1
  -5  -8   4 381.540 150.901   1
  -5  -8   3 240.454 130.745   1
  -5  -8   2-19.1147 98.5700   1
   5   8  -2-70.1431 61.0945   3
  -5  -8   1-86.2149 88.3938   1
   5   8  -1 80.7199 66.8532   3
   5   8   0-96.4488 88.8537   3
   5   8   1 1180.21 217.815   3
   5   8   2 259.727 112.326   3
   5   8   3 585.643 172.026   3
   5   8   4 428.706 143.918   3
   5   8   5 80.3502 81.8164   3
   5   8   6 337.333 124.678   3
   5   8   7-2.59173 59.2374   3
   5   8   8 401.747 154.931   3
   5   8   9 244.395 126.433   3
   5   8  10 508.141 177.914   3
  -5  -9   3-29.6071 77.5981   1
  -5  -9   2 178.318 93.8906   1
  -5  -9   1-127.181 115.049   1
   5   9  -1 116.166 97.8776   3
  -5  -9   0 380.960 181.443   1
   5   9   0 477.925 148.319   3
   5   9   1 104.222 68.4224   3
   5   9   2 145.418 93.9779   3
   5   9   3-22.5299 87.1690   3
   5   9   4 27.3609 68.9004   3
   5   9   5 24.3955 61.0156   3
   5   9   6 176.924 105.514   3
   5   9   7-5.53306 101.664   3
   5   9   8 67.1374 64.7450   3
   5   9   9-30.8279 120.577   3
  -5 -10   0 79.0695 67.6878   1
   5  10   0 241.030 109.058   3
  -5 -10  -1-0.61260 80.3004   1
   5  10   1 93.5731 78.3666   3
   5  10   2 872.463 219.189   3
   5  10   3 113.239 103.715   3
   5  10   4 90.7785 98.8129   3
   5  10   5 85.8075 106.633   3
   5  10   6-159.887 111.877   3
   5  10   7 100.779 126.273   3
   5  11   1 219.806 147.170   3
   5  11   2 73.2649 95.5456   3
   5  11   3 326.813 156.093   3
   5  11   4 62.8204 61.2238   3
   5  11   5-115.810 97.7973   3
  -6   8   7 653.476 189.488   2
  -6   8   6 360.717 152.936   2
  -6   8   5 661.090 198.100   2
  -6   8   4 134.173 116.680   2
  -6   8   3 836.332 224.949   2
  -6   7   7 240.491 118.077   2
  -6   7   6 57.9054 86.1678   2
  -6   7   5 30.5641 62.8121   2
  -6   7   4 123.620 85.1705   2
  -6   7   3 180.179 117.666   2
  -6   7   2 209.181 120.471   2
  -6   7   1 105.661 131.320   2
  -6   7   0 150.872 106.336   2
  -6   6   7 121.305 96.0474   2
  -6   6   6 16.7818 64.0738   2
  -6   6   5 639.718 173.605   2
  -6   6   4 728.179 182.603   2
  -6   6   3 439.323 154.281   2
  -6   6   2 54.9295 90.6481   2
  -6   6   1 348.158 148.732   2
  -6   6   0 65.8554 74.3098   2
  -6   6  -1 38.6100 80.8951   2
  -6   6  -2 508.226 186.214   2
  -6   6  -3-149.266 113.350   2
  -6   5   7 53.3499 74.8907   2
  -6   5   6 156.568 85.4348   2
  -6   5   5 211.876 100.612   2
  -6   5   4 1167.20 218.479   2
  -6   5   3 42.4840 63.9948   2
  -6   5   2 256.516 126.179   2
  -6   5   1 27.5895 101.372   2
  -6   5   0 414.643 144.881   2
  -6   5  -1-18.0724 69.6670   2
  -6   5  -2 545.269 189.789   2
  -6   5  -3 139.450 125.306   2
  -6   5  -4 79.9646 83.1562   2
  -6   5  -5-22.4250 67.7551   2
  -6   4  11-332.214 150.568   1
  -6   4  10 253.662 113.334   1
  -6   4   9 211.008 113.482   1
  -6   4   8-262.146 121.765   1
  -6   4   7-171.449 96.6953   1
  -6   4   6 391.483 123.347   1
  -6   4   6 336.768 117.129   2
  -6   4   5-31.9925 68.3337   1
  -6   4   5-3.57644 61.7728   2
  -6   4   4 107.966 83.1090   1
  -6   4   4 79.2820 80.7356   2
  -6   4   3 236.074 96.3643   1
  -6   4   3 265.670 106.718   2
  -6   4   2 108.116 93.8217   2
  -6   4   2-20.5866 45.4967   1
  -6   4   1 22.3838 53.4668   2
  -6   4   1 171.397 84.8248   1
  -6   4   0 490.690 124.604   1
  -6   4   0 227.262 89.5825   2
  -6   4  -1 789.063 194.752   2
  -6   4  -2 106.055 82.7137   2
  -6   4  -3 232.606 124.621   2
  -6   4  -4 106.106 108.034   2
  -6   4  -5 193.259 117.722   2
  -6   4  -6 540.825 192.621   2
  -6   3  11 352.903 147.691   1
  -6   3  10-289.339 142.102   1
  -6   3   9 595.159 182.846   1
  -6   3   8 103.263 86.0127   1
  -6   3   7 1307.22 251.896   1
  -6   3   6-5.07052 38.3581   1
  -6   3   6 40.6104 43.3403   2
  -6   3   5-58.2991 82.1132   1
  -6   3   5 106.630 65.9311   2
  -6   3   4-27.3829 70.4059   1
  -6   3   4 107.118 58.5253   2
  -6   3   3 196.479 88.5868   2
  -6   3   3 182.008 101.018   1
  -6   3   2 2377.20 292.750   1
  -6   3   2 1993.95 270.366   2
  -6   3   1-73.9452 78.9719   1
  -6   3   1 6.70997 60.9568   2
  -6   3   0 529.903 144.866   1
  -6   3   0 393.631 125.987   2
  -6   3  -1-3.42784 53.1272   1
  -6   3  -1 122.607 113.297   2
  -6   3  -2 35.7014 73.6423   2
  -6   3  -3 553.684 178.598   2
  -6   3  -4 53.6712 73.1934   2
  -6   3  -5 4.89102 75.1317   2
  -6   3  -6 441.920 164.356   2
  -6   3  -7-61.1202 110.710   2
  -6   2  11 590.376 209.583   1
  -6   2  10-156.185 114.510   1
  -6   2   9 90.9923 89.9696   1
  -6   2   8-13.4350 75.5031   1
  -6   2   7 940.518 231.616   1
  -6   2   6 1092.55 228.724   1
  -6   2   5 611.186 169.657   1
  -6   2   5 359.034 98.8616   2
  -6   2   4 45.9205 43.9752   2
  -6   2   4 59.0410 56.9045   1
  -6   2   3 57.4989 48.3186   2
  -6   2   3 199.747 106.210   1
  -6   2   2 360.314 145.653   1
  -6   2   2 238.637 100.501   2
  -6   2   1 624.454 165.894   1
  -6   2   1 681.273 147.501   2
  -6   2   0 82.6009 51.3145   1
  -6   2   0 214.928 103.577   2
  -6   2  -1 3432.98 373.717   2
  -6   2  -2 1505.42 259.860   2
  -6   2  -3 92.7796 53.1351   2
  -6   2  -4-37.8227 100.482   2
  -6   2  -5 1.04099 76.8111   2
  -6   2  -6 729.828 215.757   2
  -6   2  -7 103.623 109.131   2
  -6   2  -8 49.5160 92.3666   2
  -6   1  10 61.4557 94.6261   1
  -6   1   9 587.373 190.006   1
  -6   1   8 260.178 146.379   1
  -6   1   7 108.400 111.246   1
  -6   1   6 14.1219 63.7986   1
  -6   1   5 339.616 93.7433   2
  -6   1   5 510.780 178.035   1
  -6   1   4 2268.09 327.465   1
  -6   1   4 2552.97 254.039   2
  -6   1   3 1093.04 212.209   1
  -6   1   3 1354.61 191.698   2
  -6   1   2 635.919 158.621   1
  -6   1   2 677.940 146.019   2
  -6   1   1 1236.11 238.380   1
  -6   1   1 1245.86 203.753   2
  -6   1   0 776.897 184.397   1
  -6   1   0 741.543 169.684   2
  -6   1  -1 3108.44 352.740   2
  -6   1  -2 564.891 157.633   2
  -6   1  -3 545.271 165.618   2
   6  -1   3 604.498 160.488   3
  -6   1  -4 955.585 208.519   2
   6  -1   4 938.463 212.609   3
  -6   1  -5-40.7812 95.2565   2
   6  -1   5 36.5168 69.5080   3
  -6   1  -6 87.6302 90.6045   2
   6  -1   6 128.678 106.201   3
   6  -1   7 88.7825 117.564   3
   6  -1   8-1.17806 87.0375   3
   6  -1   9 451.672 162.141   3
  -6   0  10 823.714 239.579   1
  -6   0   9 21.0994 64.2854   1
  -6   0   8 308.858 148.553   1
  -6   0   7-63.5051 82.1948   1
  -6   0   6 24.8761 58.9941   1
  -6   0   5-45.3874 58.1948   1
  -6   0   4 939.461 143.967   2
  -6   0   4 823.788 207.003   1
  -6   0   3-32.0733 79.1291   1
  -6   0   3 49.1870 46.4261   2
  -6   0   2 20.7203 57.0637   1
  -6   0   2-46.8033 53.0956   2
  -6   0   1 5441.56 495.227   1
  -6   0   1 5705.21 424.776   2
  -6   0   0 7043.98 492.031   2
   6   0   0 7701.29 513.408   3
  -6   0  -1 882.968 184.067   2
   6   0   1 978.904 189.849   3
  -6   0  -2 2400.75 309.086   2
   6   0   2 2797.98 328.012   3
   6   0   3 80.9211 76.4992   3
   6   0   4 126.921 103.290   3
   6   0   5 824.697 202.918   3
   6   0   6 156.671 96.3335   3
   6   0   7 1207.70 248.512   3
   6   0   8 44.3555 129.940   3
   6   0   9 73.1545 79.5479   3
  -6  -1   9 76.5256 63.6044   1
  -6  -1   8 5.15763 62.3100   1
  -6  -1   7 138.585 106.766   1
  -6  -1   6 211.138 131.707   1
  -6  -1   5 656.555 188.757   1
  -6  -1   4 79.2233 71.4560   1
  -6  -1   3 149.325 106.030   1
  -6  -1   3 243.521 85.4381   2
  -6  -1   2 1392.04 192.157   2
  -6  -1   2 1566.17 273.496   1
  -6  -1   1 103.302 90.0755   1
   6   1  -1 82.1082 62.8938   3
  -6  -1   1 69.5657 58.3662   2
  -6  -1   0 615.471 144.678   2
   6   1   0 900.799 173.550   3
   6   1   1 196.350 86.5440   3
   6   1   2 503.144 138.575   3
   6   1   3 582.278 159.344   3
   6   1   4 3733.75 396.737   3
   6   1   5 136.192 72.1784   3
   6   1   6 8.20112 62.6717   3
   6   1   7 1385.01 269.299   3
   6   1   8 90.5107 109.879   3
   6   1   9 454.691 186.505   3
   6   1  10-9.27333 57.9635   3
  -6  -2   8 39.3502 71.4427   1
  -6  -2   7-10.9742 95.3710   1
  -6  -2   6 266.267 133.232   1
  -6  -2   5 697.840 185.476   1
  -6  -2   4-54.6424 95.3780   1
  -6  -2   3 62.4175 75.1593   1
  -6  -2   2 146.355 104.091   1
   6   2  -2-11.3310 48.7710   3
  -6  -2   2 66.0906 48.2418   2
  -6  -2   1 170.438 77.0939   2
  -6  -2   1 109.177 100.238   1
   6   2  -1 112.827 66.6247   3
   6   2   0 405.893 133.169   3
   6   2   1 702.344 159.275   3
   6   2   2 242.733 88.9800   3
   6   2   3-92.4959 101.620   3
   6   2   4 690.307 174.396   3
   6   2   5 2508.23 331.290   3
   6   2   6 732.837 188.176   3
   6   2   7 204.453 110.157   3
   6   2   8 335.983 152.840   3
   6   2   9-30.8487 103.521   3
   6   2  10 339.685 148.789   3
  -6  -3   8 71.0016 95.8718   1
  -6  -3   7 32.4757 68.0088   1
  -6  -3   6 414.808 183.518   1
  -6  -3   5 154.705 101.482   1
  -6  -3   4-77.5482 105.417   1
  -6  -3   3 617.349 193.398   1
  -6  -3   2 280.652 83.0706   2
  -6  -3   2 300.978 123.099   1
   6   3  -2 520.860 123.445   3
  -6  -3   1 341.296 157.602   1
   6   3  -1 207.432 71.2144   3
   6   3   0 439.882 122.789   3
   6   3   1 121.046 64.2363   3
   6   3   2 204.792 76.6449   3
   6   3   3 2080.55 286.153   3
   6   3   4 106.128 83.8019   3
   6   3   5 325.793 126.803   3
   6   3   6-6.17895 52.1066   3
   6   3   7 89.8527 73.1940   3
   6   3   8-23.5233 99.3786   3
   6   3   9-485.703 170.929   3
   6   3  10-102.364 99.5296   3
  -6  -4   7 192.600 108.316   1
  -6  -4   6 214.631 145.742   1
  -6  -4   5 637.714 204.901   1
  -6  -4   4 53.3902 71.1360   1
  -6  -4   3-28.7211 61.8639   1
  -6  -4   2 324.793 162.302   1
   6   4  -2 575.619 126.499   3
  -6  -4   1 1.66794 66.0639   1
   6   4  -1 66.5741 59.1519   3
   6   4   0 364.118 125.508   3
   6   4   1 510.820 135.315   3
   6   4   2-7.61086 60.6156   3
   6   4   3 266.160 119.448   3
   6   4   4 167.807 100.697   3
   6   4   5 536.424 169.408   3
   6   4   6 274.165 130.689   3
   6   4   7 856.807 224.259   3
   6   4   8 40.0574 97.8072   3
   6   4   9 125.462 94.2563   3
   6   4  10 850.639 232.827   3
  -6  -5   5 298.937 174.598   1
  -6  -5   4-152.182 135.391   1
  -6  -5   3-1.88274 70.1300   1
  -6  -5   2 46.8230 71.1210   1
  -6  -5   1-5.83401 96.3793   1
   6   5  -1 21.1849 49.6512   3
   6   5   0 159.397 77.8839   3
   6   5   1 263.557 115.403   3
   6   5   2 170.644 109.361   3
   6   5   3 106.393 96.6365   3
   6   5   4 311.184 111.433   3
   6   5   5 521.972 168.665   3
   6   5   6 169.975 121.760   3
   6   5   7 230.231 110.590   3
   6   5   8 94.3434 93.4888   3
   6   5   9 118.645 100.450   3
  -6  -6   4 1820.89 345.910   1
  -6  -6   3 66.3865 91.5083   1
  -6  -6   2-50.9377 92.8897   1
  -6  -6   1 308.704 152.379   1
   6   6  -1 407.981 117.262   3
   6   6   0 69.6060 59.2273   3
   6   6   1 73.9162 83.0895   3
   6   6   2 343.117 130.265   3
   6   6   3 560.666 153.675   3
   6   6   4 4.13171 88.8693   3
   6   6   5 26.1532 86.4071   3
   6   6   6 748.263 194.447   3
   6   6   7 1.08085 93.9835   3
   6   6   8-54.7485 80.7455   3
   6   6   9 72.8210 87.5883   3
  -6  -7   2 133.791 106.263   1
  -6  -7   1 424.069 158.674   1
  -6  -7   0 186.166 99.2406   1
   6   7   0 43.5956 93.8413   3
   6   7   1-24.5015 68.4507   3
   6   7   2 56.2406 56.3226   3
   6   7   3-10.9502 49.1114   3
   6   7   4 119.062 93.6947   3
   6   7   5 136.257 87.7635   3
   6   7   6 155.897 83.4663   3
   6   7   7 47.3840 116.037   3
   6   7   8 139.469 96.9148   3
   6   8   1-10.4668 78.2202   3
   6   8   2 76.7882 58.2680   3
   6   8   3 89.3329 58.6325   3
   6   8   4-52.6317 71.7211   3
   6   8   5-5.29949 53.0392   3
   6   8   6 56.0484 69.5151   3
   6   8   7 79.7761 90.7741   3
   6   9   2-13.2425 86.0735   3
   6   9   3 16.4160 64.8047   3
   6   9   4-93.7235 92.9637   3
   6   9   5 100.012 102.941   3
   6   9   6 47.2561 53.2729   3
   6  10   3-42.5225 73.4106   3
   6  10   4 72.2150 75.8164   3
  -7   6   4 50.9167 65.5071   2
  -7   6   3 253.770 114.172   2
  -7   6   2 340.926 130.595   2
  -7   5   4 608.761 167.507   2
  -7   5   3-23.7274 61.2891   2
  -7   5   2 117.149 95.1436   2
  -7   5   1 718.470 203.634   2
  -7   5   0 175.105 138.555   2
  -7   4   3 165.287 100.349   2
  -7   4   2 193.713 113.044   2
  -7   4   1 327.208 138.742   2
  -7   4   0-100.932 126.817   2
  -7   4  -1 378.150 139.847   2
  -7   4  -2 334.411 149.450   2
  -7   3   8 135.587 98.4596   1
  -7   3   7 62.0967 72.5833   1
  -7   3   6 133.181 51.5500   1
  -7   3   5 21.7176 52.8998   1
  -7   3   4 240.581 113.192   1
  -7   3   3 58.6254 59.4827   2
  -7   3   2-22.4909 49.7043   2
  -7   3   1 902.255 201.162   2
  -7   3   0 338.281 139.087   2
  -7   3  -1 491.091 160.997   2
  -7   3  -2 382.104 153.820   2
  -7   3  -3 60.1797 62.4185   2
  -7   3  -4 254.163 150.971   2
  -7   2   8 128.624 121.289   1
  -7   2   7 389.607 180.925   1
  -7   2   6 175.736 123.626   1
  -7   2   5-102.947 101.035   1
  -7   2   4 61.9343 54.2272   1
  -7   2   3 116.226 106.450   1
  -7   2   2 184.650 90.8022   2
  -7   2   2 421.961 149.556   1
  -7   2   1 806.423 209.082   1
  -7   2   1 535.243 163.709   2
  -7   2   0 1149.61 236.296   1
  -7   2   0 867.166 206.919   2
  -7   2  -1 15.7964 68.6267   1
  -7   2  -1 101.848 98.2644   2
  -7   2  -2 120.222 75.7320   2
  -7   2  -3 28.6465 101.551   2
  -7   2  -4 209.843 129.146   2
  -7   2  -5 142.519 93.5725   2
  -7   1   7 214.113 95.1003   1
  -7   1   6 119.059 96.0247   1
  -7   1   5 309.054 146.285   1
  -7   1   4-88.3681 104.733   1
  -7   1   3-60.0373 82.3093   1
  -7   1   2 16.8707 56.3588   1
  -7   1   2-24.4232 64.9232   2
  -7   1   1 115.093 88.8756   1
  -7   1   1 113.802 80.9591   2
  -7   1   0-1.05152 65.8345   1
  -7   1   0 111.128 91.9619   2
  -7   1  -1 165.486 91.7447   1
  -7   1  -1 79.6529 78.2637   2
  -7   1  -2 111.266 93.4408   2
  -7   1  -3 82.7934 87.1215   2
  -7   1  -4 2.78808 66.5803   2
  -7   1  -5 165.985 104.624   2
  -7   1  -6 176.703 116.670   2
  -7   0   7 115.185 121.876   1
  -7   0   6-49.6249 93.8895   1
  -7   0   5 768.344 222.388   1
  -7   0   4 286.110 168.385   1
  -7   0   3 20.7947 57.3516   1
  -7   0   2-6.94587 71.5294   1
  -7   0   1 697.821 185.648   1
  -7   0   1 763.609 171.962   2
  -7   0   0 86.4735 66.8073   1
  -7   0   0-0.41824 81.6577   2
  -7   0  -1 550.597 164.650   2
  -7   0  -2 442.190 148.368   2
  -7   0  -3 100.975 94.1386   2
   7   0   3 143.742 94.4547   3
  -7   0  -4-14.0719 75.7907   2
   7   0   4-131.377 85.9935   3
  -7   0  -5 63.2911 86.4384   2
   7   0   5 12.9656 85.5411   3
  -7   0  -6 4.14181 59.3269   2
   7   0   6 90.9066 113.087   3
  -7  -1   6-133.268 108.291   1
  -7  -1   5 149.532 102.352   1
  -7  -1   4 147.573 85.9031   1
  -7  -1   3-50.2961 80.4668   1
  -7  -1   2 375.720 148.957   1
  -7  -1   1 1372.32 288.692   1
  -7  -1   1 1316.33 216.675   2
  -7  -1   0 252.315 130.144   1
  -7  -1   0 318.225 119.283   2
  -7  -1  -1-43.9235 49.7272   2
   7   1   1 133.913 81.5145   3
  -7  -1  -2 808.473 204.802   2
   7   1   2 722.780 195.764   3
  -7  -1  -3 40.8475 85.8267   2
   7   1   3 52.8660 81.1481   3
   7   1   4 222.428 115.934   3
   7   1   5 230.015 124.284   3
   7   1   6-23.7508 79.0370   3
   7   1   7 389.951 157.383   3
  -7  -2   5 283.086 147.287   1
  -7  -2   4 271.179 160.418   1
  -7  -2   3 1543.53 315.382   1
  -7  -2   2 454.940 182.636   1
   7   2  -1 755.382 164.696   3
  -7  -2   1 714.446 215.121   1
  -7  -2   0 1381.46 232.234   2
  -7  -2   0 1342.09 281.292   1
   7   2   0 979.518 195.371   3
  -7  -2  -1 231.727 86.8299   2
   7   2   1 370.763 145.238   3
   7   2   2 990.423 210.476   3
   7   2   3 504.976 164.238   3
   7   2   4 79.0995 67.9186   3
   7   2   5 48.4811 85.3831   3
   7   2   6 10.1172 80.9757   3
   7   2   7 351.679 150.367   3
  -7  -3   3 79.9868 72.1346   1
  -7  -3   2 201.937 138.186   1
  -7  -3   1 27.5619 68.7053   1
  -7  -3   0 934.898 238.904   1
   7   3   0 618.833 156.742   3
   7   3   1 815.164 193.255   3
   7   3   2 196.016 118.831   3
   7   3   3 101.085 104.062   3
   7   3   4 832.324 198.892   3
   7   3   5 199.102 103.675   3
   7   3   6 255.216 129.024   3
   7   3   7 47.7041 77.3516   3
  -7  -4   2 174.719 145.292   1
  -7  -4   1 187.321 125.106   1
  -7  -4   0-144.731 91.9559   1
   7   4   0 38.6127 58.8510   3
   7   4   1 73.7722 74.2003   3
   7   4   2 128.035 84.4024   3
   7   4   3-7.13043 69.2483   3
   7   4   4 277.859 136.545   3
   7   4   5 1050.89 234.304   3
   7   4   6 439.672 171.778   3
   7   4   7 712.660 197.739   3
   7   5   1 0.85328 69.0785   3
   7   5   2 71.8354 73.8742   3
   7   5   3 290.234 135.895   3
   7   5   4 164.114 109.448   3
   7   5   5 19.5032 73.4667   3
   7   5   6 63.8342 103.179   3
   7   6   2 23.8867 60.4021   3
   7   6   3 383.678 152.452   3
   7   6   4 35.9155 68.1565   3
   7   6   5 660.723 197.964   3
   7   6   6 187.474 128.781   3
   7   7   3 117.773 85.0562   3
   7   7   4 166.963 114.590   3
   7   7   5-72.4711 85.9668   3
  -8   0   1 118.084 112.435   1
  -8   0   0 1187.30 285.380   1
  -8   0  -1 116.995 100.882   1
   8   2   2 983.531 221.220   3
   8   2   3-95.1170 85.7236   3
   0   0   0    0.00    0.00   0
TITL H2Bz4NO2Im in P-1
REM P-1 (#2 in standard setting)
CELL 0.71073   5.865617  10.330363  13.722444  74.7364  88.7251  87.0060
ZERR    2.00   0.000443   0.001210   0.001586   0.0101   0.0078   0.0079
LATT  1
SFAC C H N O
UNIT 34.00 28.00 12.00 6.00
TREF
HKLF 4
END
;
_shelx_hkl_checksum              34626
_shelx_res_file
;
TITL H2Bz4NO2Im in P-1
    shelx.res
    created by SHELXL-2017/1 at 15:06:03 on 26-Mar-2018
CELL  0.71073   5.8656  10.3304  13.7224   74.736   88.725   87.006
ZERR     2.00   0.0004   0.0012   0.0016    0.010    0.008    0.008
LATT   1
SFAC  C    H    N    O
UNIT  34 28 12 6
MERG   2
SHEL 20 0.8
RIGU 0.003 0.003 C17 C18
RIGU 0.003 0.003 N1 C2
EQIV $1 x+1, y, z
HTAB C9 N5_$1
EQIV $2 x-1, y, z
HTAB C10 N2_$2
EQIV $3 -x+2, -y, -z
HTAB N3 O1_$3
MPLA 6 C7 C8 C9 N2 N3 O1
FMAP   2
PLAN    8
SIZE     0.066   0.127   0.184
ACTA
BOND   $H
CONF
LIST   4
L.S.  10
TEMP    -3.15
WGHT    0.063300    0.235900
FVAR       4.43106
AFIX  66
N1    3    1.858236   -0.392977    0.183304    11.00000    0.04138    0.04740 =
         0.05121   -0.01777   -0.00318    0.00362
C2    1    1.653649   -0.345342    0.217170    11.00000    0.03033    0.02880 =
         0.03134   -0.01140   -0.00252    0.00239
C3    1    1.601757   -0.378283    0.319824    11.00000    0.04269    0.04765 =
         0.03375   -0.01044   -0.00050    0.00876
AFIX  43
H3    2    1.464875   -0.346412    0.342482    11.00000   -1.20000
AFIX  65
C4    1    1.754452   -0.458859    0.388611    11.00000    0.05832    0.05665 =
         0.03430   -0.00642   -0.00593    0.00999
AFIX  43
H4    2    1.719731   -0.480898    0.457293    11.00000   -1.20000
AFIX  65
C5    1    1.959039   -0.506494    0.354746    11.00000    0.04791    0.04781 =
         0.04879   -0.00826   -0.01715    0.01042
AFIX  43
H5    2    2.061202   -0.560404    0.400770    11.00000   -1.20000
AFIX  65
C6    1    2.010934   -0.473554    0.252093    11.00000    0.03529    0.04547 =
         0.05374   -0.01567   -0.00668    0.00915
AFIX  43
H6    2    2.147817   -0.505425    0.229435    11.00000   -1.20000
AFIX   0
C7    1    1.492281   -0.263891    0.142140    11.00000    0.02631    0.03075 =
         0.02842   -0.01020    0.00098   -0.00444
C8    1    1.015001   -0.051915    0.159015    11.00000    0.02622    0.03252 =
         0.02891   -0.01154    0.00093   -0.00065
C9    1    1.024697   -0.083296    0.273936    11.00000    0.02733    0.04646 =
         0.02635   -0.01398   -0.00053    0.00731
AFIX  23
H9A   2    1.007334   -0.178706    0.302543    11.00000   -1.20000
H9B   2    1.173069   -0.061701    0.293440    11.00000   -1.20000
AFIX   0
C10   1    0.619201   -0.017475    0.308129    11.00000    0.02655    0.04893 =
         0.03622   -0.01765   -0.00041   -0.00048
AFIX  43
H10   2    0.553338   -0.069404    0.271334    11.00000   -1.20000
AFIX   0
C11   1    0.664877    0.111953    0.400353    11.00000    0.03389    0.03418 =
         0.02343   -0.00971    0.00210    0.00337
C12   1    0.880478    0.075356    0.375589    11.00000    0.03101    0.04080 =
         0.02625   -0.01140   -0.00356   -0.00472
AFIX  43
H12   2    1.018141    0.101149    0.395155    11.00000   -1.20000
AFIX  66
C13   1    1.496596   -0.275142    0.037679    11.00000    0.03329    0.02967 =
         0.02806   -0.01075   -0.00272    0.00733
C14   1    1.676236   -0.233584   -0.029129    11.00000    0.04779    0.04583 =
         0.03482   -0.00945    0.00529   -0.00252
AFIX  43
H14   2    1.798207   -0.192652   -0.009358    11.00000   -1.20000
AFIX  65
C15   1    1.673577   -0.253203   -0.125488    11.00000    0.07857    0.05597 =
         0.03355   -0.00503    0.01355    0.01137
AFIX  43
H15   2    1.793769   -0.225397   -0.170187    11.00000   -1.20000
AFIX  65
C16   1    1.491277   -0.314381   -0.155040    11.00000    0.09609    0.05626 =
         0.03401   -0.02153   -0.01647    0.02962
AFIX  43
H16   2    1.489499   -0.327507   -0.219511    11.00000   -1.20000
AFIX  65
C17   1    1.311636   -0.355940   -0.088233    11.00000    0.06179    0.05751 =
         0.06384   -0.03400   -0.02259    0.01037
AFIX  43
H17   2    1.189665   -0.396872   -0.108005    11.00000   -1.20000
AFIX  65
C18   1    1.314292   -0.336322    0.008126    11.00000    0.03697    0.04258 =
         0.03653   -0.02004   -0.00312    0.00250
AFIX  43
H18   2    1.194100   -0.364128    0.052825    11.00000   -1.20000
AFIX   0
N2    3    1.344038   -0.192067    0.178423    11.00000    0.02765    0.03409 =
         0.02804   -0.01084   -0.00132    0.00190
N3    3    1.182485   -0.113114    0.115908    11.00000    0.02989    0.03938 =
         0.02276   -0.01102   -0.00277    0.00621
AFIX  43
H3N   2    1.187862   -0.103050    0.051674    11.00000   -1.20000
AFIX   0
N4    3    0.847147   -0.008067    0.315309    11.00000    0.02538    0.04260 =
         0.02471   -0.01415   -0.00121    0.00239
N5    3    0.501461    0.055073    0.359035    11.00000    0.02972    0.04781 =
         0.03186   -0.01484    0.00229    0.00124
N6    3    0.605707    0.199671    0.463350    11.00000    0.05504    0.04319 =
         0.03032   -0.01093    0.00288    0.00496
O1    4    0.864794    0.021109    0.108920    11.00000    0.03721    0.05154 =
         0.02931   -0.00921   -0.00220    0.01540
O2    4    0.406648    0.240654    0.465727    11.00000    0.06424    0.08120 =
         0.06903   -0.03679    0.00250    0.03215
O3    4    0.760402    0.228899    0.512160    11.00000    0.07491    0.05426 =
         0.04208   -0.02402   -0.00237   -0.00649
HKLF 4
REM  H2Bz4NO2Im in P-1
REM R1 =  0.0601 for    2094 Fo > 4sig(Fo)  and  0.1032 for all    3273 data
REM    211 parameters refined using      6 restraints
END
WGHT      0.0633      0.2359
REM Highest difference peak  0.369,  deepest hole -0.437,  1-sigma level  0.056
Q1    1   1.9567 -0.4521  0.2525  11.00000  0.05    0.37
Q2    1   1.6924 -0.3710  0.2171  11.00000  0.05    0.33
Q3    1   1.3546 -0.3482 -0.0403  11.00000  0.05    0.30
Q4    1   1.4443 -0.3018  0.0213  11.00000  0.05    0.29
Q5    1   1.9248 -0.3640  0.0984  11.00000  0.05    0.28
Q6    1   1.4112 -0.3401 -0.1024  11.00000  0.05    0.23
Q7    1   1.2425 -0.2153  0.2574  11.00000  0.05    0.19
Q8    1   0.3609  0.0973  0.3868  11.00000  0.05    0.18
;
_shelx_res_checksum              35330
loop_
_space_group_symop_operation_xyz
'x, y, z'
'-x, -y, -z'
loop_
_atom_site_type_symbol
_atom_site_label
_atom_site_fract_x
_atom_site_fract_y
_atom_site_fract_z
_atom_site_U_iso_or_equiv
_atom_site_adp_type
_atom_site_calc_flag
_atom_site_occupancy
N N1 1.8582(3) -0.39298(18) 0.18330(10) 0.0459(7) Uani d 1
C C2 1.6536(3) -0.34534(17) 0.21717(11) 0.0296(6) Uani d 1
C C3 1.6018(3) -0.3783(2) 0.31982(12) 0.0418(7) Uani d 1
H H3 1.464875 -0.346412 0.342482 0.050 Uiso calc 1
C C4 1.7545(3) -0.4589(2) 0.38861(9) 0.0512(9) Uani d 1
H H4 1.719731 -0.480898 0.457293 0.061 Uiso calc 1
C C5 1.9590(3) -0.5065(2) 0.35475(12) 0.0492(8) Uani d 1
H H5 2.061202 -0.560404 0.400770 0.059 Uiso calc 1
C C6 2.0109(2) -0.4736(2) 0.25209(13) 0.0446(8) Uani d 1
H H6 2.147817 -0.505425 0.229435 0.054 Uiso calc 1
C C7 1.4923(4) -0.2639(3) 0.14214(18) 0.0279(6) Uani d 1
C C8 1.0150(4) -0.0519(3) 0.15902(18) 0.0286(6) Uani d 1
C C9 1.0247(4) -0.0833(3) 0.27394(18) 0.0329(6) Uani d 1
H H9A 1.007334 -0.178706 0.302543 0.039 Uiso calc 1
H H9B 1.173069 -0.061701 0.293440 0.039 Uiso calc 1
C C10 0.6192(4) -0.0175(3) 0.3081(2) 0.0361(7) Uani d 1
H H10 0.553338 -0.069404 0.271334 0.043 Uiso calc 1
C C11 0.6649(4) 0.1120(3) 0.40035(18) 0.0303(6) Uani d 1
C C12 0.8805(4) 0.0754(3) 0.37559(18) 0.0320(6) Uani d 1
H H12 1.018141 0.101149 0.395155 0.038 Uiso calc 1
C C13 1.4966(3) -0.27514(18) 0.03768(10) 0.0300(6) Uani d 1
C C14 1.6762(3) -0.23358(19) -0.02913(13) 0.0431(8) Uani d 1
H H14 1.798207 -0.192652 -0.009358 0.052 Uiso calc 1
C C15 1.6736(3) -0.2532(2) -0.12549(12) 0.0580(10) Uani d 1
H H15 1.793769 -0.225397 -0.170187 0.070 Uiso calc 1
C C16 1.4913(4) -0.3144(2) -0.15504(10) 0.0613(10) Uani d 1
H H16 1.489499 -0.327507 -0.219511 0.074 Uiso calc 1
C C17 1.3116(3) -0.3559(2) -0.08823(15) 0.0578(9) Uani d 1
H H17 1.189665 -0.396872 -0.108005 0.069 Uiso calc 1
C C18 1.3143(3) -0.33632(19) 0.00813(13) 0.0370(7) Uani d 1
H H18 1.194100 -0.364128 0.052825 0.044 Uiso calc 1
N N2 1.3440(3) -0.1921(2) 0.17842(15) 0.0295(5) Uani d 1
N N3 1.1825(3) -0.1131(2) 0.11591(15) 0.0304(5) Uani d 1
H H3N 1.187862 -0.103050 0.051674 0.036 Uiso calc 1
N N4 0.8471(3) -0.0081(2) 0.31531(15) 0.0300(5) Uani d 1
N N5 0.5015(4) 0.0551(2) 0.35903(16) 0.0358(6) Uani d 1
N N6 0.6057(5) 0.1997(2) 0.46335(17) 0.0429(6) Uani d 1
O O1 0.8648(3) 0.0211(2) 0.10892(13) 0.0402(5) Uani d 1
O O2 0.4066(4) 0.2407(3) 0.46573(18) 0.0696(8) Uani d 1
O O3 0.7604(4) 0.2289(2) 0.51216(16) 0.0548(6) Uani d 1
loop_
_atom_site_aniso_label
_atom_site_aniso_U_11
_atom_site_aniso_U_22
_atom_site_aniso_U_33
_atom_site_aniso_U_12
_atom_site_aniso_U_13
_atom_site_aniso_U_23
N1 0.0414(14) 0.0474(15) 0.0512(15) 0.0036(12) -0.0032(12) -0.0178(12)
C2 0.0303(14) 0.0288(14) 0.0313(14) 0.0024(11) -0.0025(11) -0.0114(11)
C3 0.0427(17) 0.0477(18) 0.0337(15) 0.0088(14) -0.0005(13) -0.0104(13)
C4 0.058(2) 0.057(2) 0.0343(16) 0.0100(17) -0.0059(15) -0.0064(14)
C5 0.0479(19) 0.0478(19) 0.0488(19) 0.0104(15) -0.0171(15) -0.0083(15)
C6 0.0353(16) 0.0455(18) 0.0537(19) 0.0091(14) -0.0067(14) -0.0157(15)
C7 0.0263(13) 0.0308(14) 0.0284(13) -0.0044(11) 0.0010(11) -0.0102(11)
C8 0.0262(13) 0.0325(14) 0.0289(13) -0.0007(11) 0.0009(11) -0.0115(11)
C9 0.0273(14) 0.0465(17) 0.0263(13) 0.0073(12) -0.0005(11) -0.0140(12)
C10 0.0265(14) 0.0489(17) 0.0362(15) -0.0005(12) -0.0004(12) -0.0177(13)
C11 0.0339(15) 0.0342(15) 0.0234(13) 0.0034(12) 0.0021(11) -0.0097(11)
C12 0.0310(14) 0.0408(16) 0.0262(13) -0.0047(12) -0.0036(11) -0.0114(12)
C13 0.0333(14) 0.0297(14) 0.0281(13) 0.0073(11) -0.0027(12) -0.0107(11)
C14 0.0478(18) 0.0458(18) 0.0348(16) -0.0025(14) 0.0053(14) -0.0095(13)
C15 0.079(3) 0.056(2) 0.0336(17) 0.0114(19) 0.0136(18) -0.0050(15)
C16 0.096(3) 0.056(2) 0.0340(17) 0.030(2) -0.0165(19) -0.0215(16)
C17 0.062(2) 0.058(2) 0.064(2) 0.0104(18) -0.0226(19) -0.0340(18)
C18 0.0370(15) 0.0426(17) 0.0365(15) 0.0025(13) -0.0031(13) -0.0200(13)
N2 0.0277(11) 0.0341(12) 0.0280(11) 0.0019(10) -0.0013(9) -0.0108(9)
N3 0.0299(12) 0.0394(13) 0.0228(11) 0.0062(10) -0.0028(9) -0.0110(9)
N4 0.0254(11) 0.0426(13) 0.0247(11) 0.0024(10) -0.0012(9) -0.0141(10)
N5 0.0297(12) 0.0478(14) 0.0319(12) 0.0012(11) 0.0023(10) -0.0148(11)
N6 0.0550(17) 0.0432(15) 0.0303(13) 0.0050(13) 0.0029(12) -0.0109(11)
O1 0.0372(11) 0.0515(12) 0.0293(10) 0.0154(10) -0.0022(8) -0.0092(9)
O2 0.0642(17) 0.0812(18) 0.0690(16) 0.0321(14) 0.0025(13) -0.0368(14)
O3 0.0749(17) 0.0543(14) 0.0421(12) -0.0065(12) -0.0024(12) -0.0240(11)
loop_
_atom_type_symbol
_atom_type_description
_atom_type_scat_dispersion_real
_atom_type_scat_dispersion_imag
_atom_type_scat_source
C C 0.0033 0.0016 'International Tables Vol C Tables 4.2.6.8 and 6.1.1.4'
H H 0.0000 0.0000 'International Tables Vol C Tables 4.2.6.8 and 6.1.1.4'
N N 0.0061 0.0033 'International Tables Vol C Tables 4.2.6.8 and 6.1.1.4'
O O 0.0106 0.0060 'International Tables Vol C Tables 4.2.6.8 and 6.1.1.4'
loop_
_exptl_crystal_face_index_h
_exptl_crystal_face_index_k
_exptl_crystal_face_index_l
_exptl_crystal_face_perp_dist
-1 0 0 0.0795
5 -1 -1 0.0975
0 0 -1 0.0542
0 0 1 0.0292
0 1 1 0.0010
0 -1 -1 0.0648
loop_
_geom_angle_atom_site_label_1
_geom_angle_atom_site_label_2
_geom_angle_atom_site_label_3
_geom_angle
C2 N1 C6 120.0
N1 C2 C3 120.0
N1 C2 C7 118.66(13)
C3 C2 C7 121.31(13)
C4 C3 C2 120.0
C4 C3 H3 120.0
C2 C3 H3 120.0
C5 C4 C3 120.0
C5 C4 H4 120.0
C3 C4 H4 120.0
C6 C5 C4 120.0
C6 C5 H5 120.0
C4 C5 H5 120.0
C5 C6 N1 120.0
C5 C6 H6 120.0
N1 C6 H6 120.0
N2 C7 C13 124.9(2)
N2 C7 C2 114.2(2)
C13 C7 C2 120.73(18)
O1 C8 N3 121.9(2)
O1 C8 C9 123.1(2)
N3 C8 C9 115.0(2)
N4 C9 C8 112.2(2)
N4 C9 H9A 109.2
C8 C9 H9A 109.2
N4 C9 H9B 109.2
C8 C9 H9B 109.2
H9A C9 H9B 107.9
N5 C10 N4 112.4(3)
N5 C10 H10 123.8
N4 C10 H10 123.8
N5 C11 C12 112.8(2)
N5 C11 N6 121.2(2)
C12 C11 N6 126.0(3)
C11 C12 N4 103.8(2)
C11 C12 H12 128.1
N4 C12 H12 128.1
C14 C13 C18 120.0
C14 C13 C7 123.19(14)
C18 C13 C7 116.74(14)
C13 C14 C15 120.0
C13 C14 H14 120.0
C15 C14 H14 120.0
C16 C15 C14 120.0
C16 C15 H15 120.0
C14 C15 H15 120.0
C15 C16 C17 120.0
C15 C16 H16 120.0
C17 C16 H16 120.0
C16 C17 C18 120.0
C16 C17 H17 120.0
C18 C17 H17 120.0
C17 C18 C13 120.0
C17 C18 H18 120.0
C13 C18 H18 120.0
C7 N2 N3 119.6(2)
C8 N3 N2 117.5(2)
C8 N3 H3N 121.2
N2 N3 H3N 121.2
C10 N4 C12 107.5(2)
C10 N4 C9 126.0(2)
C12 N4 C9 126.2(2)
C10 N5 C11 103.5(2)
O2 N6 O3 124.1(3)
O2 N6 C11 118.4(3)
O3 N6 C11 117.4(2)
loop_
_geom_bond_atom_site_label_1
_geom_bond_atom_site_label_2
_geom_bond_distance
N1 C2 1.3900
N1 C6 1.3900
C2 C3 1.3900
C2 C7 1.472(3)
C3 C4 1.3900
C3 H3 0.9300
C4 C5 1.3900
C4 H4 0.9300
C5 C6 1.3900
C5 H5 0.9300
C6 H6 0.9300
C7 N2 1.289(3)
C7 C13 1.468(3)
C8 O1 1.226(3)
C8 N3 1.349(3)
C8 C9 1.526(3)
C9 N4 1.460(3)
C9 H9A 0.9700
C9 H9B 0.9700
C10 N5 1.314(3)
C10 N4 1.353(3)
C10 H10 0.9300
C11 N5 1.358(4)
C11 C12 1.362(3)
C11 N6 1.434(3)
C12 N4 1.366(3)
C12 H12 0.9300
C13 C14 1.3900
C13 C18 1.3900
C14 C15 1.3900
C14 H14 0.9300
C15 C16 1.3900
C15 H15 0.9300
C16 C17 1.3900
C16 H16 0.9300
C17 C18 1.3900
C17 H17 0.9300
C18 H18 0.9300
N2 N3 1.373(3)
N3 H3N 0.8600
N6 O2 1.224(3)
N6 O3 1.235(3)
loop_
_geom_hbond_atom_site_label_D
_geom_hbond_atom_site_label_H
_geom_hbond_atom_site_label_A
_geom_hbond_site_symmetry_A
_geom_hbond_distance_DH
_geom_hbond_distance_HA
_geom_hbond_distance_DA
_geom_hbond_angle_DHA
_geom_hbond_publ_flag
C9 H9B N5 1_655 0.97 2.62 3.559(4) 163.0 yes
C10 H10 N2 1_455 0.93 2.41 3.339(4) 173.9 yes
N3 H3N O1 2_755 0.86 2.17 2.994(3) 161.7 yes
loop_
_geom_torsion_atom_site_label_1
_geom_torsion_atom_site_label_2
_geom_torsion_atom_site_label_3
_geom_torsion_atom_site_label_4
_geom_torsion
C6 N1 C2 C3 0.0
C6 N1 C2 C7 -178.03(19)
N1 C2 C3 C4 0.0
C7 C2 C3 C4 178.0(2)
C2 C3 C4 C5 0.0
C3 C4 C5 C6 0.0
C4 C5 C6 N1 0.0
C2 N1 C6 C5 0.0
N1 C2 C7 N2 -160.45(18)
C3 C2 C7 N2 21.5(3)
N1 C2 C7 C13 23.9(3)
C3 C2 C7 C13 -154.14(16)
O1 C8 C9 N4 -4.7(4)
N3 C8 C9 N4 176.7(2)
N5 C11 C12 N4 0.3(3)
N6 C11 C12 N4 179.9(2)
N2 C7 C13 C14 117.3(2)
C2 C7 C13 C14 -67.5(2)
N2 C7 C13 C18 -65.6(3)
C2 C7 C13 C18 109.6(2)
C18 C13 C14 C15 0.0
C7 C13 C14 C15 176.94(19)
C13 C14 C15 C16 0.0
C14 C15 C16 C17 0.0
C15 C16 C17 C18 0.0
C16 C17 C18 C13 0.0
C14 C13 C18 C17 0.0
C7 C13 C18 C17 -177.13(18)
C13 C7 N2 N3 -3.7(4)
C2 C7 N2 N3 -179.2(2)
O1 C8 N3 N2 179.5(2)
C9 C8 N3 N2 -1.9(3)
C7 N2 N3 C8 172.5(2)
N5 C10 N4 C12 0.5(3)
N5 C10 N4 C9 175.3(2)
C11 C12 N4 C10 -0.5(3)
C11 C12 N4 C9 -175.2(2)
C8 C9 N4 C10 62.4(3)
C8 C9 N4 C12 -123.8(3)
N4 C10 N5 C11 -0.3(3)
C12 C11 N5 C10 0.0(3)
N6 C11 N5 C10 -179.6(2)
N5 C11 N6 O2 -12.2(4)
C12 C11 N6 O2 168.3(3)
N5 C11 N6 O3 167.7(2)
C12 C11 N6 O3 -11.8(4)

_cod_database_fobs_code 2021518
