#------------------------------------------------------------------------------
#$Date: 2018-11-01 05:41:38 +0200 (Thu, 01 Nov 2018) $
#$Revision: 211740 $
#$URL: file:///home/coder/svn-repositories/cod/cif/2/02/13/2021326.cif $
#------------------------------------------------------------------------------
#
# This file is available in the Crystallography Open Database (COD),
# http://www.crystallography.net/. The original data for this entry
# were provided by IUCr Journals, http://journals.iucr.org/.
#
# The file may be used within the scientific community so long as
# proper attribution is given to the journal article from which the
# data were obtained.
#
data_2021326
loop_
_publ_author_name
'Purandara, H.'
'Foro, Sabine'
'Thimme Gowda, B.'
_publ_section_title
;
 Comparison of the crystal structures and Hirshfeld surface analysis of
 five <i>N</i>-(4-methylbenzenesulfonyl)glycine hydrazone derivatives
;
_journal_coeditor_code           CU3132
_journal_issue                   11
_journal_name_full               'Acta Crystallographica Section C'
_journal_page_first              1553
_journal_page_last               1560
_journal_paper_doi               10.1107/S2053229618014420
_journal_volume                  74
_journal_year                    2018
_chemical_formula_iupac          'C16 H16 Cl N3 O3 S'
_chemical_formula_moiety         'C16 H16 Cl N3 O3 S'
_chemical_formula_sum            'C16 H16 Cl N3 O3 S'
_chemical_formula_weight         365.83
_chemical_name_systematic
(<i>E</i>)-<i>N</i>-{2-[2-(4-Chlorobenzylidene)hydrazinyl]-2-oxoethyl}-4-methylbenzenesulfonamide
_space_group_crystal_system      triclinic
_space_group_IT_number           2
_space_group_name_Hall           '-P 1'
_space_group_name_H-M_alt        'P -1'
_symmetry_space_group_name_Hall  '-P 1'
_symmetry_space_group_name_H-M   'P -1'
_atom_sites_solution_hydrogens   mixed
_audit_creation_method           SHELXL-2014/6
_cell_angle_alpha                76.049(8)
_cell_angle_beta                 85.846(9)
_cell_angle_gamma                74.823(8)
_cell_formula_units_Z            2
_cell_length_a                   6.7101(6)
_cell_length_b                   10.3590(10)
_cell_length_c                   13.5000(10)
_cell_measurement_reflns_used    2986
_cell_measurement_temperature    293(2)
_cell_measurement_theta_max      27.71
_cell_measurement_theta_min      2.88
_cell_volume                     878.90(14)
_computing_cell_refinement
;
CrysAlis RED (Oxford Diffraction, 2009)
;
_computing_data_collection
;
CrysAlis CCD (Oxford Diffraction, 2009)
;
_computing_data_reduction
;
CrysAlis RED (Oxford Diffraction, 2009)
;
_computing_molecular_graphics
;
PLATON (Spek, 2009)
;
_computing_publication_material
;
SHELXL2014 (Sheldrick, 2015)
;
_computing_structure_refinement
;
SHELXL2014 (Sheldrick, 2015)
;
_computing_structure_solution
;
SHELXS2013 (Sheldrick, 2008)
;
_diffrn_ambient_temperature      293(2)
_diffrn_measured_fraction_theta_full 0.997
_diffrn_measured_fraction_theta_max 0.994
_diffrn_measurement_device_type
;
Oxford Diffraction Xcalibur single crystal X-ray diffractometer
with Sapphire CCD detector
;
_diffrn_measurement_method
;
Rotation method data acquisition using omega scans
;
_diffrn_radiation_type           MoK\a
_diffrn_radiation_wavelength     0.71073
_diffrn_reflns_av_R_equivalents  0.0151
_diffrn_reflns_av_unetI/netI     0.0180
_diffrn_reflns_limit_h_max       8
_diffrn_reflns_limit_h_min       -8
_diffrn_reflns_limit_k_max       12
_diffrn_reflns_limit_k_min       -11
_diffrn_reflns_limit_l_max       12
_diffrn_reflns_limit_l_min       -16
_diffrn_reflns_number            5740
_diffrn_reflns_theta_full        25.242
_diffrn_reflns_theta_max         26.370
_diffrn_reflns_theta_min         2.882
_diffrn_source                   'Enhance (Mo) X-ray Source'
_exptl_absorpt_coefficient_mu    0.355
_exptl_absorpt_correction_T_max  0.883
_exptl_absorpt_correction_T_min  0.859
_exptl_absorpt_correction_type   multi-scan
_exptl_absorpt_process_details
;
(CrysAlis RED; Oxford Diffraction, 2009)
;
_exptl_crystal_colour            colourless
_exptl_crystal_density_diffrn    1.382
_exptl_crystal_description       prism
_exptl_crystal_F_000             380
_exptl_crystal_size_max          0.440
_exptl_crystal_size_mid          0.420
_exptl_crystal_size_min          0.360
_refine_diff_density_max         0.299
_refine_diff_density_min         -0.348
_refine_ls_extinction_method     none
_refine_ls_goodness_of_fit_ref   1.029
_refine_ls_hydrogen_treatment    mixed
_refine_ls_matrix_type           full
_refine_ls_number_parameters     224
_refine_ls_number_reflns         3580
_refine_ls_number_restraints     2
_refine_ls_restrained_S_all      1.029
_refine_ls_R_factor_all          0.0512
_refine_ls_R_factor_gt           0.0409
_refine_ls_shift/su_max          0.000
_refine_ls_shift/su_mean         0.000
_refine_ls_structure_factor_coef Fsqd
_refine_ls_weighting_details
'w=1/[\s^2^(Fo^2^)+(0.0518P)^2^+0.3439P] where P=(Fo^2^+2Fc^2^)/3'
_refine_ls_weighting_scheme      calc
_refine_ls_wR_factor_gt          0.1022
_refine_ls_wR_factor_ref         0.1101
_reflns_number_gt                2984
_reflns_number_total             3580
_reflns_threshold_expression     'I > 2\s(I)'
_cod_data_source_file            cu3132sup1.cif
_cod_data_source_block           III
_cod_original_cell_volume        878.90(13)
_cod_database_code               2021326
_shelx_space_group_comment
;
The symmetry employed for this shelxl refinement is uniquely defined
by the following loop, which should always be used as a source of
symmetry information in preference to the above space-group names.
They are only intended as comments.
;
_shelx_estimated_absorpt_t_min   0.859
_shelx_estimated_absorpt_t_max   0.883
_shelx_hkl_file
;
   0   0  -2 2317.25 23.5523   1
   0   0  -3 2266.02 23.9527   2
   0   0  -3 2291.11 28.7699   1
   0   0  -4 41909.4 138.475   1
   0   0  -4 40976.5 114.579   2
   0   0  -5 5490.43 57.7758   1
   0   0  -5 5486.27 47.9600   2
   0   0  -6 11810.3 77.3375   2
   0   0  -6 12270.2 94.1818   1
   0   0  -7 266.107 22.0739   1
   0   0  -7 322.929 20.8079   2
   0   0  -8 3708.89 54.2482   2
   0   0  -8 3974.67 65.4288   1
   0   0  -9 132.270 23.5437   2
   0   0  -9 115.365 27.3952   1
   0   0 -10 6906.01 100.716   1
   0   0 -10 6852.00 81.7431   2
   0   0 -11 19657.7 142.059   2
   0   0 -11 19866.1 173.913   1
   0   0 -12 667.561 52.2344   1
   0   0 -12 670.524 42.0376   2
   0   0 -13 22.9804 38.4085   1
   0   0 -13-10.4992 33.8429   2
   0   0 -14 321.224 52.8252   1
   0   0 -14 324.635 42.3829   2
   0   0 -15 2248.30 69.0490   2
   0   0 -15 2442.35 90.5851   1
   0   0 -16 24.9472 42.7884   1
   0   1 -16 133.041 47.5049   1
   0   1 -15 1527.68 75.4588   1
   0   1 -14 221.044 49.6369   1
   0   1 -13 1250.30 63.3161   1
   0   1 -13 1182.20 50.3092   2
   0   1 -12 116.819 37.9589   1
   0   1 -12 174.348 33.7043   2
   0   1 -11-57.3700 47.4831   1
   0   1 -11 49.8886 31.8588   2
   0   1 -10-72.9677 49.5876   1
   0   1 -10 88.9783 32.6195   2
   0   1  -9 10856.7 121.160   1
   0   1  -9 11121.0 94.0628   2
   0   1  -8 1898.06 40.3185   2
   0   1  -8 1950.66 51.5440   1
   0   1  -7 462.725 28.0997   1
   0   1  -7 466.410 22.5188   2
   0   1  -6 23.3435 5.98072   3
   0   1  -6-2.61694 16.9280   1
   0   1  -6 8.47273 13.2073   2
   0   1  -5 34603.6 116.292   2
   0   1  -5 34185.2 146.131   1
   0   1  -5 34259.4 68.4340   3
   0   1  -4 29062.1 60.6997   3
   0   1  -4 29652.2 122.286   1
   0   1  -4 29031.0 94.0935   2
   0   1  -3 90428.8 575.489   2
   0   1  -3 89955.9 184.492   1
   0   1  -2 3108.20 22.7558   2
   0   1  -2 3159.67 30.9198   1
   0   1  -1 5488.70 34.2668   1
   0  -1  -2 15332.2 53.7137   2
   0  -1  -3 825.740 18.3033   1
   0  -1  -3 777.083 16.1722   2
   0  -1  -4 11994.2 64.0397   2
   0  -1  -4 12661.7 76.6400   1
   0  -1  -5 11783.4 82.7118   1
   0  -1  -5 11075.4 69.5292   2
   0  -1  -6 1747.95 37.6283   1
   0  -1  -6 1646.44 31.9313   2
   0   1   6 1698.40 13.8732   0
   0  -1  -7 92.5556 17.6369   2
   0   1   7 47.8048 4.76973   0
   0  -1  -7 50.6938 16.0322   1
   0  -1  -8 685.229 28.6315   2
   0  -1  -8 698.490 31.8638   1
   0  -1  -9 2136.04 53.5623   1
   0  -1  -9 2077.89 45.7466   2
   0  -1 -10-30.8562 30.7171   1
   0  -1 -10-15.5608 27.0025   2
   0  -1 -11 2344.25 72.0324   1
   0  -1 -11 2359.97 58.4209   2
   0  -1 -12 2084.76 60.7773   2
   0  -1 -12 2059.74 73.2889   1
   0  -1 -13 585.565 43.5098   2
   0  -1 -13 519.271 50.8204   1
   0  -1 -14 267.197 51.7680   1
   0  -1 -14 315.110 45.5819   2
   0  -1 -15 2517.80 90.5563   1
   0  -1 -15 2697.83 78.2710   2
   0  -1 -16 86.0222 50.5266   1
   0  -1 -16 159.938 44.5171   2
   0  -1 -17 991.997 63.0696   2
   0   2 -15 9.53797 46.4027   1
   0   2 -14 154.674 50.5119   1
   0   2 -13 470.889 54.7922   1
   0   2 -12-26.0173 43.2628   1
   0   2 -11 9815.20 100.912   2
   0   2 -11 12337.5 147.137   1
   0   2 -10 70.2418 29.8988   2
   0   2 -10-30.9858 47.2063   1
   0   2  -9 25123.3 141.477   2
   0   2  -9 24896.6 182.879   1
   0   2  -8 1925.36 54.9788   1
   0   2  -8 2007.00 41.6795   2
   0   2  -7 11602.1 82.4450   2
   0   2  -7 11244.3 108.682   1
   0   2  -6 10933.1 73.8310   2
   0   2  -6 11123.5 97.5084   1
   0   2  -5 2663.11 46.0224   1
   0   2  -5 2750.03 35.2562   2
   0   2  -4 13089.8 65.3671   2
   0   2  -4 12773.1 89.0152   1
   0   2  -3 119.514 9.45339   2
   0   2  -3 14.2688 13.3052   1
   0   2  -2 9061.42 44.9247   2
   0   2  -2 9038.03 63.0532   1
   0   2  -1 37008.9 117.940   1
   0   2   0 396243. 1462.20   1
   0   2   1 169728. 936.736   1
   0  -2  -1 172679. 762.649   2
   0   2   2 353057. 932.351   0
   0  -2  -2 439044. 1339.99   2
   0   2   3 17325.0 50.5987   0
   0  -2  -3 17643.8 76.5393   2
   0  -2  -4 222020. 1164.26   2
   0   2   4 207171. 705.443   0
   0   2   5 2521.25 20.6943   0
   0  -2  -5 2429.33 36.1394   2
   0  -2  -6 3039.96 49.9020   1
   0  -2  -6 2768.56 23.6670   3
   0  -2  -6 2848.00 42.2216   2
   0   2   6 2822.36 22.0340   0
   0  -2  -7 1741.66 41.6503   1
   0   2   7 1678.21 17.6506   0
   0  -2  -7 1566.56 17.8237   3
   0  -2  -7 1631.30 36.2859   2
   0  -2  -8 859.733 31.5562   2
   0  -2  -8 1032.40 37.5890   1
   0  -2  -9 3500.21 59.3988   2
   0  -2  -9 3950.33 70.9177   1
   0  -2 -10 280.138 35.7519   1
   0  -2 -10 306.733 31.4555   2
   0  -2 -11 3145.62 79.8918   1
   0  -2 -11 3224.59 67.6613   2
   0  -2 -12 7100.34 98.8638   2
   0  -2 -12 7151.07 117.523   1
   0  -2 -13 1739.77 62.7604   2
   0  -2 -13 1878.92 71.1169   1
   0  -2 -14 176.772 46.0379   2
   0  -2 -14 244.000 50.7583   1
   0  -2 -15 2501.24 90.3550   1
   0  -2 -15 2429.76 78.4170   2
   0  -2 -16 571.905 63.6686   2
   0  -2 -16 621.763 60.8942   1
   0  -2 -17 202.735 42.4923   2
   0   3 -12 140.827 43.9444   1
   0   3 -11 4123.58 94.8905   1
   0   3 -10 131.734 47.8525   1
   0   3  -9 9857.09 91.1741   2
   0   3  -9 10028.8 124.705   1
   0   3  -8 9182.06 81.1945   2
   0   3  -8 8558.71 113.981   1
   0   3  -7-18.6049 27.1666   1
   0   3  -7 22.5597 18.7148   2
   0   3  -6 167.843 27.9877   1
   0   3  -6 208.254 19.2210   2
   0   3  -5 6748.30 54.9625   2
   0   3  -5 6745.03 77.7009   1
   0   3  -4 3412.87 53.0086   1
   0   3  -4 3474.65 37.1969   2
   0   3  -3 5513.69 43.0333   2
   0   3  -3 5408.71 61.3098   1
   0   3  -2 323.700 21.4788   1
   0   3  -1 29304.6 126.942   1
   0   3  -1 29110.0 74.0456   4
   0   3   0 654.585 23.7002   1
   0  -3  -1 77129.6 157.675   2
   0   3   1 76853.2 199.444   1
   0   3   2 43654.5 98.1028   0
   0  -3  -2 43222.2 124.370   2
   0   3   3 43800.5 98.9037   0
   0  -3  -3 43948.1 133.073   2
   0   3   4 54738.6 114.819   0
   0  -3  -4 53378.5 158.855   2
   0   3   5 27772.8 81.0712   0
   0  -3  -5 26911.7 121.466   2
   0  -3  -6 127.986 24.3678   2
   0   3   6 126.563 11.0029   0
   0  -3  -7 12835.5 100.031   2
   0   3   7 12434.4 55.7847   0
   0   3   8 4174.64 33.0621   0
   0  -3  -8 4128.49 61.8983   2
   0  -3  -9 7116.24 82.3562   2
   0  -3 -10 91.9949 30.5831   2
   0  -3 -11 1325.77 52.1778   2
   0  -3 -12 3913.17 81.5484   2
   0  -3 -13 1212.48 62.7554   2
   0  -3 -14-36.4638 52.0689   2
   0  -3 -15 41.3656 43.8713   2
   0  -3 -16 326.448 47.9004   2
   0  -3 -17 2090.38 80.1044   2
   0   4 -14 240.392 51.1536   1
   0   4 -13 294.133 54.5988   1
   0   4 -12 886.178 62.9779   1
   0   4 -11 122.857 45.6137   1
   0   4 -10-40.1411 42.6745   1
   0   4  -9 16631.8 163.827   1
   0   4  -8 3496.36 80.5845   1
   0   4  -7 842.232 46.1420   1
   0   4  -7 1004.36 32.9010   2
   0   4  -6 12951.0 84.4474   2
   0   4  -6 12803.8 121.682   1
   0   4  -5 17670.4 135.640   1
   0   4  -5 18034.1 94.0869   2
   0   4  -4 2297.79 33.6960   2
   0   4  -4 2277.88 50.4001   1
   0   4  -3 21319.6 133.108   1
   0   4  -3 21446.0 91.8016   2
   0   4  -2 7770.99 49.0443   4
   0   4  -2 7804.29 78.4132   1
   0   4  -1 2562.65 25.9519   4
   0   4  -1 2519.97 47.1283   1
   0   4   0 7925.99 76.9220   1
   0   4   1 978.704 33.2946   1
   0  -4  -1 541.394 21.9620   2
   0  -4  -2 163757. 1075.60   2
   0   4   2 161469. 333.123   1
   0  -4  -3 81389.8 201.564   2
   0  -4  -4 43956.1 157.422   2
   0   4   4 44034.3 115.229   0
   0   4   5 9439.39 55.4960   0
   0  -4  -5 8822.19 76.3675   2
   0  -4  -6 68197.9 218.612   2
   0   4   6 66891.8 143.577   0
   0  -4  -7 10561.6 93.9976   2
   0   4   7 10990.7 60.0283   0
   0   4   8 12003.1 63.1108   0
   0  -4  -8 12208.6 106.143   2
   0  -4  -9 3410.58 64.1930   2
   0  -4 -10 1361.32 49.5480   2
   0  -4 -11 366.349 41.2277   2
   0  -4 -12 8459.29 111.649   2
   0  -4 -13 370.585 46.4554   2
   0  -4 -14 79.8424 39.7043   2
   0  -4 -15 283.049 45.4157   2
   0  -4 -16 133.083 47.2319   2
   0  -4 -17 271.409 50.9387   2
   0   5 -13 58.1717 45.0979   1
   0   5 -12 192.917 51.7190   1
   0   5 -11 968.972 62.8683   1
   0   5 -10 1994.79 74.1927   1
   0   5  -9 1943.99 69.2390   1
   0   5  -8 11399.0 134.955   1
   0   5  -7 257.258 43.4630   1
   0   5  -6 1458.98 56.3808   1
   0   5  -5 21199.3 160.384   1
   0   5  -4 24480.6 111.331   2
   0   5  -4 24597.9 164.064   1
   0   5  -4 24305.0 109.329   4
   0   5  -3 1244.45 26.0286   4
   0   5  -3 1206.24 43.0438   1
   0   5  -2 299.318 14.1916   4
   0   5  -2 378.334 31.3476   1
   0   5  -1 750.096 35.8070   1
   0   5   0 72.3670 24.4198   1
   0  -5  -1 2.06642 16.3406   2
   0   5   1 57.9481 25.7592   1
   0  -5  -2 1589.97 36.0976   2
   0   5   2 1744.24 45.9058   1
   0  -5  -3 109980. 255.546   2
   0   5   3 109903. 313.330   1
   0  -5  -4 2631.80 47.3457   2
   0  -5  -5 405.607 28.5229   2
   0  -5  -6 608.324 31.8260   2
   0  -5  -7 1845.91 47.1232   2
   0  -5  -8 1364.03 44.9254   2
   0  -5  -9 5278.51 81.7676   2
   0  -5 -10 2059.48 60.7995   2
   0  -5 -11 465.526 45.4481   2
   0  -5 -12 70.5795 39.7926   2
   0  -5 -13 1483.69 64.0299   2
   0  -5 -14 185.768 47.7638   2
   0  -5 -15 10.1772 44.8980   2
   0  -5 -16 92.0263 46.7417   2
   0   6 -12-43.7008 44.3876   1
   0   6 -11 231.295 47.5904   1
   0   6 -10-24.1010 45.2526   1
   0   6  -9 578.569 53.2165   1
   0   6  -8 2395.70 74.7142   1
   0   6  -7 816.427 55.8057   1
   0   6  -6 4143.04 88.0441   1
   0   6  -5 974.176 52.0506   1
   0   6  -4 4335.95 81.3953   1
   0   6  -3 912.438 46.2956   1
   0   6  -2 2953.91 65.2129   1
   0   6  -1 9159.29 104.511   1
   0   6   0-1.08978 30.0267   1
   0   6   1 1325.42 47.7870   1
   0  -6  -2 20.6183 18.8239   2
   0   6   2 40.6736 28.8148   1
   0  -6  -3 9544.54 85.8331   2
   0   6   3 9727.84 106.775   1
   0   6   4 851.393 43.8774   1
   0  -6  -4 790.271 33.9133   2
   0  -6  -5 1194.26 39.7027   2
   0  -6  -6 16134.3 123.247   2
   0  -6  -7 5737.20 79.8448   2
   0  -6  -8 1451.02 49.7903   2
   0  -6  -9 3667.33 72.3327   2
   0  -6 -10 1094.73 51.6838   2
   0  -6 -11 1142.33 54.5876   2
   0  -6 -12 1297.58 59.9545   2
   0  -6 -13 534.557 52.9628   2
   0  -6 -14 785.115 60.1065   2
   0  -6 -15-47.6852 48.5121   2
   0  -6 -16 53.3545 42.0624   2
   0   7 -11 65.8706 45.1120   1
   0   7 -10 288.737 48.7728   1
   0   7  -9 22.5960 38.5161   1
   0   7  -8 8.42098 41.3228   1
   0   7  -7 387.184 48.2155   1
   0   7  -6 5270.03 102.280   1
   0   7  -5 4628.60 92.7909   1
   0   7  -4 8753.59 118.862   1
   0   7  -3 2159.69 66.9966   1
   0   7  -2 5368.25 91.4523   1
   0   7  -1 2289.42 66.5467   1
   0   7   0 4128.26 81.7240   1
   0   7   1 2768.52 69.6791   1
   0   7   2 1277.81 55.1209   1
   0   7   3 3135.07 72.9661   1
   0  -7  -3 2978.51 53.8265   2
   0   7   4 1616.19 60.7309   1
   0  -7  -4 1770.29 46.8262   2
   0   7   5 1953.94 62.1642   1
   0  -7  -5 1962.81 49.2859   2
   0  -7  -6 203.556 30.7858   2
   0  -7  -7 4327.73 75.5670   2
   0  -7  -8 24.1590 33.1520   2
   0  -7  -9 94.6481 36.7413   2
   0  -7 -10 12.5905 37.2823   2
   0  -7 -11 3494.33 83.7510   2
   0  -7 -12 528.741 51.1979   2
   0  -7 -13 15.8495 46.6903   2
   0  -7 -14 16.5172 47.3157   2
   0  -7 -15 321.588 56.7240   2
   0   8 -10 86.0497 46.4983   1
   0   8  -9 2.44886 37.6679   1
   0   8  -8-7.86023 41.2861   1
   0   8  -7 362.390 48.2278   1
   0   8  -6 2973.21 83.8478   1
   0   8  -5 114.939 44.2389   1
   0   8  -4 1612.26 69.5332   1
   0   8  -3 5889.90 108.745   1
   0   8  -2 4748.66 96.4415   1
   0   8  -1 392.471 50.0965   1
   0   8   0 2274.36 71.1628   1
   0   8   1-37.1974 44.5775   1
   0   8   2 0.27389 44.4479   1
   0   8   3 8826.55 122.148   1
   0  -8  -3 9006.11 95.4222   2
   0  -8  -4 5997.02 80.4809   2
   0   8   4 6034.67 105.760   1
   0   8   5 228.829 49.1573   1
   0  -8  -5 313.609 34.6671   2
   0   8   6 950.370 56.2401   1
   0  -8  -6 940.885 44.0580   2
   0  -8  -7 500.543 38.5684   2
   0  -8  -8-9.05345 30.6038   2
   0  -8  -9 21.1809 38.3760   2
   0  -8 -10-5.47523 38.0372   2
   0  -8 -11 67.8171 46.2970   2
   0  -8 -12 2445.93 79.8837   2
   0  -8 -13 2185.60 81.0428   2
   0  -8 -14 12.5058 47.7412   2
   0  -8 -15 91.9236 50.8353   2
   0   9  -8 146.257 48.0268   1
   0   9  -7 347.469 50.9043   1
   0   9  -6 1973.25 77.0671   1
   0   9  -5 946.229 61.9749   1
   0   9  -4-4.77383 41.3104   1
   0   9  -3 3239.66 90.9596   1
   0   9  -2 9860.14 138.948   1
   0   9  -1 9593.21 139.945   1
   0   9   0 14733.9 169.160   1
   0   9   1 345.963 60.3102   1
   0   9   2 4157.28 94.4859   1
   0   9   3 362.480 48.5873   1
   0   9   4 398.756 49.7133   1
   0  -9  -5-13.7388 28.1861   2
   0   9   5-27.0353 41.3892   1
   0  -9  -6 69.3911 31.9985   2
   0   9   6 35.8832 43.8755   1
   0  -9  -7 687.979 44.3643   2
   0   9   7 729.731 55.0993   1
   0   9   8 328.535 46.9460   1
   0  -9  -8 367.568 42.4518   2
   0  -9  -9 192.108 39.0140   2
   0  -9 -10 34.6091 39.2791   2
   0  -9 -11 1014.98 58.5786   2
   0  -9 -12 628.979 60.0822   2
   0  -9 -13 48.2102 51.3464   2
   0  -9 -14 517.906 62.1845   2
   0  10  -6 425.311 51.1732   1
   0  10  -5 556.432 52.0083   1
   0  10  -4-44.7113 44.0585   1
   0  10  -3-45.5397 52.0006   1
   0  10  -2 1130.15 67.2330   1
   0  10  -1 49.7430 52.5282   1
   0  10   0 2374.58 86.3709   1
   0  10   1-65.5089 57.5348   1
   0  10   2 1616.73 73.3203   1
   0  10   3 77.3618 47.4411   1
   0  10   4 1247.71 67.5787   1
   0  10   5 0.74661 46.6834   1
   0  10   6 76.0058 47.3550   1
   0 -10  -7 187.181 37.1801   2
   0  10   7 144.905 49.4397   1
   0  10   8 159.805 51.5824   1
   0 -10  -8 201.132 42.4915   2
   0  10   9 50.6719 45.7408   1
   0 -10  -9 84.0213 37.5212   2
   0  10  10 189.349 53.7630   1
   0 -10 -10 111.518 44.7980   2
   0 -10 -11 227.004 47.1597   2
   0 -10 -12 1197.95 68.3273   2
   0 -10 -13 993.507 64.4550   2
   0  11  -4 20.0862 37.9136   1
   0  11  -3 367.368 57.0041   1
   0  11  -2 476.748 60.3995   1
   0  11  -1 112.104 54.5643   1
   0  11   0 104.458 58.4518   1
   0  11   1 243.423 62.5756   1
   0  11   2 4068.07 108.923   1
   0  11   3 2345.76 86.0557   1
   0  11   4 606.688 60.9137   1
   0  11   5-0.27856 52.4980   1
   0  11   6 734.142 64.3419   1
   0  11   7 16.6150 52.9815   1
   0  11   8 1.99160 48.3351   1
   0  11   9 393.426 58.5795   1
   0  11  10 315.818 64.8091   1
   0 -11 -10 253.854 53.0063   2
   0 -11 -11 191.557 55.4595   2
   0  11  11 151.043 51.9687   1
   0 -11 -12 183.756 51.2639   2
   0  12   0 211.135 56.1704   1
   0  12   1 124.191 51.7961   1
   0  12   2-16.5932 51.2851   1
   0  12   3-30.4019 58.0644   1
   0  12   4 185.707 59.4058   1
   0  12   5 298.280 62.8506   1
   0  12   6 352.274 64.4590   1
   0  12   7 642.983 75.4991   1
   0  12   8 609.562 75.7525   1
  -1  12   4 2909.26 107.920   1
  -1  12   3 1129.64 75.0821   1
   1 -11 -10 138.938 54.3625   2
  -1  11   9-40.5227 66.6083   1
   1 -11  -9 25.0535 42.4754   2
  -1  11   8 974.949 79.6391   1
   1 -11  -8 1025.55 66.4213   2
  -1  11   7 2106.08 95.7197   1
  -1  11   6 843.666 71.7226   1
  -1  11   5 81.2500 57.0315   1
  -1  11   4 798.972 65.6165   1
  -1  11   3 515.279 63.1328   1
  -1  11   2 29.6938 53.7884   1
  -1  11   1 88.5304 52.6902   1
  -1  11   0 520.446 62.3528   1
  -1  11  -1 550.600 63.7519   1
  -1  11  -2 253.796 58.0354   1
   1 -10 -12 640.977 63.6460   2
   1 -10 -11 304.353 59.6222   2
  -1  10  11 240.972 64.8719   1
   1 -10 -10 36.8798 49.6136   2
  -1  10  10-120.550 49.7104   1
   1 -10  -9 305.090 50.9791   2
  -1  10   9 454.274 61.1660   1
  -1  10   8 345.768 58.7837   1
   1 -10  -8 344.129 48.0012   2
   1 -10  -7 1.49905 40.4276   2
  -1  10   7 5.06226 50.2251   1
  -1  10   6 109.944 58.8140   1
  -1  10   5 3675.00 101.952   1
  -1  10   4 4018.70 103.544   1
  -1  10   3 26.5269 51.7645   1
  -1  10   2 28.6499 50.2735   1
  -1  10   1 344.628 53.5882   1
  -1  10   0 1442.22 73.3994   1
  -1  10  -1 1159.34 67.9154   1
  -1  10  -2 285.021 47.9749   1
  -1  10  -3 23.1119 47.0805   1
  -1  10  -4 300.805 52.8060   1
  -1  10  -5 250.808 51.5928   1
   1  -9 -13 698.764 66.5223   2
   1  -9 -12 60.0811 46.4715   2
   1  -9 -11 6.40765 44.4095   2
   1  -9 -10 166.182 45.4715   2
   1  -9  -9 86.3209 43.3806   2
  -1   9   9-46.8326 49.3202   1
   1  -9  -8 80.8390 39.6241   2
  -1   9   8-40.3004 49.4836   1
   1  -9  -7 276.198 40.1873   2
  -1   9   7 216.287 52.8721   1
  -1   9   6 236.129 53.7939   1
   1  -9  -6 293.329 42.8664   2
   1  -9  -5 1805.87 61.0332   2
  -1   9   5 1588.03 75.2223   1
  -1   9   4 2460.84 83.2962   1
  -1   9   3 5340.60 108.692   1
  -1   9   2-33.0939 50.3028   1
  -1   9   1 879.124 58.5328   1
  -1   9   0 567.114 53.1959   1
  -1   9  -1 44.6682 46.0795   1
  -1   9  -2 14.7076 45.4222   1
  -1   9  -3 351.793 48.3913   1
  -1   9  -4 1348.64 68.7878   1
  -1   9  -5 552.931 52.7921   1
  -1   9  -6 436.671 50.4847   1
  -1   9  -7 567.768 52.6626   1
   1  -8 -14 668.804 67.1114   2
   1  -8 -13 1622.41 72.7151   2
   1  -8 -12 368.737 50.9964   2
   1  -8 -11-46.4818 43.8872   2
   1  -8 -10 404.420 45.6748   2
   1  -8  -9 197.507 41.1024   2
   1  -8  -8 319.397 43.8924   2
  -1   8   7 720.833 54.8817   1
   1  -8  -7 829.008 49.9928   2
  -1   8   6 150.677 47.0300   1
   1  -8  -6 174.443 36.3051   2
   1  -8  -5 2446.48 64.6593   2
  -1   8   5 2417.74 83.5798   1
  -1   8   4 3201.28 90.2594   1
   1  -8  -4 3290.75 71.4956   2
  -1   8   3 14225.9 158.367   1
  -1   8   2 26800.5 213.419   1
  -1   8   1 11999.0 146.015   1
  -1   8   0 9665.84 130.331   1
  -1   8  -1 1259.10 62.8308   1
  -1   8  -2 106.944 43.7106   1
  -1   8  -3 2697.92 78.2392   1
  -1   8  -4 3941.09 90.9462   1
  -1   8  -5 2152.49 74.1662   1
  -1   8  -6 214.498 44.8442   1
  -1   8  -7 1218.72 66.8727   1
  -1   8  -8 356.744 51.2356   1
  -1   8  -9 19.0087 39.4205   1
   1  -7 -15 117.334 59.1026   2
   1  -7 -14 190.902 56.6146   2
   1  -7 -13 1477.66 73.5329   2
   1  -7 -12 44.5372 46.0114   2
   1  -7 -11-28.0242 43.6974   2
   1  -7 -10 222.093 44.5157   2
   1  -7  -9 1724.43 64.2079   2
   1  -7  -8 276.840 41.0269   2
   1  -7  -7 4.41637 35.4250   2
   1  -7  -6 5064.27 84.8390   2
   1  -7  -5 192.842 35.9772   2
  -1   7   5 369.509 49.8136   1
   1  -7  -4 2429.00 58.9171   2
  -1   7   4 2136.19 76.9794   1
  -1   7   3 28345.2 201.915   1
  -1   7   2 2743.93 77.5737   1
  -1   7   1 11632.7 134.214   1
  -1   7   0 12510.2 136.070   1
  -1   7  -1 8642.00 115.477   1
  -1   7  -2-31.1825 40.5937   1
  -1   7  -3 1368.77 61.0381   1
  -1   7  -4 5804.82 100.792   1
  -1   7  -5 2564.55 72.8798   1
  -1   7  -6 519.948 50.0764   1
  -1   7  -7 40.5221 40.6144   1
  -1   7  -8 1906.59 71.5452   1
  -1   7  -9 26.6329 39.2988   1
  -1   7 -10 13.9371 43.7459   1
  -1   7 -11 93.0887 49.4501   1
   1  -6 -15-0.26531 49.1363   2
   1  -6 -14 520.209 58.8658   2
   1  -6 -13 3037.30 88.4998   2
   1  -6 -12 950.875 59.8020   2
   1  -6 -11 278.909 46.8502   2
   1  -6 -10 3053.73 77.8276   2
   1  -6  -9 1599.36 58.7852   2
   1  -6  -8 643.348 45.0411   2
   1  -6  -7 63.1167 33.3518   2
   1  -6  -6 17.5282 30.8420   2
   1  -6  -5 4688.14 74.5442   2
   1  -6  -4 19041.6 136.847   2
  -1   6   4 19485.4 157.268   1
  -1   6   3 3592.77 75.8308   1
   1  -6  -3 3622.56 64.4154   2
  -1   6   2 14371.0 132.724   1
  -1   6   1 9293.35 109.259   1
  -1   6   0 1155.37 51.9836   1
  -1   6  -1 9346.20 110.114   1
  -1   6  -2 11068.2 119.196   1
  -1   6  -3 5385.98 88.0515   1
  -1   6  -4 4786.06 85.7239   1
  -1   6  -5 2245.33 63.8634   1
  -1   6  -6 559.951 46.2000   1
  -1   6  -7 376.805 43.6595   1
  -1   6  -8 1372.83 63.2359   1
  -1   6  -9-33.0203 41.7402   1
  -1   6 -10 81.5273 45.0059   1
  -1   6 -11 544.027 54.2270   1
  -1   6 -12 220.002 51.4917   1
   1  -5 -16-61.0600 55.7955   2
   1  -5 -15 269.729 50.6023   2
   1  -5 -14 1449.84 68.0117   2
   1  -5 -13 52.5749 40.6816   2
   1  -5 -12 391.830 50.8105   2
   1  -5 -11 3144.43 79.2907   2
   1  -5 -10 1301.92 55.4707   2
   1  -5  -9 10926.2 119.295   2
   1  -5  -8 1882.72 57.1415   2
   1  -5  -7 261.943 34.2670   2
   1  -5  -6 313.852 31.7449   2
   1  -5  -5 8892.06 93.1611   2
   1  -5  -4 448.302 32.5968   2
   1  -5  -3 21724.1 131.587   2
  -1   5   3 22475.1 151.228   1
  -1   5   2 6784.12 87.6888   1
   1  -5  -2 6431.17 75.0277   2
  -1   5   1 57511.0 233.536   1
  -1   5   0-26.0670 34.6612   1
  -1   5  -1 25160.1 158.023   1
  -1   5  -2 4.13930 29.2317   1
  -1   5  -3 4965.34 78.8747   1
  -1   5  -4 1451.56 47.3725   1
  -1   5  -4 1275.03 35.5360   2
  -1   5  -5 518.516 29.3991   2
  -1   5  -5 496.451 37.0247   1
  -1   5  -6 3348.76 55.7232   2
  -1   5  -6 3456.34 73.6509   1
  -1   5  -7 496.910 40.4824   1
  -1   5  -8 3736.23 82.1022   1
  -1   5  -9 172.063 42.5260   1
  -1   5 -10 2232.80 77.2109   1
  -1   5 -11 74.5291 43.2464   1
  -1   5 -12 715.103 61.9944   1
  -1   5 -13 68.6169 50.7494   1
   1  -4 -16 40.9835 52.2244   2
   1  -4 -15-13.8073 41.7867   2
   1  -4 -14-32.0405 43.1184   2
   1  -4 -13-25.0562 40.9412   2
   1  -4 -12 417.411 46.7126   2
   1  -4 -11 2307.71 67.1492   2
   1  -4 -10 4760.41 84.4798   2
   1  -4  -9 64.6407 31.6337   2
   1  -4  -8 151.915 18.5593   3
   1  -4  -8 181.171 34.3751   2
   1  -4  -7 2736.25 58.0985   2
   1  -4  -6 31185.5 164.390   2
   1  -4  -5 11228.9 95.0936   2
   1  -4  -4 16400.8 110.752   2
   1  -4  -3 8738.67 80.1934   2
   1  -4  -2 4162.67 55.5951   2
  -1   4   2 4466.05 63.9963   1
  -1   4   1 27677.2 146.693   1
  -1   4   0 2240.42 47.4702   1
  -1   4  -1 50461.9 200.852   1
  -1   4  -2 59601.4 219.467   1
  -1   4  -3 562.739 34.4717   1
  -1   4  -4 356.110 23.4395   2
  -1   4  -4 309.404 28.5758   1
  -1   4  -5 9316.49 100.496   1
  -1   4  -5 9205.39 79.3423   2
  -1   4  -6 4003.71 56.5005   2
  -1   4  -6 3939.31 70.1233   1
  -1   4  -7 10914.0 120.806   1
  -1   4  -7 11500.7 94.8648   2
  -1   4  -8 8198.67 108.327   1
  -1   4  -8 8040.94 85.6055   2
  -1   4  -9 126.179 27.3278   2
  -1   4  -9 188.358 44.6353   1
  -1   4 -10 738.941 54.1091   1
  -1   4 -11 1161.76 62.3713   1
  -1   4 -12 741.261 56.6250   1
  -1   4 -13 17.9268 43.8105   1
  -1   4 -14 214.055 46.5988   1
   1  -3 -17-36.8381 38.6625   2
   1  -3 -16 14.9620 42.3324   2
   1  -3 -15 1781.13 70.1919   2
   1  -3 -14 125.880 43.3877   2
   1  -3 -13 474.009 45.5070   2
   1  -3 -12 2150.04 64.7972   2
   1  -3 -11 6173.38 93.2633   2
   1  -3 -10 11327.6 116.947   2
   1  -3  -9 18462.9 138.710   2
   1  -3  -8 38.8785 16.3292   3
   1  -3  -8 60.7378 30.0895   2
   1  -3  -7 42884.9 137.430   3
   1  -3  -7 43003.0 189.751   2
   1  -3  -6 14420.3 80.0091   3
   1  -3  -6 14386.4 106.614   2
   1  -3  -5 84093.2 241.254   2
   1  -3  -4 45863.3 167.487   2
   1  -3  -3 8545.65 71.0559   2
   1  -3  -2 9281.79 71.5375   2
  -1   3   1 203383. 1385.49   1
  -1   3   0 18255.9 105.305   1
  -1   3  -1 20353.9 112.864   1
  -1   3  -2 8686.40 76.8706   1
  -1   3  -3 63925.3 210.146   1
  -1   3  -4 50.1632 16.2433   2
  -1   3  -4-8.75679 20.6091   1
  -1   3  -5 235.130 20.5204   2
  -1   3  -5 226.450 24.3136   1
  -1   3  -6 12417.9 112.264   1
  -1   3  -6 12450.8 91.0514   2
  -1   3  -7 8675.53 98.7383   1
  -1   3  -7 9011.77 81.1888   2
  -1   3  -8 212.813 30.3393   2
  -1   3  -8 352.945 37.0304   1
  -1   3  -9 12113.4 133.604   1
  -1   3  -9 11718.0 105.116   2
  -1   3 -10 2099.51 55.1700   2
  -1   3 -10 1878.86 67.7857   1
  -1   3 -11 1773.98 67.7801   1
  -1   3 -11 1450.13 47.9595   2
  -1   3 -12 363.264 51.0883   1
  -1   3 -13 903.684 61.1057   1
  -1   3 -14-36.2002 41.9257   1
   1  -2 -17 26.3249 42.3543   2
   1  -2 -16 720.132 59.1284   2
   1  -2 -15 595.325 53.7658   2
   1  -2 -14 1030.70 62.8891   1
   1  -2 -14 1082.15 55.6110   2
   1  -2 -13 196.990 41.7171   1
   1  -2 -13 270.562 40.3708   2
   1  -2 -12 202.369 41.1067   1
   1  -2 -12 248.855 37.2446   2
   1  -2 -11 36.1843 34.5234   2
   1  -2 -11 38.8332 37.1949   1
   1  -2 -10 19306.7 168.592   1
   1  -2 -10 20252.7 147.116   2
   1  -2  -9 530.269 40.5336   1
   1  -2  -9 472.115 35.4991   2
   1  -2  -8 6173.17 76.8060   2
   1  -2  -8 5939.96 49.1847   3
   1  -2  -7 12347.9 98.4229   2
   1  -2  -7 12106.2 69.4263   3
   1  -2  -6 14520.4 98.8777   2
   1  -2  -6 14070.5 72.0498   3
   1  -2  -5 2338.53 40.5723   2
   1  -2  -5 2301.34 30.1240   3
   1  -2  -4 177.300 12.2943   3
   1  -2  -4 438.381 21.8205   2
   1  -2  -3 66.1090 14.9609   2
   1  -2  -2 4981.69 48.0346   2
  -1   2   1 19358.4 90.7153   1
   1  -2  -1 19085.2 89.3401   2
  -1   2   0 175745. 1070.13   1
  -1   2  -1 13956.5 78.6952   1
  -1   2  -2 16771.3 89.7972   1
  -1   2  -3 119.466 14.1764   1
  -1   2  -3 165.278 14.0147   2
  -1   2  -4 3631.71 49.4092   1
  -1   2  -4 3496.30 43.2766   2
  -1   2  -5 19481.2 120.402   1
  -1   2  -5 19440.9 101.654   2
  -1   2  -6 4275.06 52.8538   2
  -1   2  -6 4244.69 62.5164   1
  -1   2  -7 6785.01 70.0040   2
  -1   2  -7 6760.40 86.9024   1
  -1   2  -8 32668.8 191.236   1
  -1   2  -8 33656.5 162.033   2
  -1   2  -9 90.8138 28.3136   2
  -1   2  -9 48.2783 30.9679   1
  -1   2 -10 133.797 33.3581   2
  -1   2 -10 44.1694 43.2906   1
  -1   2 -11 175.847 35.4217   2
  -1   2 -11 164.894 45.9397   1
  -1   2 -12 347.429 38.6067   2
  -1   2 -12 278.003 43.8990   1
  -1   2 -13-14.8546 40.7298   1
  -1   2 -13 55.3674 32.4325   2
  -1   2 -14-66.7114 46.9670   1
  -1   2 -15 19.3175 38.9725   1
   1  -1 -16 1.12701 52.3052   1
   1  -1 -16 119.828 42.6686   2
   1  -1 -15 369.943 57.7674   1
   1  -1 -15 591.290 51.4430   2
   1  -1 -14 1741.05 62.6326   2
   1  -1 -14 1523.20 73.4494   1
   1  -1 -13 4.60745 34.7840   2
   1  -1 -12 2159.92 62.6420   2
   1  -1 -12 1945.38 67.1522   1
   1  -1 -11 1022.65 51.9236   1
   1  -1 -11 1035.03 49.0716   2
   1  -1 -10 7106.27 90.4165   2
   1  -1 -10 6637.81 101.935   1
   1  -1  -9 3054.28 58.6353   2
   1  -1  -9 2807.85 64.6229   1
   1  -1  -8 385.933 30.5754   2
   1  -1  -8 390.282 32.4430   1
   1  -1  -7 93910.3 287.359   1
   1  -1  -7 96122.6 253.547   2
   1  -1  -7 94300.9 175.968   3
   1  -1  -6 22573.4 114.227   2
   1  -1  -6 22447.0 84.0546   3
   1  -1  -6 22314.8 131.179   1
   1  -1  -5 13539.5 93.6391   1
   1  -1  -5 12792.0 63.0619   3
   1  -1  -5 13504.3 83.8713   2
   1  -1  -4 82.3774 10.4355   3
   1  -1  -4 143.108 15.6030   2
   1  -1  -4 107.128 15.9056   1
   1  -1  -3 132949. 744.034   3
   1  -1  -3 135488. 906.590   2
   1  -1  -2 42.2535 9.79021   2
   1  -1  -2 49.5734 7.98382   3
   1  -1  -1 21917.0 82.3277   2
   1  -1  -1 21923.1 70.6034   3
  -1   1   0 152689. 761.436   1
  -1   1  -1 141271. 769.801   1
  -1   1  -2 83.8031 8.73600   1
  -1   1  -3 65279.9 155.583   2
  -1   1  -3 65750.5 163.302   1
  -1   1  -4 25120.4 102.969   2
  -1   1  -4 24877.2 111.624   1
  -1   1  -5 10850.4 83.1852   1
  -1   1  -5 10902.1 73.6367   2
  -1   1  -6 1913.72 40.3916   1
  -1   1  -6 1988.15 36.2730   2
  -1   1  -7 6004.78 65.8103   2
  -1   1  -7 6229.74 77.5223   1
  -1   1  -8 18674.7 140.478   1
  -1   1  -8 18865.4 117.720   2
  -1   1  -9-43.5049 33.8086   1
  -1   1  -9 12.3836 26.6735   2
  -1   1 -10 46.7252 29.6720   2
  -1   1 -10-27.2834 34.6410   1
  -1   1 -11 8570.71 100.284   2
  -1   1 -11 8324.50 119.025   1
  -1   1 -12 445.775 40.4596   2
  -1   1 -12 241.860 42.0797   1
  -1   1 -13 563.047 49.4251   1
  -1   1 -13 742.865 48.5814   2
  -1   1 -14 89.9117 50.0890   1
  -1   1 -14 137.751 41.7679   2
  -1   1 -15 53.1131 33.4503   2
  -1   1 -15 103.984 45.7078   1
  -1   1 -16 106.415 46.3904   1
   1   0 -16 424.948 66.1437   1
   1   0 -15 469.551 60.6009   1
   1   0 -14 105.177 48.9617   1
   1   0 -14 110.719 35.6611   2
   1   0 -13 374.257 45.5685   1
   1   0 -13 379.079 45.0395   2
   1   0 -12 451.726 40.7136   2
   1   0 -12 486.035 44.5897   1
   1   0 -11 1324.82 55.6235   1
   1   0 -11 1387.84 49.3607   2
   1   0 -10 3911.73 80.9117   1
   1   0 -10 4288.30 68.3873   2
   1   0  -9 2939.86 65.2879   1
   1   0  -9 2985.30 53.9658   2
   1   0  -8 4941.15 74.6630   1
   1   0  -8 5208.38 62.1488   2
   1   0  -7 5163.97 39.3928   3
   1   0  -7 5638.77 59.5754   2
   1   0  -7 5132.96 72.1203   1
   1   0  -6 12769.4 99.2410   1
   1   0  -6 12989.3 60.5027   3
   1   0  -5 10366.2 54.2329   3
   1   0  -5 10035.8 79.0428   1
   1   0  -4 17613.4 92.3055   1
   1   0  -4 18073.3 69.7045   3
   1   0  -4 18352.2 80.7587   2
   1   0  -3 65995.8 136.719   2
   1   0  -3 66695.4 154.917   1
   1   0  -3 66896.3 124.582   3
   1   0  -2 42897.8 100.803   2
   1   0  -2 42633.1 96.4922   3
   1   0  -2 42707.4 102.768   1
   1   0  -2 42522.5 102.284   4
   1   0  -1 10912.6 48.5084   4
   1   0  -1 10850.9 45.9891   3
   1   0  -1 10869.1 47.6452   2
   1   0   0 790.857 13.0256   3
  -1   0  -2 169382. 747.372   1
  -1   0  -2 168565. 829.894   2
  -1   0  -3 2566.89 29.4337   1
  -1   0  -3 2493.22 29.1199   2
  -1   0  -4 9329.94 60.4292   2
  -1   0  -4 10120.4 66.9488   1
  -1   0  -5 8172.65 62.2144   2
  -1   0  -5 7184.80 65.1569   1
  -1   0  -6 915.682 26.4225   2
  -1   0  -6 921.086 29.3342   1
  -1   0  -7 5072.36 59.0731   2
  -1   0  -7 5122.27 66.8309   1
  -1   0  -8 23796.0 153.071   1
  -1   0  -8 23125.3 130.244   2
  -1   0  -9-6.18912 29.3492   1
  -1   0  -9 20.5103 25.2670   2
  -1   0 -10 8176.70 105.758   1
  -1   0 -10 8377.97 92.2290   2
  -1   0 -11 2752.06 63.1538   2
  -1   0 -11 2681.60 72.9606   1
  -1   0 -12 8720.07 105.542   2
  -1   0 -12 8213.70 121.325   1
  -1   0 -13-20.2457 37.9527   1
  -1   0 -13 23.5883 35.6482   2
  -1   0 -14 755.195 56.0965   1
  -1   0 -14 837.951 54.3043   2
  -1   0 -15 121.888 43.4450   2
  -1   0 -15 130.402 47.8389   1
  -1   0 -16-39.7271 39.3523   2
  -1   0 -16 13.2718 45.0139   1
  -1   0 -17-30.6597 40.3207   2
   1   1 -15 528.223 62.9823   1
   1   1 -14 2574.90 88.3961   1
   1   1 -13-9.97121 41.1432   1
   1   1 -12 253.691 30.8302   2
   1   1 -12 399.813 44.4144   1
   1   1 -11-9.27461 29.7721   2
   1   1 -11-66.2854 34.7464   1
   1   1 -10 2216.23 51.0626   2
   1   1 -10 2032.78 64.4700   1
   1   1  -9 1871.12 58.6225   1
   1   1  -9 2018.39 45.3966   2
   1   1  -8 1037.06 43.8936   1
   1   1  -8 1142.41 32.8236   2
   1   1  -7 10750.8 102.820   1
   1   1  -7 11314.0 55.7869   3
   1   1  -7 11475.8 80.6762   2
   1   1  -6 14645.2 82.6681   2
   1   1  -6 14195.7 107.266   1
   1   1  -6 14688.2 63.0034   3
   1   1  -5 18512.0 69.1794   3
   1   1  -5 18114.2 109.627   1
   1   1  -5 18875.6 84.1535   2
   1   1  -4 61727.5 133.311   2
   1   1  -4 60702.2 179.470   1
   1   1  -4 61863.3 123.011   3
   1   1  -3 999999. 2469.65   1
   1   1  -3 963819. 1882.21   3
   1   1  -2 286795. 969.962   3
   1   1  -2 288779. 1158.07   4
   1   1  -2 287338. 1130.00   1
   1   1  -1 3389.83 31.1756   4
   1   1  -1 3414.27 26.0425   3
   1   1   0 61977.9 370.025   0
   1   1   0 63892.2 414.102   3
   1   1   1 13417.2 44.7987   3
  -1  -1  -2 140399. 687.398   2
  -1  -1  -3 43186.6 113.308   1
  -1  -1  -3 42647.0 110.361   2
  -1  -1  -4 23441.4 98.2303   1
  -1  -1  -4 22858.6 91.4889   2
   1   1   5 46104.9 104.375   0
  -1  -1  -5 45556.9 155.156   1
  -1  -1  -5 44772.1 142.400   2
   1   1   6 8621.96 47.8843   0
  -1  -1  -6 8746.65 76.8853   1
  -1  -1  -6 8679.96 69.2656   2
   1   1   7 2345.26 26.5011   0
  -1  -1  -7 2334.48 45.9259   1
  -1  -1  -7 2366.69 42.7780   2
  -1  -1  -8 3443.33 54.6573   2
   1   1   8 3761.73 33.8036   0
  -1  -1  -8 3548.63 61.1345   1
  -1  -1  -9 641.423 32.7378   2
  -1  -1  -9 705.743 34.7794   1
  -1  -1 -10 2155.21 52.2098   2
  -1  -1 -10 2096.18 58.4622   1
  -1  -1 -11 2414.65 59.9146   2
  -1  -1 -11 2198.32 66.9278   1
  -1  -1 -12 3569.90 87.7657   1
  -1  -1 -12 3485.03 74.7542   2
  -1  -1 -13 993.934 60.1666   1
  -1  -1 -13 940.871 51.4759   2
  -1  -1 -14 272.165 45.4566   1
  -1  -1 -14 305.350 46.7795   2
  -1  -1 -15 3615.99 101.364   1
  -1  -1 -15 3412.59 86.0495   2
  -1  -1 -16 511.637 52.0966   1
  -1  -1 -16 506.960 57.5568   2
  -1  -1 -17 151.641 45.5677   2
   1   2 -15 690.238 67.9963   1
   1   2 -14 58.4734 51.1802   1
   1   2 -13-52.9470 43.9294   1
   1   2 -12 665.486 51.2963   1
   1   2 -11 1382.59 60.5295   1
   1   2 -10-23.2893 21.3502   2
   1   2 -10-14.8151 34.8545   1
   1   2  -9 8446.06 109.901   1
   1   2  -9 8855.90 82.5704   2
   1   2  -8 7874.40 72.0028   2
   1   2  -8 7362.87 96.2700   1
   1   2  -7 9408.27 100.529   1
   1   2  -7 9661.25 54.4922   3
   1   2  -7 9754.18 72.3885   2
   1   2  -6 41068.6 107.759   3
   1   2  -6 41610.9 132.569   2
   1   2  -5 3460.61 33.3213   3
   1   2  -5 3413.74 36.0942   2
   1   2  -5 3341.29 53.3286   1
   1   2  -4 67848.2 199.379   1
   1   2  -4 68127.8 130.772   2
   1   2  -4 68308.2 133.549   3
   1   2  -3 85336.2 185.199   4
   1   2  -3 86629.0 479.161   2
   1   2  -3 86892.6 202.432   1
   1   2  -3 86475.9 401.700   0
   1   2  -2 2322.25 32.5321   1
   1   2  -2 2291.84 31.9659   4
   1   2  -2 2462.23 19.1427   0
   1   2  -2 2329.15 25.7569   3
   1   2  -1 230170. 1085.80   4
   1   2  -1 231100. 1070.77   1
   1   2  -1 226579. 876.186   3
   1   2  -1 228105. 710.946   0
   1   2   0 2701.31 21.5376   0
   1   2   0 2597.53 23.2969   3
   1   2   0 2629.68 28.5755   1
   1   2   1 46906.1 91.4010   0
   1   2   1 47575.3 110.996   1
   1   2   1 46914.6 91.5866   3
  -1  -2  -2 88055.1 541.284   2
   1   2   2 87028.9 465.740   3
   1   2   3 15382.5 47.3459   3
   1   2   3 15620.0 57.7597   0
  -1  -2  -3 15821.5 67.8203   2
  -1  -2  -4 14422.8 73.5116   2
   1   2   4 14172.3 57.7226   0
   1   2   4 14403.1 41.4383   3
   1   2   5 4428.83 34.0789   0
  -1  -2  -5 4377.84 46.5909   2
  -1  -2  -5 4415.45 51.6780   1
  -1  -2  -6 6697.47 62.2758   2
  -1  -2  -6 6588.89 69.0783   1
   1   2   6 6562.04 41.8282   0
  -1  -2  -7 13503.1 93.7123   2
   1   2   7 13661.6 60.4805   0
  -1  -2  -7 13937.8 108.288   1
  -1  -2  -8 654.272 32.7070   1
   1   2   8 729.239 16.7734   0
  -1  -2  -8 660.554 30.3263   2
  -1  -2  -9 1587.33 46.3946   1
  -1  -2  -9 1567.63 42.7130   2
  -1  -2 -10 9493.47 112.040   1
  -1  -2 -10 9036.25 95.4830   2
  -1  -2 -11 499.548 42.9268   1
  -1  -2 -11 607.395 41.1685   2
  -1  -2 -12 13445.6 152.106   1
  -1  -2 -12 13349.2 129.777   2
  -1  -2 -13 962.421 53.9476   2
  -1  -2 -13 1039.77 61.5872   1
  -1  -2 -14 5064.75 94.8279   2
  -1  -2 -14 5507.38 111.163   1
  -1  -2 -15 1303.46 63.1982   2
  -1  -2 -15 1555.10 77.4416   1
  -1  -2 -16 455.714 59.1410   1
  -1  -2 -16 210.341 46.2542   2
  -1  -2 -17 19.4415 45.0496   2
   1   3 -14 1067.78 70.1151   1
   1   3 -12 2681.72 87.2215   1
   1   3 -11 1184.51 61.2912   1
   1   3 -10 1729.54 64.0218   1
   1   3  -9 676.325 46.1726   1
   1   3  -8 260.626 39.4968   1
   1   3  -7 7575.11 53.5056   3
   1   3  -7 7673.51 64.6599   2
   1   3  -7 7144.17 95.2072   1
   1   3  -6 4472.21 45.3803   2
   1   3  -6 4275.52 40.4737   3
   1   3  -6 4137.69 66.7080   1
   1   3  -5 1107.59 23.2640   3
   1   3  -5 972.868 35.8523   1
   1   3  -5 1114.61 22.9369   2
   1   3  -4 631.122 15.6473   2
   1   3  -4 605.586 28.0285   1
   1   3  -4 602.864 23.1788   4
   1   3  -4 659.876 19.3531   3
   1   3  -3 61188.7 193.926   1
   1   3  -3 62033.6 399.892   2
   1   3  -3 61280.0 108.221   0
   1   3  -3 60896.3 136.122   3
   1   3  -3 61166.8 166.829   4
   1   3  -2 41490.9 149.502   1
   1   3  -2 41481.6 131.021   4
   1   3  -2 41650.1 110.631   3
   1   3  -2 42141.4 89.3425   0
   1   3  -1 135298. 900.959   4
   1   3  -1 133722. 651.725   0
   1   3  -1 134763. 250.974   1
   1   3  -1 133360. 760.181   3
   1   3   0 35793.2 128.624   1
   1   3   0 35984.6 85.5589   0
   1   3   0 35364.5 96.3024   3
   1   3   1 92154.7 561.197   0
   1   3   1 93259.1 202.802   1
  -1  -3  -1 94109.1 510.465   2
   1   3   2 60766.4 116.871   0
  -1  -3  -2 60215.6 120.287   2
   1   3   2 60089.0 117.194   3
  -1  -3  -3 76.4765 11.4912   2
   1   3   3 96.1545 10.1894   0
   1   3   3 137.814 9.27730   3
   1   3   4 15010.5 55.0385   3
   1   3   4 15227.9 63.0468   0
  -1  -3  -4 15232.8 77.7309   2
  -1  -3  -5 358.735 18.1495   2
   1   3   5 390.292 13.7638   0
   1   3   6 1011.00 19.8798   0
  -1  -3  -6 1002.41 28.9557   2
  -1  -3  -7 7408.90 71.7825   2
   1   3   7 7436.57 47.6560   0
   1   3   8 42.2741 10.8109   0
  -1  -3  -8 32.3052 21.5069   2
  -1  -3  -9 669.173 33.6755   2
  -1  -3 -10 1576.54 46.7797   2
  -1  -3 -11 1956.90 56.6757   2
  -1  -3 -12 1405.69 56.5726   2
  -1  -3 -13 2765.34 74.5039   2
  -1  -3 -14 2398.25 75.2243   2
  -1  -3 -15 75.5031 46.8827   2
  -1  -3 -16 260.989 53.8135   2
  -1  -3 -17 134.350 55.5977   2
   1   4 -14 73.6251 54.3639   1
   1   4 -13 492.828 64.3277   1
   1   4 -12 203.837 52.4576   1
   1   4 -11 1472.81 69.3082   1
   1   4 -10-10.9205 40.1516   1
   1   4  -9 282.921 43.0632   1
   1   4  -8 11.6189 34.6743   1
   1   4  -7 9801.26 110.947   1
   1   4  -7 9685.77 66.3526   3
   1   4  -6 659.766 29.3474   4
   1   4  -6 711.471 23.0258   3
   1   4  -6 678.168 38.0763   1
   1   4  -5 8899.67 95.7532   1
   1   4  -5 9128.83 78.7095   4
   1   4  -5 9094.47 62.4555   3
   1   4  -4 36413.9 176.928   1
   1   4  -4 37324.4 96.2299   2
   1   4  -4 35941.8 145.333   4
   1   4  -4 36042.7 120.006   3
   1   4  -3 4186.82 28.8986   2
   1   4  -3 4143.04 49.1275   4
   1   4  -3 4018.88 58.8252   1
   1   4  -3 4087.06 41.8343   3
   1   4  -2 4473.77 48.5314   4
   1   4  -2 4476.90 58.9099   1
   1   4  -2 4437.04 42.2154   3
   1   4  -2 4724.51 36.9212   0
   1   4  -1 13050.8 93.2324   1
   1   4  -1 12945.6 59.5000   0
   1   4  -1 12672.0 67.1934   3
   1   4  -1 12584.8 75.9034   4
  -1  -4   0 986.630 16.2324   2
   1   4   0 1090.55 20.0604   0
   1   4   0 1118.78 22.4662   3
   1   4   0 1042.37 32.6937   1
   1   4   1 22338.4 117.972   1
   1   4   1 22893.8 85.3206   3
  -1  -4  -1 22175.1 75.5844   2
   1   4   1 22294.7 79.7614   0
  -1  -4  -2 28117.6 93.4789   2
   1   4   2 28408.0 94.4542   3
   1   4   2 28670.5 90.8479   0
   1   4   2 28297.7 133.827   1
   1   4   3 14953.3 67.2512   0
  -1  -4  -3 15157.7 76.3852   2
   1   4   4 18597.9 76.7921   0
  -1  -4  -4 18834.2 91.4758   2
  -1  -4  -5 4599.92 51.3290   2
   1   4   5 4709.19 40.6562   0
  -1  -4  -6 38059.3 151.833   2
   1   4   6 37496.9 111.856   0
   1   4   7 32.8592 12.9377   0
  -1  -4  -7 59.0649 21.7928   2
   1   4   8 2382.65 31.2497   0
  -1  -4  -8 2424.25 49.2078   2
  -1  -4  -9 2070.90 49.8970   2
   1   4   9 2060.62 29.7729   0
  -1  -4 -10 5913.02 82.5403   2
  -1  -4 -11 952.141 47.7083   2
  -1  -4 -12 291.134 44.3605   2
  -1  -4 -13 16.7559 43.9712   2
  -1  -4 -14 9854.66 129.102   2
  -1  -4 -15 4810.94 101.108   2
  -1  -4 -16 1650.56 79.4472   2
   1   5 -13 198.485 54.4403   1
   1   5 -13 159.737 32.3428   4
   1   5 -12 2422.82 89.9718   1
   1   5 -12 2593.17 68.6589   4
   1   5 -11 1062.19 69.0285   1
   1   5 -11 1155.52 47.4897   4
   1   5 -10 6.01749 26.0842   4
   1   5 -10-55.2099 47.6222   1
   1   5  -9 1363.74 45.5899   4
   1   5  -9 1362.74 61.0615   1
   1   5  -8 2069.93 50.1571   4
   1   5  -8 2001.61 65.9511   1
   1   5  -7 5516.98 73.0104   4
   1   5  -7 5597.35 91.6127   1
   1   5  -6 9115.39 88.0083   4
   1   5  -6 9182.76 69.9608   3
   1   5  -6 9336.08 109.779   1
   1   5  -5 708.345 39.8210   1
   1   5  -5 687.528 29.4898   4
   1   5  -5 754.186 27.0524   3
   1   5  -4 1385.04 32.5801   3
   1   5  -4 1163.93 43.8987   1
   1   5  -4 1261.93 33.8180   4
   1   5  -3 1220.57 41.9765   1
   1   5  -3 1150.85 31.2256   4
   1   5  -3 1180.00 30.1695   3
   1   5  -2 3044.89 40.8759   3
   1   5  -2 2966.47 56.5746   1
   1   5  -2 3048.90 43.3059   4
   1   5  -1 35257.3 173.196   1
   1   5  -1 35932.8 110.693   0
   1   5  -1 34808.0 123.567   3
   1   5   0 7020.82 56.4081   3
   1   5   0 7036.25 79.9390   1
   1   5   1 27281.9 105.524   3
  -1  -5  -1 26125.7 96.9714   2
   1   5   1 27098.0 97.2508   0
   1   5   1 27304.2 147.884   1
   1   5   2 21656.6 88.6377   0
  -1  -5  -2 21714.9 93.1764   2
   1   5   2 21780.1 134.813   1
   1   5   3 26698.6 98.2461   0
   1   5   3 26389.5 149.833   1
  -1  -5  -3 27398.0 111.713   2
  -1  -5  -4 26476.8 117.663   2
   1   5   4 26684.3 98.8458   0
  -1  -5  -5 14682.8 95.2198   2
   1   5   5 14608.1 75.4126   0
   1   5   6 19698.1 88.7550   0
  -1  -5  -6 21103.5 124.703   2
  -1  -5  -7 5554.17 71.8172   2
   1   5   7 5132.06 47.6316   0
   1   5   8 1706.92 30.1814   0
  -1  -5  -8 1682.29 46.5919   2
   1   5   9 822.385 24.3557   0
  -1  -5  -9 834.550 40.3763   2
  -1  -5 -10 863.882 46.7163   2
  -1  -5 -11 5836.71 90.8571   2
  -1  -5 -12 4057.82 84.7169   2
  -1  -5 -13 36.8527 46.6517   2
  -1  -5 -14 582.846 55.8625   2
  -1  -5 -15-10.6258 56.4859   2
  -1  -5 -16 274.448 55.2155   2
   1   6 -12 501.963 61.9409   1
   1   6 -11 1070.24 67.1601   1
   1   6 -10 342.477 55.7477   1
   1   6  -9 95.5707 43.2567   1
   1   6  -8 1693.76 65.0766   1
   1   6  -7 9537.59 126.560   1
   1   6  -6 1817.19 45.8111   4
   1   6  -6 1891.35 62.1424   1
   1   6  -5 439.586 27.6953   4
   1   6  -5 329.360 39.6694   1
   1   6  -4 473.974 26.2794   4
   1   6  -4 442.795 37.9324   1
   1   6  -3 8923.98 79.9239   4
   1   6  -3 9133.87 104.252   1
   1   6  -2 491.602 36.3467   1
   1   6  -1 231.662 31.6945   1
   1   6   0 9470.42 101.465   1
   1   6   0 9545.63 65.5895   0
  -1  -6  -1 5822.27 52.3597   2
   1   6   1 5974.42 81.6885   1
   1   6   1 6219.59 54.7889   0
   1   6   2 23.8726 30.1274   1
   1   6   2 59.6807 19.5578   0
  -1  -6  -2 55.0495 15.1368   2
   1   6   3 14323.1 123.828   1
  -1  -6  -3 13808.6 88.2025   2
   1   6   3 14423.0 82.7182   0
   1   6   4 777.640 25.7084   0
  -1  -6  -4 718.337 27.4285   2
   1   6   4 623.473 38.4803   1
  -1  -6  -5 4735.31 59.5004   2
   1   6   5 4970.55 50.1717   0
  -1  -6  -6 12753.4 100.529   2
   1   6   6 12558.9 77.0520   0
   1   6   7 13385.2 80.4760   0
  -1  -6  -7 13512.1 109.012   2
  -1  -6  -8 1515.34 45.9458   2
   1   6   8 1486.27 31.9160   0
  -1  -6  -9 536.101 37.8364   2
   1   6   9 512.639 24.5606   0
  -1  -6 -10 1501.23 52.6444   2
  -1  -6 -11 8198.57 108.132   2
  -1  -6 -12 1301.87 56.9741   2
  -1  -6 -13 65.3832 43.6991   2
  -1  -6 -14 828.244 56.8213   2
  -1  -6 -15 110.887 51.5793   2
  -1  -6 -16 72.0130 48.1080   2
   1   7 -11 325.209 52.9023   1
   1   7 -10-55.8988 51.6351   1
   1   7  -9 155.428 46.6622   1
   1   7  -8 111.534 43.3192   1
   1   7  -7 299.673 46.1736   1
   1   7  -6 736.062 53.6283   1
   1   7  -5-33.0056 37.8851   1
   1   7  -4 2671.06 71.4225   1
   1   7  -3 4895.02 85.5494   1
   1   7  -2 885.042 46.3372   1
   1   7  -1 415.745 39.0543   1
   1   7   0 504.862 39.3228   1
   1   7   1 1650.32 55.3379   1
  -1  -7  -2 1290.40 32.0720   2
   1   7   2 1299.37 51.6827   1
   1   7   3 3741.82 49.1121   0
  -1  -7  -3 3446.59 50.3413   2
   1   7   3 3597.39 73.5368   1
   1   7   4 4179.79 81.1998   1
  -1  -7  -4 4184.09 57.3533   2
   1   7   4 4636.12 54.6389   0
  -1  -7  -5 3763.04 58.4964   2
   1   7   5 3617.94 75.0637   1
   1   7   5 4088.35 51.7430   0
  -1  -7  -6 7679.16 84.9264   2
   1   7   6 8198.46 73.2389   0
  -1  -7  -7 5548.07 76.6007   2
   1   7   7 6278.34 65.3160   0
  -1  -7  -8 2331.43 57.0748   2
   1   7   8 2558.76 46.5005   0
   1   7   9 262.177 27.4369   0
  -1  -7  -9 209.894 33.8943   2
   1   7  10 783.957 31.3811   0
  -1  -7 -10 785.448 46.5071   2
  -1  -7 -11 222.632 41.2113   2
  -1  -7 -12 860.071 52.6908   2
  -1  -7 -13 64.3354 43.3232   2
  -1  -7 -14 110.941 45.2086   2
  -1  -7 -15 171.728 51.8414   2
   1   8 -10 30.6010 44.9602   1
   1   8  -9 210.140 50.3593   1
   1   8  -8 831.048 61.2265   1
   1   8  -7 2332.90 77.5896   1
   1   8  -6 143.175 48.3134   1
   1   8  -5 1588.71 64.9318   1
   1   8  -4 958.742 56.3102   1
   1   8  -3 4219.06 89.7272   1
   1   8  -2 620.460 48.5672   1
   1   8  -1 1822.59 63.5089   1
   1   8   0 141.643 38.8848   1
   1   8   1 635.378 45.7372   1
   1   8   2 461.091 42.6469   1
   1   8   3 659.410 44.7495   1
   1   8   4 272.507 27.4422   0
  -1  -8  -4 298.185 25.3870   2
   1   8   4 351.395 41.0803   1
   1   8   5 1691.65 41.5229   0
  -1  -8  -5 1387.44 41.9078   2
   1   8   5 1508.88 59.9367   1
   1   8   6 183.236 27.7429   0
  -1  -8  -6 173.171 31.5544   2
   1   8   6 168.734 38.8079   1
  -1  -8  -7 607.069 40.6454   2
   1   8   7 645.225 33.2452   0
   1   8   8 2406.04 47.7412   0
  -1  -8  -8 2259.59 60.4730   2
  -1  -8  -9 1323.40 53.1220   2
   1   8   9 1405.33 39.7273   0
  -1  -8 -10-44.4424 38.3394   2
   1   8  10 43.9606 24.8676   0
  -1  -8 -11 1764.66 65.3619   2
  -1  -8 -12 111.906 43.5629   2
  -1  -8 -13 541.622 54.2852   2
  -1  -8 -14 751.356 56.6946   2
  -1  -8 -15-26.8468 47.5524   2
   1   9  -8 66.4209 43.2196   1
   1   9  -7 175.157 49.2306   1
   1   9  -6 261.391 51.5722   1
   1   9  -5 173.101 45.7189   1
   1   9  -4 838.586 60.2043   1
   1   9  -3-31.5143 43.8198   1
   1   9  -2 632.333 53.4481   1
   1   9  -1 8.21744 42.5599   1
   1   9   0 3242.16 85.1683   1
   1   9   1 2864.04 80.4141   1
   1   9   2 2366.39 110.447   1
   1   9   3 639.757 97.2364   1
   1   9   5 240.952 96.1872   1
  -1  -9  -6 1530.90 48.2916   2
   1   9   6 1688.43 67.9618   1
  -1  -9  -7 320.457 33.9341   2
   1   9   7 286.315 45.1394   1
  -1  -9  -8-27.0306 36.7753   2
   1   9   8 9.42282 40.8610   1
  -1  -9  -9 3241.00 76.3446   2
  -1  -9 -10 5142.59 95.3720   2
  -1  -9 -11 772.775 59.3616   2
  -1  -9 -12 6.74944 45.3688   2
  -1  -9 -13 614.084 57.2297   2
  -1  -9 -14 1990.23 84.2549   2
   1  10  -7 234.743 44.6108   1
   1  10  -6 57.2988 45.5297   1
   1  10  -5 1532.63 71.6031   1
   1  10  -4 4342.71 103.331   1
   1  10  -3 7462.74 130.188   1
   1  10  -2 1685.20 75.6880   1
   1  10  -1 1821.76 75.4398   1
   1  10   0 1000.69 63.5932   1
   1  10   1 14.5292 49.8860   1
   1  10   2 1551.89 69.8642   1
   1  10   3 1957.48 73.2451   1
   1  10   4 102.035 44.7838   1
   1  10   5 1486.20 67.4519   1
   1  10   6 489.135 52.9340   1
   1  10   7 105.162 47.1738   1
   1  10   8 697.383 58.5780   1
   1  10   9 976.779 66.1643   1
  -1 -10  -9 947.593 50.4647   2
  -1 -10 -10 18.3303 43.6943   2
   1  10  10 72.7467 49.2425   1
  -1 -10 -11 11.6968 43.4394   2
  -1 -10 -12 590.020 62.6579   2
  -1 -10 -13 1451.35 77.6615   2
  -1 -10 -14 1043.40 69.6384   2
   1  11  -5-112.491 43.4703   1
   1  11  -4 24.7242 46.2635   1
   1  11  -3 7.91187 54.2276   1
   1  11  -2-7.65248 53.2024   1
   1  11  -1 1348.25 75.3467   1
   1  11   0 84.6172 54.0789   1
   1  11   1 1123.84 71.2039   1
   1  11   2 617.677 66.2235   1
   1  11   3 434.451 56.1221   1
   1  11   4 31.6100 48.1349   1
   1  11   5 697.652 60.3540   1
   1  11   6 434.989 57.8343   1
   1  11   7-32.7674 45.9399   1
   1  11   8 280.609 56.7792   1
   1  11   9 1717.14 83.8143   1
   1  11  10 2472.30 96.4847   1
   1  11  11 475.222 65.1286   1
   1  11  12 76.6496 46.8112   1
  -1 -11 -12 66.2340 48.7996   2
  -1 -11 -13 530.232 60.0280   2
   1  12  -2-87.1462 53.5914   1
   1  12  -1 1763.73 84.7641   1
   1  12   0 2439.50 91.7835   1
   1  12   1 411.535 64.5766   1
   1  12   2-75.9134 57.8105   1
   1  12   3-43.2611 56.3309   1
   1  12   4 25.4030 48.3473   1
   1  12   5 276.851 57.2573   1
   1  12   6 136.638 58.0761   1
   1  12   7-95.3929 55.8281   1
   1  12   8 280.962 56.3565   1
   1  12   9 421.217 63.4612   1
   1  12  10-1.04290 59.7925   1
  -2  11   7 1407.88 90.6522   1
  -2  11   6 1890.87 95.7134   1
  -2  11   5 1121.18 76.3903   1
  -2  11   4 245.487 68.1390   1
  -2  11   3 54.5604 55.8088   1
  -2  11   2 387.931 56.7488   1
  -2  11   1 663.986 62.3582   1
  -2  11   0 41.8766 53.0518   1
  -2  11  -1 343.881 59.9510   1
   2 -10 -10 2893.40 95.6059   2
  -2  10  10 3366.62 115.848   1
  -2  10   9 970.676 74.5289   1
   2 -10  -9 948.859 64.8355   2
   2 -10  -8 177.066 54.6447   2
  -2  10   8 8.03989 53.4929   1
  -2  10   7-39.4642 48.5212   1
  -2  10   6 480.673 63.5541   1
  -2  10   5 1557.00 76.3466   1
  -2  10   4 998.045 66.9928   1
  -2  10   3 1632.51 75.8113   1
  -2  10   2 2551.15 88.6779   1
  -2  10   1 916.029 66.0305   1
  -2  10   0 332.355 60.4322   1
  -2  10  -1 59.3194 50.6201   1
  -2  10  -2 130.822 45.9968   1
  -2  10  -3 489.895 53.7173   1
   2  -9 -12 387.240 60.9976   2
   2  -9 -11 714.538 67.1805   2
   2  -9 -10 97.2332 49.8281   2
  -2   9  10 104.269 53.4763   1
   2  -9  -9 15.7758 44.3772   2
  -2   9   9 17.4406 45.7497   1
   2  -9  -8 659.393 54.6464   2
  -2   9   8 738.056 61.5081   1
  -2   9   7 980.488 68.7894   1
   2  -9  -7 1104.49 61.5663   2
  -2   9   6 139.328 48.6069   1
  -2   9   5 23.7030 46.3380   1
  -2   9   4 54.1964 46.6899   1
  -2   9   3 1763.09 75.3552   1
  -2   9   2 4468.52 101.611   1
  -2   9   1 1090.75 65.5419   1
  -2   9   0-6.17386 44.1648   1
  -2   9  -1 745.415 57.5111   1
  -2   9  -2 516.850 53.3504   1
  -2   9  -4-62.0032 36.6107   1
  -2   9  -5-32.4334 41.9753   1
  -2   9  -6-4.00012 44.8093   1
  -2   9  -7 388.033 55.3136   1
   2  -8 -13 386.373 62.1941   2
   2  -8 -12 33.9794 55.3686   2
   2  -8 -11 311.451 54.4442   2
   2  -8 -10 2060.80 79.8673   2
   2  -8  -9 714.995 46.2361   3
   2  -8  -9 706.389 57.9178   2
   2  -8  -8 249.283 44.6681   2
  -2   8   8 304.210 50.3788   1
   2  -8  -7 90.6351 42.4227   2
  -2   8   7 116.060 49.2052   1
   2  -8  -6 6938.83 110.247   2
  -2   8   6 6943.79 122.362   1
  -2   8   5 1955.24 75.4781   1
  -2   8   4 29.3653 43.6804   1
  -2   8   3 315.639 47.4111   1
  -2   8   2 2916.35 80.4817   1
  -2   8   1-27.0700 42.9893   1
  -2   8   0 110.523 41.8890   1
  -2   8  -1 3747.75 88.1005   1
  -2   8  -2 2102.33 71.0663   1
  -2   8  -3 993.457 58.4173   1
  -2   8  -4 281.146 44.8285   1
  -2   8  -5 1052.25 56.4293   1
  -2   8  -6 851.014 57.1988   1
  -2   8  -7 453.268 51.1638   1
  -2   8  -8 142.320 45.3915   1
   2  -7 -14 9.04447 50.5942   2
   2  -7 -13 339.719 53.4451   2
   2  -7 -12 226.153 50.2220   2
   2  -7 -11 1898.90 77.9550   2
   2  -7 -10 1253.82 65.7154   2
   2  -7  -9 724.610 55.8844   2
   2  -7  -9 662.760 40.1333   3
   2  -7  -8 2346.16 74.5998   2
   2  -7  -7 1253.48 60.6091   2
  -2   7   6 9694.70 132.246   1
   2  -7  -6 9956.71 124.219   2
  -2   7   5 12973.7 148.324   1
   2  -7  -5 12650.6 135.784   2
  -2   7   4 5267.85 103.099   1
  -2   7   3 6170.35 107.546   1
  -2   7   2 11566.5 138.043   1
  -2   7   1 136.228 49.4372   1
  -2   7   0 5551.73 99.8555   1
  -2   7  -1 8282.65 117.629   1
  -2   7  -2 6651.53 105.220   1
  -2   7  -3 557.658 48.5049   1
  -2   7  -4 41.1688 37.4136   1
  -2   7  -5-24.0517 33.4645   1
  -2   7  -6 370.732 45.9170   1
  -2   7  -7 228.080 41.9106   1
  -2   7  -8 58.6538 38.6729   1
  -2   7  -9 403.751 43.7223   1
  -2   7 -10 31.8026 42.8109   1
   2  -6 -15 110.569 53.4666   2
   2  -6 -14-22.6237 47.8972   2
   2  -6 -13 233.867 51.3264   2
   2  -6 -12 289.083 52.8383   2
   2  -6 -11 2206.49 76.2163   2
   2  -6 -10 278.849 48.8036   2
   2  -6  -9 484.828 51.3643   2
   2  -6  -9 340.147 31.2381   3
   2  -6  -8 2779.41 59.4515   3
   2  -6  -8 2842.33 77.0001   2
   2  -6  -7 727.700 53.4282   2
   2  -6  -6 16280.3 151.011   2
   2  -6  -5 4252.39 82.3158   2
  -2   6   5 4335.29 86.4583   1
  -2   6   4 7706.58 111.240   1
   2  -6  -4 7752.57 101.854   2
  -2   6   3 9918.25 122.976   1
  -2   6   2 27070.6 185.120   1
  -2   6   1 3823.69 80.3463   1
  -2   6   0 2248.87 64.8923   1
  -2   6  -1 9164.20 111.975   1
  -2   6  -2 14502.8 138.313   1
  -2   6  -3 460.514 44.8675   1
  -2   6  -4 746.899 46.2675   1
  -2   6  -5 346.539 32.0372   2
  -2   6  -5 243.719 36.7822   1
  -2   6  -6 576.234 33.3455   2
  -2   6  -6 783.582 48.2328   1
  -2   6  -7 676.712 45.7607   1
  -2   6  -8 667.604 49.9891   1
  -2   6  -9 3816.50 90.6753   1
  -2   6 -10 2189.17 77.2140   1
  -2   6 -11 85.6851 46.7017   1
   2  -5 -15 355.077 53.8062   2
   2  -5 -14 2.92675 48.4006   2
   2  -5 -13 165.715 50.1151   2
   2  -5 -12 113.576 46.7744   2
   2  -5 -11 3618.49 88.0099   2
   2  -5 -10 807.108 54.6510   2
   2  -5  -9 829.142 54.1441   2
   2  -5  -9 669.808 32.2560   3
   2  -5  -8 4330.79 87.3081   2
   2  -5  -8 4689.67 67.6877   3
   2  -5  -7 28294.6 192.231   2
   2  -5  -7 29338.2 155.988   3
   2  -5  -6 120.260 38.5921   2
   2  -5  -5 2104.16 56.7787   2
   2  -5  -4-2.96998 30.6764   2
  -2   5   4 16.6421 27.5681   1
  -2   5   3 642.146 39.4269   1
  -2   5   2 2944.46 62.4168   1
  -2   5   1 529.296 36.5138   1
  -2   5   0 10792.1 109.473   1
  -2   5  -1 10478.8 108.094   1
  -2   5  -2 10601.8 109.671   1
  -2   5  -3 2833.11 63.9352   1
  -2   5  -4 920.772 40.6976   1
  -2   5  -5 10.8043 23.4197   2
  -2   5  -5-10.5711 24.2183   1
  -2   5  -6 285.806 29.6366   2
  -2   5  -6 333.083 34.8471   1
  -2   5  -7 1538.69 47.4189   2
  -2   5  -7 1485.20 54.9283   1
  -2   5  -8 517.078 33.4393   2
  -2   5  -8 684.079 45.1379   1
  -2   5  -9 1180.25 57.8540   1
  -2   5 -10 742.354 54.4038   1
  -2   5 -11 586.347 57.6638   1
  -2   5 -12 334.739 48.4239   1
   2  -4 -16 41.7330 54.0849   2
   2  -4 -15 123.596 51.3914   2
   2  -4 -14 123.248 49.2045   2
   2  -4 -13 47.2951 44.3048   2
   2  -4 -12 344.711 48.9692   2
   2  -4 -11 4508.94 90.2732   2
   2  -4 -10 1371.05 59.7090   2
   2  -4  -9 20.1599 19.3906   3
   2  -4  -9 24.9087 37.3510   2
   2  -4  -8 8612.11 81.9910   3
   2  -4  -8 8413.34 105.857   2
   2  -4  -7 3311.86 69.6593   2
   2  -4  -7 3212.04 54.2516   3
   2  -4  -6 1326.49 48.0118   2
   2  -4  -6 1368.41 37.8403   3
   2  -4  -5 110.272 31.1415   2
   2  -4  -5 97.0580 12.8384   4
   2  -4  -5 103.129 23.2370   3
   2  -4  -4 12813.2 70.3438   4
   2  -4  -4 17787.7 128.477   2
   2  -4  -3 5939.16 77.9435   2
  -2   4   3 5714.66 75.6350   1
  -2   4   2 32880.4 172.424   1
  -2   4   1 25364.2 148.245   1
  -2   4   0 7709.73 85.6801   1
  -2   4  -1 2184.24 48.9364   1
  -2   4  -2 4632.02 67.4998   1
  -2   4  -3 3812.63 63.6161   1
  -2   4  -4 6970.79 86.1767   1
  -2   4  -5 626.751 32.4772   2
  -2   4  -5 642.328 34.7346   1
  -2   4  -6 1672.80 45.3588   2
  -2   4  -6 1796.98 51.5809   1
  -2   4  -7 214.835 27.5067   2
  -2   4  -7 244.392 31.3072   1
  -2   4  -8 1279.32 51.2571   1
  -2   4  -8 1301.77 45.6218   2
  -2   4  -9 804.589 41.2595   2
  -2   4  -9 794.679 49.8127   1
  -2   4 -10 2572.13 62.2711   2
  -2   4 -10 3001.51 83.4448   1
  -2   4 -11 979.164 59.1041   1
  -2   4 -12 573.207 57.7568   1
  -2   4 -13 1620.12 78.0786   1
   2  -3 -16 232.005 50.3271   2
   2  -3 -15-9.08552 41.8043   2
   2  -3 -14 87.3730 43.1991   2
   2  -3 -13 1255.31 60.4261   2
   2  -3 -12 25.5917 38.8988   2
   2  -3 -11 337.453 42.7086   2
   2  -3 -10 623.683 47.5371   2
   2  -3  -9 8790.87 108.538   2
   2  -3  -8 3668.48 52.6962   3
   2  -3  -8 3658.04 71.9456   2
   2  -3  -7 40549.0 199.694   2
   2  -3  -7 41283.6 162.827   3
   2  -3  -6 3698.55 64.5685   2
   2  -3  -6 3799.79 52.3187   3
   2  -3  -5 1916.92 47.6451   2
   2  -3  -5 1998.97 38.7607   3
   2  -3  -4 1251.99 25.6223   4
   2  -3  -4 1166.59 38.6993   2
   2  -3  -4 1222.99 32.4284   3
   2  -3  -3 11970.5 84.9530   3
   2  -3  -3 11689.0 64.6813   4
   2  -3  -3 11729.2 97.8608   2
  -2   3   2 9662.62 84.4460   1
  -2   3   1 36232.6 156.107   1
  -2   3   0 1497.89 37.7396   1
  -2   3  -1-1.54020 18.6848   1
  -2   3  -2 17752.8 113.069   1
  -2   3  -3 2923.52 49.8931   1
  -2   3  -4 33795.2 165.656   1
  -2   3  -5 15993.2 121.697   1
  -2   3  -5 16010.8 112.992   2
  -2   3  -6 87.6210 23.8149   1
  -2   3  -6 98.8300 23.9236   2
  -2   3  -7 3666.19 66.4124   1
  -2   3  -7 3617.74 61.1479   2
  -2   3  -8 1320.54 43.2547   2
  -2   3  -8 1239.68 49.5308   1
  -2   3  -9 4504.07 72.9017   2
  -2   3  -9 4380.11 87.9345   1
  -2   3 -10 293.127 40.9023   1
  -2   3 -10 266.684 36.3858   2
  -2   3 -11 3681.40 73.8264   2
  -2   3 -11 3683.17 92.1914   1
  -2   3 -12 225.842 48.3229   1
  -2   3 -12 328.203 43.1392   2
  -2   3 -13 27.2976 47.2441   1
  -2   3 -14-98.5035 50.1348   1
   2  -2 -16 45.9095 43.1364   2
   2  -2 -15 120.789 48.5266   2
   2  -2 -14 557.543 51.8313   2
   2  -2 -13 2084.92 69.4006   2
   2  -2 -12 3639.61 81.0477   2
   2  -2 -11 642.577 44.6488   2
   2  -2 -10 1554.35 54.3575   2
   2  -2  -9 4318.20 77.0122   2
   2  -2  -8 18619.8 139.503   2
   2  -2  -8 18635.6 106.097   3
   2  -2  -7 50135.9 170.656   3
   2  -2  -7 50364.5 212.850   2
   2  -2  -6 4251.82 63.4666   2
   2  -2  -6 4309.19 51.8972   3
   2  -2  -5 1643.31 41.3277   2
   2  -2  -5 1731.89 34.2342   3
   2  -2  -4 32971.0 153.315   2
   2  -2  -4 32057.0 120.016   4
   2  -2  -4 32642.2 129.729   3
   2  -2  -3 3898.93 40.5870   4
   2  -2  -3 3965.35 46.9138   3
   2  -2  -3 3680.67 51.7278   2
   2  -2  -2 337.258 14.5308   4
   2  -2  -2 337.472 18.6456   3
  -2   2   1 2875.70 41.1017   1
   2  -2  -1 2846.51 38.6095   3
  -2   2   0 53132.5 160.153   1
   2  -2   0 52940.9 156.223   3
  -2   2  -1 17688.5 94.4485   1
  -2   2  -2 2758.24 40.2945   1
  -2   2  -3 161.998 17.2593   1
  -2   2  -4 43152.0 170.688   2
  -2   2  -4 43435.8 170.183   1
  -2   2  -5 491.996 29.0310   2
  -2   2  -5 478.428 28.3891   1
  -2   2  -6 7572.55 77.5720   2
  -2   2  -6 7428.30 81.8711   1
  -2   2  -7 134.911 23.5714   2
  -2   2  -7 137.163 26.5736   1
  -2   2  -8 1358.73 47.5955   1
  -2   2  -8 1323.55 40.8669   2
  -2   2  -9 1288.16 50.5053   1
  -2   2  -9 1402.65 46.7405   2
  -2   2 -10 8325.23 99.9598   2
  -2   2 -10 8352.98 115.742   1
  -2   2 -11 234.609 43.5397   1
  -2   2 -11 302.766 37.8368   2
  -2   2 -12 806.286 58.5805   1
  -2   2 -12 850.812 49.6938   2
  -2   2 -13-7.45441 39.6119   1
  -2   2 -13 18.5000 36.5205   2
  -2   2 -14 1038.71 54.9344   2
  -2   2 -14 1379.99 66.7273   1
  -2   2 -15 55.7517 39.1626   1
   2  -1 -16 1524.01 77.4893   1
   2  -1 -15 16.9484 47.3262   1
   2  -1 -14 84.3564 40.6362   1
   2  -1 -14-18.7096 34.4037   2
   2  -1 -13 1555.01 60.4058   2
   2  -1 -13 1670.30 71.5478   1
   2  -1 -12 1296.98 60.8883   1
   2  -1 -12 1512.86 56.6890   2
   2  -1 -11 677.295 49.2692   1
   2  -1 -11 730.451 44.9724   2
   2  -1 -10 11589.4 134.734   1
   2  -1 -10 11941.9 117.657   2
   2  -1  -9 1692.90 50.1226   2
   2  -1  -9 1548.87 53.5112   1
   2  -1  -8 3053.35 58.4653   2
   2  -1  -8 2948.24 44.4747   3
   2  -1  -8 3022.80 63.2279   1
   2  -1  -7 1810.83 45.3011   2
   2  -1  -7 1643.97 46.0613   1
   2  -1  -7 1595.75 34.9684   3
   2  -1  -6 9224.85 85.1015   2
   2  -1  -6 9203.74 89.3182   1
   2  -1  -6 9418.37 71.0756   3
   2  -1  -5 48455.9 177.910   2
   2  -1  -5 49045.1 155.588   3
   2  -1  -5 48834.8 164.749   4
   2  -1  -4 237.731 21.2155   2
   2  -1  -4 231.449 17.8367   3
   2  -1  -4 268.167 17.0913   4
   2  -1  -3 33968.5 138.051   2
   2  -1  -3 34262.4 124.059   3
   2  -1  -3 34045.6 122.454   4
   2  -1  -2 37538.2 123.387   4
   2  -1  -2 36407.7 125.805   3
   2  -1  -2 36764.1 140.217   2
   2  -1  -1 15194.8 79.3674   3
   2  -1   0 9493.48 62.3996   3
  -2   1   0 10070.6 55.8935   1
   2  -1   1 254.655 14.0881   3
  -2   1  -1 263.791 12.5926   1
  -2   1  -2 9843.05 59.7879   1
   2  -1   2 9630.47 61.0696   3
  -2   1  -3 5379.13 48.7864   1
   2  -1   3 5484.68 45.2839   3
  -2   1  -4 3630.55 44.5465   1
   2  -1   4 3537.72 37.0018   3
  -2   1  -4 3596.48 49.0300   2
  -2   1  -5 120718. 274.905   2
  -2   1  -5 121957. 275.090   1
   2  -1   5 119862. 805.930   3
  -2   1  -6 358.272 25.4323   2
  -2   1  -6 402.013 25.1021   1
   2  -1   6 314.864 14.2028   3
  -2   1  -7-3.01296 20.1203   1
  -2   1  -7 23.5058 20.8717   2
  -2   1  -8 6380.16 76.5814   2
  -2   1  -8 6351.28 84.4452   1
  -2   1  -9 4247.62 69.7467   2
  -2   1  -9 4236.00 76.8910   1
  -2   1 -10 1230.61 47.0323   2
  -2   1 -10 1251.10 52.6673   1
  -2   1 -11 2965.10 67.9304   2
  -2   1 -11 2789.20 75.6169   1
  -2   1 -12 62.1772 38.2656   1
  -2   1 -12 187.728 38.1520   2
  -2   1 -13 297.676 44.0272   1
  -2   1 -13 288.999 41.6085   2
  -2   1 -14-18.2599 39.7413   1
  -2   1 -14 60.8977 39.7646   2
  -2   1 -15 971.654 55.2714   2
  -2   1 -15 1027.55 58.8891   1
  -2   1 -16 110.490 36.7594   2
   2   0 -15 420.336 55.2379   1
   2   0 -13 342.174 50.6044   1
   2   0 -12 862.887 42.8167   2
   2   0 -12 1147.48 58.2317   1
   2   0 -11 1201.89 47.7627   2
   2   0 -11 1286.90 58.3001   1
   2   0 -10 9097.75 118.380   1
   2   0 -10 10224.4 103.930   2
   2   0  -9 2494.87 53.1457   2
   2   0  -9 2399.31 61.8134   1
   2   0  -8 2797.67 53.2001   2
   2   0  -8 2635.18 58.9418   1
   2   0  -8 2648.90 39.4414   3
   2   0  -7 1935.77 47.9008   1
   2   0  -7 1926.35 35.0027   3
   2   0  -6 2025.22 40.8863   2
   2   0  -6 1771.14 34.4139   3
   2   0  -6 1727.12 42.8729   1
   2   0  -5 34819.8 141.675   2
   2   0  -5 34827.9 151.395   1
   2   0  -5 35342.9 129.094   3
   2   0  -5 34908.7 145.444   4
   2   0  -4 29824.2 126.268   1
   2   0  -4 29342.1 124.971   4
   2   0  -4 29197.2 121.238   2
   2   0  -4 29299.9 113.514   3
   2   0  -3 5932.50 50.3800   1
   2   0  -3 5953.51 53.9839   2
   2   0  -3 5751.38 54.3019   4
   2   0  -3 5902.79 51.5701   3
   2   0  -2 31720.3 117.038   2
   2   0  -2 31676.4 112.815   3
   2   0  -2 31652.2 120.079   4
   2   0  -1 11332.7 66.4759   3
   2   0   0 51914.9 137.780   3
   2   0   1 2054.56 28.1016   3
  -2   0  -2 1995.24 21.0838   1
   2   0   2 1911.95 26.5297   3
  -2   0  -3 4350.27 46.6223   2
  -2   0  -3 4331.10 37.7245   1
   2   0   3 4341.99 37.4343   3
  -2   0  -4 4218.32 48.7140   2
  -2   0  -4 4327.58 44.1306   1
   2   0   4 4272.47 36.0746   3
  -2   0  -5 14980.5 94.6231   2
  -2   0  -5 15382.8 93.0110   1
   2   0   5 14759.0 65.2503   3
  -2   0  -6 4928.83 61.1939   1
  -2   0  -6 4695.58 58.6518   2
   2   0   6 4615.54 35.2077   3
  -2   0  -7 6541.39 71.5165   2
  -2   0  -7 6598.77 75.4480   1
  -2   0  -8 4419.62 64.8115   2
  -2   0  -8 4630.76 69.8777   1
  -2   0  -9-0.06984 25.1656   1
  -2   0  -9 18.9327 27.0315   2
  -2   0 -10 4766.24 76.4099   2
  -2   0 -10 4652.62 81.8384   1
  -2   0 -11 6.46245 31.8935   1
  -2   0 -11 37.8263 34.4501   2
  -2   0 -12 165.135 37.3571   1
  -2   0 -12 149.802 40.5416   2
  -2   0 -13 520.878 46.8630   1
  -2   0 -13 512.129 48.2627   2
  -2   0 -14 1058.99 59.0915   2
  -2   0 -14 1132.76 60.0203   1
  -2   0 -15-24.3121 36.2070   1
  -2   0 -15-4.10860 40.4889   2
  -2   0 -16 170.820 37.1532   1
  -2   0 -16 209.360 44.9592   2
   2   1 -15-3.53526 50.3351   1
   2   1 -14 77.2390 42.5502   1
   2   1 -13 634.747 53.7012   1
   2   1 -12 737.197 50.2382   1
   2   1 -11 65.2639 34.8486   1
   2   1 -10 1529.62 44.3498   2
   2   1 -10 1819.57 61.7788   1
   2   1  -9-0.07771 30.6817   1
   2   1  -9 47.3353 23.9505   2
   2   1  -8 2778.49 49.3165   2
   2   1  -8 2645.35 60.8649   1
   2   1  -8 2715.67 39.0208   3
   2   1  -7 1906.52 48.6992   1
   2   1  -7 1913.72 33.2115   3
   2   1  -7 2112.00 41.9366   2
   2   1  -6 33657.5 136.175   2
   2   1  -6 33400.0 163.756   1
   2   1  -6 34146.0 158.735   4
   2   1  -6 32782.8 121.914   3
   2   1  -5 13577.3 98.0888   1
   2   1  -5 14066.8 83.2023   2
   2   1  -5 13544.8 45.4620   0
   2   1  -5 13651.8 78.4636   3
   2   1  -5 13773.4 95.5328   4
   2   1  -4 51714.7 174.302   4
   2   1  -4 51089.7 95.0332   0
   2   1  -4 51608.9 166.160   1
   2   1  -4 51579.3 143.814   2
   2   1  -4 51553.7 149.190   3
   2   1  -3 25815.0 96.4454   2
   2   1  -3 25870.6 104.363   3
   2   1  -3 25256.0 103.175   1
   2   1  -3 25150.2 115.984   4
   2   1  -2 6440.61 44.0376   1
   2   1  -2 6619.03 59.5881   4
   2   1  -2 6785.87 53.1617   3
   2   1  -1 44791.4 130.110   3
   2   1   0 28619.4 101.197   3
   2   1   1 20321.1 82.6950   3
  -2  -1  -2 15005.6 73.4654   2
   2   1   2 14965.9 68.9112   3
  -2  -1  -3 1095.44 22.9943   2
  -2  -1  -3 1098.89 17.6508   1
   2   1   3 1073.28 19.3692   3
  -2  -1  -4 38978.6 135.325   2
  -2  -1  -4 39916.4 123.200   1
   2   1   4 38744.8 103.207   3
  -2  -1  -5 70633.4 189.615   1
   2   1   5 70359.9 128.869   3
  -2  -1  -5 70658.7 193.309   2
  -2  -1  -6 6354.11 65.2340   1
   2   1   6 6550.21 36.2855   3
  -2  -1  -6 6159.14 64.1445   2
  -2  -1  -7 50092.8 195.763   1
  -2  -1  -7 49082.3 184.984   2
  -2  -1  -8 98.8389 19.0066   1
  -2  -1  -8 93.5578 24.3133   2
  -2  -1  -9 17402.5 136.450   1
  -2  -1  -9 16869.8 126.249   2
  -2  -1 -10 7146.86 90.1958   2
  -2  -1 -10 7064.27 96.1784   1
  -2  -1 -11 99.8678 32.3945   1
  -2  -1 -11 74.4541 34.7021   2
  -2  -1 -12-19.1143 35.0061   1
  -2  -1 -12 1.39871 37.1368   2
  -2  -1 -13 1244.79 59.0255   1
  -2  -1 -13 1255.13 58.7557   2
  -2  -1 -14 165.315 43.6252   2
  -2  -1 -14 108.239 41.3278   1
  -2  -1 -15 251.443 48.2386   1
  -2  -1 -15 359.955 53.8291   2
  -2  -1 -16 242.687 46.4203   1
  -2  -1 -16 333.808 47.9347   2
   2   2 -15 52.4611 53.0946   1
   2   2 -14 373.407 55.7299   1
   2   2 -13 953.218 60.0859   1
   2   2 -12 221.064 43.0481   1
   2   2 -11 226.890 39.4124   1
   2   2 -10 1577.16 60.7610   1
   2   2  -9 2644.18 67.7470   1
   2   2  -8 1164.28 33.6967   2
   2   2  -8 1077.26 45.7852   1
   2   2  -8 1155.23 28.2879   3
   2   2  -7 2336.61 56.8930   1
   2   2  -7 2487.38 42.7826   2
   2   2  -7 2351.59 36.6229   3
   2   2  -7 2588.49 53.3878   4
   2   2  -6 113994. 220.778   3
   2   2  -6 114933. 314.188   1
   2   2  -6 115312. 297.305   4
   2   2  -5 71685.6 389.146   0
   2   2  -5 70223.8 227.635   1
   2   2  -5 70146.0 169.608   2
   2   2  -5 70542.0 174.595   3
   2   2  -5 71739.8 224.938   4
   2   2  -4 19060.4 57.6442   0
   2   2  -4 18252.9 105.279   1
   2   2  -4 19217.4 79.7512   2
   2   2  -4 19347.9 113.838   4
   2   2  -4 18497.8 89.6768   3
   2   2  -3 1986.06 39.1841   4
   2   2  -3 2014.40 24.7797   2
   2   2  -3 2048.71 31.4884   3
   2   2  -3 1984.37 33.8527   1
   2   2  -3 2112.61 22.6625   0
   2   2  -2 5796.84 59.2310   4
   2   2  -2 5636.10 46.0196   1
   2   2  -2 5722.37 47.8949   3
   2   2  -2 5861.29 37.5899   0
   2   2  -1 15988.6 76.1030   3
   2   2  -1 16239.7 65.4999   0
   2   2  -1 16279.0 65.1164   1
   2   2   0 42719.8 109.335   0
   2   2   0 44755.4 122.170   3
   2   2   1 80590.3 155.698   0
   2   2   1 80419.1 158.948   3
  -2  -2  -2 10073.0 54.8550   2
   2   2   2 10130.8 58.0063   0
   2   2   2 9818.28 54.6454   3
  -2  -2  -3 22088.3 88.5141   2
   2   2   3 22217.7 87.8197   0
   2   2   3 21354.1 75.8668   3
   2   2   4 4115.95 40.2935   0
  -2  -2  -4 4370.36 44.8678   2
   2   2   4 4269.73 32.9317   3
   2   2   5 17.2729 11.9688   0
  -2  -2  -5 44.7979 15.5953   2
   2   2   5 31.0790 7.34787   3
  -2  -2  -5 38.6366 12.7569   1
  -2  -2  -6 12.5282 16.5818   1
   2   2   6 5.66475 14.6624   0
   2   2   6 14.4026 6.94435   3
  -2  -2  -7 16752.5 108.660   2
   2   2   7 16356.0 84.6647   0
  -2  -2  -7 16351.0 114.577   1
   2   2   8 517.205 19.7913   0
  -2  -2  -8 520.915 30.6264   2
  -2  -2  -8 538.798 27.9933   1
  -2  -2  -9 7747.57 94.2670   1
  -2  -2  -9 7481.36 86.9090   2
   2   2   9 7689.37 61.7680   0
  -2  -2 -10 664.233 41.5830   1
  -2  -2 -10 730.878 41.3473   2
  -2  -2 -11 3712.88 78.7596   1
  -2  -2 -11 3710.93 74.0661   2
  -2  -2 -12 7369.12 102.587   2
  -2  -2 -12 7257.24 110.742   1
  -2  -2 -13 2724.20 74.7276   2
  -2  -2 -13 2732.68 78.4080   1
  -2  -2 -14 2401.74 73.8945   2
  -2  -2 -14 2371.95 79.1330   1
  -2  -2 -15 471.524 54.3755   1
  -2  -2 -15 468.891 51.1961   2
  -2  -2 -16 98.6011 39.6816   1
  -2  -2 -16 9.67744 47.9019   2
   2   3 -14 622.556 59.8510   1
   2   3 -14 736.428 53.7107   4
   2   3 -13 613.811 56.5922   1
   2   3 -13 630.368 49.0665   4
   2   3 -12 889.965 49.8324   4
   2   3 -12 803.887 56.9038   1
   2   3 -11 82.1279 40.6688   1
   2   3 -11 174.957 33.4853   4
   2   3 -10 622.553 48.1881   1
   2   3 -10 690.203 42.5093   4
   2   3  -9 5037.91 91.8369   1
   2   3  -9 5190.43 83.3694   4
   2   3  -8 5129.83 76.6843   4
   2   3  -8 4745.62 83.8861   1
   2   3  -7 880.632 42.7341   1
   2   3  -7 1043.48 27.4166   3
   2   3  -7 963.717 39.2446   4
   2   3  -6 11363.0 108.833   1
   2   3  -6 11982.8 103.838   4
   2   3  -5 10939.9 60.9404   2
   2   3  -5 12668.4 104.052   4
   2   3  -5 12043.4 75.1674   3
   2   3  -5 12322.6 47.4788   0
   2   3  -5 11346.7 102.224   1
   2   3  -4 148497. 249.421   3
   2   3  -4 146563. 685.258   0
   2   3  -4 145397. 743.850   2
   2   3  -4 149756. 325.629   4
   2   3  -4 148769. 315.741   1
   2   3  -3 6621.10 64.1575   1
   2   3  -3 6573.43 54.5699   3
   2   3  -3 6586.90 69.4407   4
   2   3  -3 6873.26 39.8343   0
   2   3  -2-5.56929 17.8752   4
   2   3  -2 1.09760 9.59695   0
   2   3  -2 2.51666 12.2842   1
   2   3  -2 8.42109 12.5452   3
   2   3  -1 1919.98 29.8815   1
   2   3  -1 1812.04 28.8258   3
   2   3  -1 1834.98 24.4012   0
   2   3   0 7732.58 53.6068   3
   2   3   0 7987.18 48.5084   0
   2   3   0 7882.96 55.6569   1
   2   3   1 35300.2 109.576   3
  -2  -3  -1 35345.9 81.9804   2
   2   3   1 35183.0 105.372   0
   2   3   1 35038.3 111.779   1
  -2  -3  -2 34437.6 95.7865   2
   2   3   2 34394.8 106.640   0
   2   3   2 34290.9 104.204   3
   2   3   2 34714.8 113.673   1
  -2  -3  -3 49.6887 11.1774   2
   2   3   3 28.4544 9.05008   3
  -2  -3  -4 4291.03 43.7079   2
   2   3   4 4250.94 34.0899   3
   2   3   4 4220.86 41.2316   0
  -2  -3  -5 1433.09 30.7290   2
   2   3   5 1403.57 26.6483   0
  -2  -3  -6 37520.9 150.847   2
   2   3   6 37447.0 124.400   0
   2   3   6 38284.2 89.4761   3
  -2  -3  -7 21156.9 122.835   2
   2   3   7 21619.4 96.4234   0
   2   3   8 463.497 20.5948   0
  -2  -3  -8 444.840 30.0129   2
  -2  -3  -9 12465.4 108.446   2
   2   3   9 11760.4 74.1108   0
  -2  -3 -10 16415.0 130.354   2
  -2  -3 -11 8060.90 110.712   1
  -2  -3 -11 8150.03 100.698   2
  -2  -3 -12 4569.45 85.1339   2
  -2  -3 -12 4716.12 92.2059   1
  -2  -3 -13 1726.17 66.0595   1
  -2  -3 -13 1569.19 62.9993   2
  -2  -3 -14 886.749 55.7758   2
  -2  -3 -15 733.124 54.6003   2
  -2  -3 -16 2.69204 45.8070   2
   2   4 -14 40.8427 51.0189   1
   2   4 -14 203.120 38.0567   4
   2   4 -13 1315.34 57.4515   4
   2   4 -13 1294.01 71.4173   1
   2   4 -12 91.6700 44.3881   1
   2   4 -12 184.087 35.0936   4
   2   4 -11-70.9619 47.7073   1
   2   4 -11-22.7850 29.7586   4
   2   4 -10 134.976 42.7593   1
   2   4 -10 190.954 33.5390   4
   2   4  -9 1584.35 65.1738   1
   2   4  -9 1607.69 53.3822   4
   2   4  -8 467.177 42.0951   1
   2   4  -8 481.431 36.7422   4
   2   4  -7 3837.01 75.4794   1
   2   4  -7 3953.34 67.9958   4
   2   4  -7 3814.16 48.1574   3
   2   4  -6 5187.59 77.4762   1
   2   4  -6 5116.19 53.4850   3
   2   4  -6 5219.48 75.6619   4
   2   4  -5 12355.9 77.9545   3
   2   4  -5 12139.0 108.986   1
   2   4  -5 12789.7 57.4861   0
   2   4  -5 12310.1 105.735   4
   2   4  -4 14412.1 110.008   1
   2   4  -4 14478.6 61.2368   0
   2   4  -4 14337.2 81.5316   3
   2   4  -4 14544.5 108.907   4
   2   4  -3 8638.29 82.9924   4
   2   4  -3 8668.69 49.4284   0
   2   4  -3 8475.34 82.0233   1
   2   4  -3 8525.20 63.0032   3
   2   4  -2 37132.5 154.885   1
   2   4  -2 37423.3 102.001   0
   2   4  -2 37353.0 160.938   4
   2   4  -2 36264.3 126.605   3
   2   4  -1 15126.1 94.6050   1
   2   4  -1 15215.7 67.0154   0
   2   4  -1 15097.4 79.9680   3
   2   4   0 777.029 25.6542   1
   2   4   0 895.142 20.0614   0
   2   4   0 911.391 22.8406   3
   2   4   1 31880.2 104.375   0
  -2  -4  -1 32617.6 76.1813   2
   2   4   1 32404.6 132.477   1
   2   4   1 32370.7 110.584   3
  -2  -4  -2 1949.51 24.4986   2
   2   4   2 1899.58 35.7918   1
   2   4   2 1925.13 28.1823   3
   2   4   2 1865.08 28.4347   0
  -2  -4  -3 2937.84 33.8629   2
   2   4   3 2894.59 32.7811   3
   2   4   3 2861.21 34.9654   0
  -2  -4  -4 4018.23 43.2445   2
   2   4   4 3968.07 37.0125   3
   2   4   4 4098.64 41.5605   0
  -2  -4  -5 6492.86 59.2975   2
   2   4   5 6480.05 52.9985   0
   2   4   5 6640.55 44.9458   3
   2   4   6 638.758 22.1370   0
   2   4   6 591.128 15.4990   3
  -2  -4  -6 595.492 26.2814   2
  -2  -4  -7 7681.90 76.0979   2
   2   4   7 7609.06 44.7707   3
   2   4   7 7636.73 59.3872   0
  -2  -4  -8 1897.04 45.4558   2
   2   4   8 1773.88 32.3078   0
  -2  -4  -9 337.070 33.1416   2
   2   4   9 288.091 20.8139   0
  -2  -4 -10 2455.62 60.8936   2
  -2  -4 -11 14526.7 132.036   2
  -2  -4 -12 317.038 46.7042   2
  -2  -4 -13 2109.17 68.1301   2
  -2  -4 -14-79.7093 44.1817   2
  -2  -4 -15-84.2562 49.4668   2
  -2  -4 -16 598.337 55.9096   2
   2   5 -14 54.8042 32.9428   4
   2   5 -13 437.091 62.5666   1
   2   5 -13 651.711 48.5649   4
   2   5 -12 41.2682 46.7128   1
   2   5 -12 60.2789 33.1680   4
   2   5 -11 44.3648 32.8680   4
   2   5 -11-28.6949 42.8738   1
   2   5 -10 934.831 47.2064   4
   2   5 -10 800.362 54.8841   1
   2   5  -9 665.199 51.0793   1
   2   5  -9 843.241 46.2982   4
   2   5  -8 2786.96 77.1534   1
   2   5  -8 3060.83 68.6017   4
   2   5  -7 1833.82 59.4643   1
   2   5  -7 1825.92 38.2039   3
   2   5  -7 1987.75 54.2732   4
   2   5  -6 476.133 37.0243   1
   2   5  -6 464.527 33.3838   4
   2   5  -6 474.498 25.8563   3
   2   5  -5 1895.78 51.3585   1
   2   5  -5 1886.16 47.9727   4
   2   5  -5 1963.27 37.8966   3
   2   5  -4 13019.2 115.700   1
   2   5  -4 13149.0 86.1422   3
   2   5  -4 12771.4 108.456   4
   2   5  -3 15116.2 117.336   1
   2   5  -3 15304.0 113.519   4
   2   5  -3 15123.4 71.1214   0
   2   5  -3 15443.2 89.8693   3
   2   5  -2 115.658 15.7393   0
   2   5  -2 73.1479 24.5164   1
   2   5  -1 7752.69 53.6898   0
   2   5  -1 7610.37 62.8103   3
   2   5  -1 7857.32 79.5378   1
   2   5   0 3159.83 36.5704   0
   2   5   0 3072.92 51.6510   1
   2   5   0 3194.88 41.3178   3
  -2  -5  -1 17.4710 7.62914   2
   2   5   1 40.6356 20.2154   1
   2   5   1 35.3887 13.8919   0
   2   5   1 21.9928 15.4911   3
   2   5   2 2.36183 14.5251   0
   2   5   2-20.5172 19.4862   1
  -2  -5  -2-5.82906 12.3258   2
   2   5   2 0.71270 14.8531   3
   2   5   3 23578.8 97.0349   0
  -2  -5  -3 23536.3 93.9013   2
   2   5   3 23512.7 133.651   1
   2   5   3 24042.8 98.4394   3
   2   5   4 9088.74 63.1812   0
  -2  -5  -4 9091.75 65.4758   2
   2   5   4 9428.33 61.5419   3
  -2  -5  -5 124.293 17.8085   2
   2   5   5 134.396 13.9720   3
   2   5   5 153.199 17.6515   0
  -2  -5  -6 8794.61 76.2927   2
   2   5   6 8893.10 64.6053   0
   2   5   6 9135.34 58.3122   3
  -2  -5  -7 2658.81 48.2016   2
   2   5   7 2804.60 39.6552   0
   2   5   8 3997.97 46.6330   0
  -2  -5  -8 3854.72 60.9932   2
  -2  -5  -9 159.803 32.5217   2
   2   5   9 185.536 21.5140   0
   2   5  10 4323.98 50.2433   0
  -2  -5 -10 4323.28 74.7709   2
  -2  -5 -11 14497.3 133.904   2
  -2  -5 -12 17932.0 155.206   2
  -2  -5 -13 6065.49 101.936   2
  -2  -5 -14 818.302 58.5672   2
  -2  -5 -15 162.890 46.9827   2
  -2  -5 -16 239.047 58.2728   2
   2   6 -12-65.1771 51.5764   1
   2   6 -12 112.084 36.2885   4
   2   6 -11 599.734 58.7884   1
   2   6 -11 817.599 47.7932   4
   2   6 -10 1075.98 61.3066   1
   2   6 -10 1310.02 54.6439   4
   2   6  -9 1667.82 70.3420   1
   2   6  -9 1676.61 56.4079   4
   2   6  -8 1250.85 58.1849   1
   2   6  -8 1073.24 47.3285   4
   2   6  -7 183.613 36.4207   1
   2   6  -7 177.459 24.7095   3
   2   6  -7 229.524 31.3115   4
   2   6  -6 14.7116 26.5619   4
   2   6  -6 90.7470 34.4679   1
   2   6  -6 47.0107 22.5253   3
   2   6  -5 1348.36 49.4080   1
   2   6  -5 1397.82 36.5990   3
   2   6  -5 1297.79 45.0001   4
   2   6  -4 1846.62 53.8410   1
   2   6  -4 1833.25 39.6719   3
   2   6  -4 1838.29 48.0238   4
   2   6  -3 46.2269 17.2565   0
   2   6  -3 34.0110 21.4189   3
   2   6  -3 26.6122 28.3233   1
   2   6  -3 25.1606 22.6467   4
   2   6  -2 2980.57 60.9249   1
   2   6  -2 3043.55 38.4321   0
   2   6  -2 3026.22 46.1415   3
   2   6  -1 11387.1 69.7801   0
   2   6  -1 11321.2 82.1634   3
   2   6  -1 11322.4 106.399   1
   2   6   0 10789.3 69.4990   0
   2   6   0 10878.6 78.3138   3
   2   6   0 10951.8 103.436   1
   2   6   1 8134.38 61.7267   0
   2   6   1 8179.28 67.2100   3
   2   6   1 7825.80 88.1769   1
   2   6   2 261.155 20.1885   0
  -2  -6  -2 255.299 14.6457   2
   2   6   2 191.026 28.6822   1
   2   6   2 284.179 21.1738   3
   2   6   3 16329.8 88.7069   0
  -2  -6  -3 16362.0 85.3349   2
   2   6   3 16712.8 128.125   1
   2   6   3 17278.5 93.0605   3
   2   6   4 12296.9 77.7334   0
  -2  -6  -4 12131.3 80.5138   2
   2   6   4 11448.0 108.088   1
   2   6   4 12225.3 78.0238   3
   2   6   5 17058.4 93.3683   0
  -2  -6  -5 17213.7 103.030   2
   2   6   5 17456.3 90.4816   3
  -2  -6  -6 45.5260 22.0126   2
   2   6   6 59.9752 19.7670   0
   2   6   7 1674.47 35.5578   0
  -2  -6  -7 1572.56 42.4437   2
   2   6   8 11751.8 81.3240   0
  -2  -6  -8 11785.0 104.643   2
   2   6   9 15809.3 93.8013   0
  -2  -6  -9 15534.1 127.709   2
   2   6  10 661.578 28.5501   0
  -2  -6 -10 817.798 47.6641   2
  -2  -6 -11 4685.00 83.9313   2
  -2  -6 -12 119.258 39.7161   2
  -2  -6 -13 3770.24 84.0476   2
  -2  -6 -14 145.663 49.0975   2
  -2  -6 -15 369.611 58.3599   2
  -2  -6 -16-16.0111 53.4807   2
   2   7 -11 209.432 51.3458   1
   2   7 -10 1549.13 79.1940   1
   2   7  -9 598.435 55.3522   1
   2   7  -8 729.147 51.5583   1
   2   7  -7 387.995 44.9256   1
   2   7  -7 338.219 26.8245   3
   2   7  -6 1027.96 52.4446   1
   2   7  -6 1011.33 37.6145   3
   2   7  -5 382.937 31.3644   4
   2   7  -5 409.194 30.8083   3
   2   7  -5 388.818 40.6264   1
   2   7  -4 1113.70 48.3727   1
   2   7  -4 1168.79 37.2801   3
   2   7  -4 1123.75 41.0136   4
   2   7  -3 18.8020 24.8591   3
   2   7  -3-20.4768 30.3425   1
   2   7  -2 1215.49 48.6416   1
   2   7  -2 1314.27 30.8455   0
   2   7  -2 1211.73 37.1086   3
   2   7  -1 229.406 22.4806   0
   2   7  -1 146.072 32.8493   1
   2   7  -1 191.566 26.2184   3
   2   7   0 6311.88 58.7978   0
   2   7   0 6292.44 66.1909   3
   2   7   0 6318.30 88.7532   1
   2   7   1 6701.14 68.3423   3
   2   7   1 6725.28 60.5319   0
   2   7   1 6969.09 93.1531   1
   2   7   2 175.931 20.6162   0
   2   7   2 158.849 23.2290   3
   2   7   2 105.176 32.2808   1
   2   7   3 7380.95 64.8117   0
   2   7   3 7693.74 69.6713   3
   2   7   3 7484.21 95.6767   1
   2   7   4 21748.6 161.890   1
   2   7   4 22318.9 111.173   0
  -2  -7  -5 1168.74 34.2221   2
   2   7   5 1249.00 34.2374   0
   2   7   5 1014.59 47.7339   1
  -2  -7  -6 1106.26 36.2624   2
   2   7   6 1183.45 34.4574   0
  -2  -7  -7 2174.80 50.1131   2
   2   7   7 2219.25 42.5191   0
  -2  -7  -8 14709.7 124.803   2
   2   7   8 14280.3 94.5947   0
  -2  -7  -9 5115.34 87.7238   2
   2   7   9 4651.86 58.2652   0
  -2  -7 -10 3615.13 76.4133   2
   2   7  10 3701.02 52.6347   0
  -2  -7 -11 64.3544 38.3277   2
  -2  -7 -12 1016.75 55.8638   2
  -2  -7 -13 364.367 55.0554   2
  -2  -7 -14 93.8417 51.7967   2
  -2  -7 -15 2230.40 85.3276   2
   2   8 -10-2.81300 46.3153   1
   2   8  -9 2.26848 51.4007   1
   2   8  -8 148.888 45.9503   1
   2   8  -7 85.3241 42.6416   1
   2   8  -6 836.837 55.1383   1
   2   8  -5 851.479 52.1990   1
   2   8  -4 906.718 51.5751   1
   2   8  -3 1164.09 52.7259   1
   2   8  -2 1419.83 55.7405   1
   2   8  -1 2397.21 43.7883   0
   2   8  -1 2308.27 63.8157   1
   2   8   0 51.7599 22.5371   0
   2   8   0 15.8446 34.7205   1
   2   8   1 1790.78 40.7488   0
   2   8   1 1375.30 53.5572   1
   2   8   2-43.2089 37.5918   1
   2   8   2-21.1132 22.3053   0
   2   8   3 1970.46 61.6212   1
   2   8   3 2058.16 42.5473   0
   2   8   4 9327.72 79.1761   0
   2   8   4 8964.46 115.566   1
   2   8   5 7703.65 109.794   1
   2   8   5 7799.03 74.3108   0
  -2  -8  -6 388.999 30.4623   2
   2   8   6 492.620 30.5309   0
  -2  -8  -7 2844.78 57.2837   2
   2   8   7 2766.74 71.9436   1
   2   8   7 2885.84 49.4097   0
   2   8   8 1637.43 40.9949   0
  -2  -8  -8 1597.33 50.5541   2
  -2  -8  -9 2373.93 61.0040   2
   2   8   9 2293.51 46.7154   0
  -2  -8 -10 316.073 40.7331   2
   2   8  10 292.283 26.0596   0
  -2  -8 -11 29.7566 36.9528   2
   2   8  11 8.15622 22.6622   0
  -2  -8 -12 858.741 53.5648   2
  -2  -8 -13 2489.96 76.7715   2
  -2  -8 -14 129.208 50.3655   2
  -2  -8 -15 95.7546 52.6504   2
   2   9  -9-5.16296 44.9664   1
   2   9  -8 138.113 50.4458   1
   2   9  -7 62.3173 43.8790   1
   2   9  -6 668.448 54.8398   1
   2   9  -5 752.219 56.1989   1
   2   9  -4 117.446 39.1593   1
   2   9  -3-8.19577 40.1146   1
   2   9  -2 613.538 49.4898   1
   2   9  -1 810.109 52.2475   1
   2   9   0 1337.18 59.0388   1
   2   9   1 399.132 30.6464   0
   2   9   1 285.888 40.4804   1
   2   9   2-2.02684 36.9424   1
   2   9   2 17.0313 26.8181   0
   2   9   3 218.305 29.2385   0
   2   9   3 186.886 41.1413   1
   2   9   4 3464.12 81.5492   1
   2   9   4 3868.40 61.2248   0
   2   9   5-14.3822 38.9077   1
   2   9   5 11.2976 28.5034   0
   2   9   6 487.587 49.6745   1
   2   9   6 473.570 33.6834   0
   2   9   7 416.491 50.5099   1
   2   9   7 376.880 34.1227   0
  -2  -9  -8 4203.98 76.5351   2
   2   9   8 4119.77 94.8593   1
   2   9   8 4454.51 64.4625   0
  -2  -9  -9 738.988 45.1149   2
   2   9   9 726.131 36.1391   0
   2   9  10 168.142 30.9661   0
  -2  -9 -10 131.752 38.3786   2
  -2  -9 -11 514.091 46.2114   2
   2   9  11 631.292 36.5540   0
  -2  -9 -12 244.334 45.6142   2
  -2  -9 -13-8.15562 40.7610   2
  -2  -9 -14 8.99480 43.2275   2
   2  10  -7 28.3682 48.5084   1
   2  10  -6 73.7510 49.6020   1
   2  10  -5 376.859 51.1311   1
   2  10  -4 305.800 48.4687   1
   2  10  -3 112.507 40.8835   1
   2  10  -2 2148.23 77.4926   1
   2  10  -1 2834.45 81.8449   1
   2  10   0 1989.22 72.5744   1
   2  10   1 224.451 48.8083   1
   2  10   2-131.059 44.2059   1
   2  10   3 839.141 39.4546   0
   2  10   3 754.967 57.1157   1
   2  10   4 2550.33 54.3316   0
   2  10   4 2425.59 78.4109   1
   2  10   5 1190.13 44.1197   0
   2  10   5 970.420 62.4919   1
   2  10   6 1041.72 43.2581   0
   2  10   6 898.267 60.1938   1
   2  10   7 8816.48 138.786   1
   2  10   7 9018.10 91.8220   0
   2  10   8 4225.75 67.1565   0
   2  10   8 4047.19 100.827   1
   2  10   9 80.7019 33.3712   0
   2  10   9 81.2693 44.8661   1
   2  10  10 325.378 36.6156   0
   2  10  10 293.751 49.8338   1
   2  10  11 1195.92 44.4744   0
  -2 -10 -11 959.440 54.2915   2
  -2 -10 -12 896.832 58.1210   2
  -2 -10 -13 219.159 47.8180   2
  -2 -10 -14 37.8205 53.4009   2
   2  11  -5 1056.22 69.9470   1
   2  11  -4-42.5022 47.8888   1
   2  11  -3 40.6403 46.6474   1
   2  11  -2 332.829 56.3681   1
   2  11  -1 1855.62 77.7651   1
   2  11   0 2182.30 79.8160   1
   2  11   1 178.977 54.9445   1
   2  11   2 194.969 52.4439   1
   2  11   3 462.283 55.2616   1
   2  11   4 1189.05 67.3809   1
   2  11   5 371.669 53.5491   1
   2  11   6 164.146 49.9983   1
   2  11   7-65.5559 46.4929   1
   2  11   8 240.534 54.4417   1
   2  11   9 112.511 49.6134   1
   2  11  10 1504.90 79.6751   1
   2  11  11 865.273 77.1848   1
   2  11  12 1025.60 69.1544   1
   2  12  -3 83.1672 50.7533   1
   2  12  -2 827.666 62.9799   1
   2  12  -1 1402.49 71.3835   1
   2  12   0 393.118 53.3342   1
   2  12   1 56.2056 50.0830   1
   2  12   2 155.072 50.9605   1
   2  12   3 458.655 55.0747   1
   2  12   4 356.409 54.2963   1
   2  12   5 115.964 54.9899   1
   2  12   6 324.665 65.8683   1
   2  12   7 3061.11 99.0763   1
   2  12   8 2088.76 91.6634   1
   2  12   9 16.2982 59.6673   1
   2  12  10 703.340 68.7966   1
   2  12  11 2106.57 98.3907   1
   2  13   2 360.331 66.5678   1
   2  13   3 177.389 54.3200   1
   2  13   4 92.4296 55.6801   1
   2  13   5-64.0483 56.5629   1
   2  13   6 173.095 61.3635   1
   2  13   7 201.602 55.1479   1
   3 -10  -9 1263.69 59.2941   3
  -3  10   8 885.562 74.1060   1
   3 -10  -8 899.091 59.0145   3
   3 -10  -7 94.9177 48.8790   3
  -3  10   7 14.3071 51.7314   1
  -3  10   6 121.683 57.9780   1
  -3  10   5 104.236 53.7885   1
  -3  10   4 1110.01 73.5653   1
  -3  10   3 821.068 68.7926   1
  -3  10   1 522.576 62.1422   1
  -3  10   0 605.237 65.0868   1
  -3  10  -1 264.099 55.4883   1
  -3  10  -3 20.8736 50.2675   1
  -3   9  11 348.412 69.9262   1
   3  -9 -10 79.0750 50.8949   2
   3  -9  -9 555.515 45.9764   3
  -3   9   9 722.930 70.3305   1
  -3   9   8 2054.38 90.9639   1
   3  -9  -8 2102.65 73.0849   3
   3  -9  -7 892.744 58.7822   3
  -3   9   7 840.729 72.0435   1
  -3   9   6 80.9509 47.2989   1
  -3   9   5 1298.38 69.9510   1
  -3   9   4 1299.63 70.7143   1
  -3   9   3 1495.86 72.6062   1
  -3   9   2 697.835 61.7120   1
  -3   9   1 33.4326 49.1372   1
  -3   9   0 1107.75 64.8544   1
  -3   9  -1 590.575 57.2382   1
  -3   9  -2 419.416 51.0846   1
  -3   9  -3 347.436 51.9221   1
  -3   9  -4 98.0523 41.5473   1
  -3   9  -5 284.380 44.3462   1
  -3   9  -6 281.451 47.1067   1
   3  -8 -11 26.7253 48.4832   2
   3  -8 -10 12.7524 51.9080   2
   3  -8  -9 452.370 46.0440   3
  -3   8   9 295.136 56.0289   1
   3  -8  -9 439.383 56.3426   2
  -3   8   8 957.735 70.3857   1
   3  -8  -8 965.651 50.9306   3
   3  -8  -8 1009.13 66.2130   2
  -3   8   7 49.4471 47.5611   1
   3  -8  -7 36.6836 36.6158   3
  -3   8   6 339.776 53.0578   1
   3  -8  -6 337.205 42.6705   3
  -3   8   5 569.553 55.8043   1
  -3   8   4 1866.99 70.3446   1
  -3   8   3 628.097 53.4994   1
  -3   8   2-4.69261 39.2265   1
  -3   8   1 526.164 48.9347   1
  -3   8   0 223.032 43.3050   1
  -3   8  -1 311.830 45.6611   1
  -3   8  -2 960.022 59.0487   1
  -3   8  -3-29.4828 40.8736   1
  -3   8  -4 213.447 37.6344   1
  -3   8  -5 0.60642 33.9980   1
  -3   8  -6 24.4224 38.3793   1
  -3   8  -7 105.440 39.4621   1
  -3   8  -8 157.944 46.0392   1
   3  -7 -12 1512.28 80.8937   2
   3  -7 -11 749.305 62.1564   2
   3  -7 -10-14.8783 50.2736   2
   3  -7  -9 3382.06 94.9229   2
   3  -7  -9 3561.15 77.0815   3
   3  -7  -8 5914.53 94.5405   3
   3  -7  -8 5818.82 114.019   2
  -3   7   7 143.754 45.9765   1
   3  -7  -7 222.726 38.2730   3
   3  -7  -7 186.160 49.1850   2
  -3   7   6 220.655 42.0663   1
   3  -7  -6 197.363 36.6503   3
  -3   7   5 397.191 45.9991   1
   3  -7  -5 336.900 37.8193   3
  -3   7   4 38.4687 36.2902   1
  -3   7   3 112.974 37.7438   1
  -3   7   2 951.847 51.3512   1
  -3   7   1 3181.30 79.3910   1
  -3   7   0 3633.03 84.2255   1
  -3   7  -1 3174.63 80.0679   1
  -3   7  -2 417.487 46.4684   1
  -3   7  -3 2143.52 69.6282   1
  -3   7  -4-46.9707 38.2557   1
  -3   7  -5-61.3280 32.3927   2
  -3   7  -5-102.031 32.6070   1
  -3   7  -6 214.558 38.7692   1
  -3   7  -7 358.282 39.3296   1
  -3   7  -8 523.329 44.7869   1
  -3   7  -9 184.482 34.4189   1
   3  -6 -13 429.246 61.5372   2
   3  -6 -12 434.251 58.0609   2
   3  -6 -11 98.0277 48.1204   2
   3  -6 -10 393.603 54.8303   2
   3  -6  -9 2611.42 81.9655   2
   3  -6  -9 3005.32 68.8935   3
   3  -6  -8 1507.92 66.0052   2
   3  -6  -8 1619.98 55.6851   3
   3  -6  -7 856.642 58.0124   2
   3  -6  -7 941.547 48.5356   3
   3  -6  -6 5898.60 88.7286   3
  -3   6   6 5476.37 96.6855   1
   3  -6  -6 5706.26 104.738   2
  -3   6   5 3056.42 76.1829   1
   3  -6  -5 3114.12 67.3219   3
   3  -6  -4 619.422 42.5540   3
  -3   6   4 620.018 47.0904   1
  -3   6   3 686.224 47.9398   1
  -3   6   2 4738.07 86.5255   1
  -3   6   1 5297.17 90.8212   1
  -3   6   0 5671.22 92.8795   1
  -3   6  -1 44.7320 36.1702   1
  -3   6  -2 723.829 46.4893   1
  -3   6  -3 394.153 40.9121   1
  -3   6  -4 2017.25 62.3041   1
  -3   6  -5 251.201 38.2587   2
  -3   6  -5 228.126 39.8245   1
  -3   6  -6 3830.90 78.1832   2
  -3   6  -6 3785.07 84.8076   1
  -3   6  -7 966.807 46.8575   2
  -3   6  -7 1046.02 51.9854   1
  -3   6  -8 759.180 46.3893   1
  -3   6  -8 551.456 37.6484   2
  -3   6  -9 111.651 34.2720   1
  -3   6 -10 159.372 36.7681   1
  -3   6 -11 296.392 49.5439   1
   3  -5 -14 94.1113 53.5316   2
   3  -5 -13 178.373 49.2452   2
   3  -5 -12 19.3333 43.6409   2
   3  -5 -11 92.1246 50.2093   2
   3  -5 -10 104.117 47.6857   2
   3  -5  -9 7903.95 124.627   2
   3  -5  -9 8090.23 97.8319   3
   3  -5  -8 11857.5 140.597   2
   3  -5  -8 11985.8 116.523   3
   3  -5  -7 613.308 52.8805   2
   3  -5  -7 736.203 43.8715   3
   3  -5  -6 13637.6 121.732   3
   3  -5  -6 13015.8 141.943   2
   3  -5  -5 13513.4 120.119   3
  -3   5   4 2565.62 63.9361   1
   3  -5  -4 2638.07 58.1643   3
   3  -5  -3 762.733 38.7239   3
  -3   5   3 688.714 41.5539   1
  -3   5   2 1734.90 53.4663   1
  -3   5   1 16765.1 138.224   1
  -3   5   0 4773.79 79.1221   1
  -3   5  -1 5323.81 82.9164   1
  -3   5  -2 82.6444 30.9967   1
  -3   5  -3 3105.84 66.9729   1
  -3   5  -4 1078.19 46.1427   1
  -3   5  -5 1579.80 55.2050   2
  -3   5  -5 1599.08 55.1578   1
  -3   5  -6 1500.12 56.0746   2
  -3   5  -6 1505.09 54.7578   1
  -3   5  -7 2143.92 62.2251   2
  -3   5  -7 2298.69 69.0683   1
  -3   5  -8 66.5951 36.9192   2
  -3   5  -8 77.7474 33.2678   1
  -3   5  -9 7.58877 30.9376   2
  -3   5  -9-17.8896 32.9463   1
  -3   5 -10 48.6494 26.2840   2
  -3   5 -10 58.2666 34.3939   1
  -3   5 -11 56.9114 36.0254   1
  -3   5 -12 730.818 59.4704   1
   3  -4 -15 65.1159 47.8106   2
   3  -4 -15 17.8695 31.7317   4
   3  -4 -14 445.918 54.9839   2
   3  -4 -14 464.027 41.8405   4
   3  -4 -13 464.888 40.1119   4
   3  -4 -13 439.516 58.9845   2
   3  -4 -12 528.459 57.6216   2
   3  -4 -12 640.506 43.2794   4
   3  -4 -11 113.036 31.6356   4
   3  -4 -11 92.0932 47.7571   2
   3  -4 -10 6079.77 83.9436   4
   3  -4 -10 8915.95 126.297   2
   3  -4  -9 1469.16 63.1083   2
   3  -4  -9 1238.69 44.4668   3
   3  -4  -8 507.007 49.9899   2
   3  -4  -8 357.874 37.0536   3
   3  -4  -7 4838.94 88.5615   2
   3  -4  -7 5043.08 75.1180   3
   3  -4  -6 651.124 47.5224   2
   3  -4  -6 705.504 37.8292   3
   3  -4  -5 274.153 29.1536   3
   3  -4  -5 211.213 39.7387   2
   3  -4  -4 1594.81 44.2923   3
   3  -4  -3 328.509 28.3497   3
  -3   4   3 270.647 30.1332   1
   3  -4  -2 2479.23 51.1194   3
  -3   4   2 2509.97 54.9052   1
  -3   4   1 5893.25 77.4728   1
   3  -4  -1 6004.01 75.0935   3
  -3   4   0 9751.19 97.4334   1
   3  -4   0 9796.71 93.2948   3
  -3   4  -1 462.333 30.6288   1
  -3   4  -2 42.2840 23.8776   1
  -3   4  -3 63.9994 24.5768   1
  -3   4  -4 8961.53 99.1507   1
  -3   4  -5 450.361 37.3329   2
  -3   4  -5 418.204 33.9990   1
  -3   4  -6 3049.79 66.1834   2
  -3   4  -6 3080.45 66.5418   1
  -3   4  -7 7585.95 98.2774   2
  -3   4  -7 7632.36 103.738   1
  -3   4  -8 3671.12 74.8395   2
  -3   4  -8 3625.90 78.7193   1
  -3   4  -9 4991.37 85.7835   2
  -3   4  -9 5041.33 95.7576   1
  -3   4 -10 534.434 41.0969   2
  -3   4 -10 347.476 46.5522   1
  -3   4 -11 2.07210 39.3522   2
  -3   4 -11-22.3783 35.0315   1
  -3   4 -12-17.1942 36.0629   2
  -3   4 -12-32.7385 33.8441   1
  -3   4 -13-9.64681 41.4605   1
   3  -3 -16 27.5447 38.9475   2
   3  -3 -15 149.795 36.6180   4
   3  -3 -15 123.779 42.6450   2
   3  -3 -14 637.769 55.5569   2
   3  -3 -14 794.084 51.8858   4
   3  -3 -13 277.460 41.1185   4
   3  -3 -13 212.642 51.0925   2
   3  -3 -12 39.5812 31.5866   4
   3  -3 -12 18.0185 41.8585   2
   3  -3 -11 1686.00 55.5790   4
   3  -3 -11 1435.34 64.1077   2
   3  -3 -10 120.001 44.2860   2
   3  -3 -10 109.322 31.4213   4
   3  -3  -9 1374.27 57.6220   2
   3  -3  -9 1249.25 45.0186   4
   3  -3  -8 3256.42 60.0316   4
   3  -3  -8 3222.71 74.5306   2
   3  -3  -8 3384.91 60.3240   3
   3  -3  -7 1043.70 39.1556   3
   3  -3  -7 1027.65 49.9153   2
   3  -3  -7 1067.26 36.7641   4
   3  -3  -6 9873.36 93.6714   3
   3  -3  -6 9673.14 109.951   2
   3  -3  -6 9513.96 86.9872   4
   3  -3  -5 27672.1 152.362   3
   3  -3  -5 26918.9 136.789   4
   3  -3  -5 27150.6 174.244   2
   3  -3  -4 11697.4 86.8082   4
   3  -3  -4 11971.5 99.6167   3
   3  -3  -3 1062.82 36.1840   3
  -3   3   2 1170.80 35.6713   1
   3  -3  -2 1193.09 36.9739   3
   3  -3  -1 5655.62 68.2654   3
  -3   3   1 5535.32 66.5380   1
   3  -3   0 489.642 27.5313   3
  -3   3   0 521.593 27.0144   1
   3  -3   1 2096.47 43.2373   3
  -3   3  -1 2122.36 43.2218   1
  -3   3  -2 3.06638 17.3135   1
   3  -3   2-1.45019 19.1023   3
  -3   3  -3 4322.99 61.1919   1
   3  -3   3 4264.61 58.3990   3
  -3   3  -4 48.8243 19.1215   1
   3  -3   4 88.6624 21.4893   3
   3  -3   5 4706.90 61.0454   3
  -3   3  -5 4749.83 70.2060   1
  -3   3  -5 4690.23 75.0716   2
  -3   3  -6 79.6792 31.3647   2
  -3   3  -6 105.118 25.7369   1
  -3   3  -7 6654.25 89.0383   2
  -3   3  -7 6620.42 89.9328   1
  -3   3  -8 1734.82 56.5345   2
  -3   3  -8 1585.89 57.9456   1
  -3   3  -9 671.637 44.7571   2
  -3   3  -9 631.916 46.8244   1
  -3   3 -10 1871.79 59.6081   2
  -3   3 -10 1734.76 65.0819   1
  -3   3 -11 2029.81 65.9434   2
  -3   3 -11 1806.15 66.7974   1
  -3   3 -12 56.7934 33.9514   1
  -3   3 -12 61.3269 43.3310   2
  -3   3 -13 296.856 38.9635   2
  -3   3 -13 371.557 42.1356   1
  -3   3 -14-38.0342 37.8483   1
  -3   3 -14 94.4666 39.7312   2
   3  -2 -15 225.934 41.7705   4
   3  -2 -14 159.229 38.2054   4
   3  -2 -14 38.0256 36.4212   2
   3  -2 -13 11.5721 34.0054   4
   3  -2 -13-16.7631 41.3528   2
   3  -2 -12 476.042 46.4208   2
   3  -2 -12 516.126 41.3411   4
   3  -2 -11 375.784 45.0990   2
   3  -2 -11 464.985 39.4348   4
   3  -2 -10 8017.20 100.869   4
   3  -2 -10 8005.43 109.893   2
   3  -2  -9 5821.75 93.5768   2
   3  -2  -9 6133.23 83.6248   4
   3  -2  -8 283.298 37.9833   2
   3  -2  -8 331.778 30.6662   4
   3  -2  -8 315.073 29.5097   3
   3  -2  -7 1997.69 55.4150   2
   3  -2  -7 2028.55 47.2727   4
   3  -2  -7 1964.44 45.9164   3
   3  -2  -6 2565.22 59.5588   2
   3  -2  -6 2714.43 50.2688   4
   3  -2  -6 2602.69 49.7069   3
   3  -2  -5 4712.83 63.6231   3
   3  -2  -5 4499.87 60.2365   4
   3  -2  -5 4325.27 69.0481   2
   3  -2  -4 11753.0 94.8115   3
   3  -2  -4 11732.0 90.1436   4
   3  -2  -4 11680.6 106.738   2
   3  -2  -3 4012.01 57.4388   3
   3  -2  -3 3806.55 50.5964   4
   3  -2  -2 9214.00 81.5155   3
  -3   2   2 9161.75 75.0433   1
  -3   2   1 10485.9 78.9277   1
   3  -2  -1 10338.8 84.8510   3
  -3   2   0 296.664 19.2325   1
   3  -2   0 311.446 22.3939   3
  -3   2  -1 8935.07 71.8224   1
   3  -2   1 9117.50 78.0799   3
  -3   2  -2 21816.0 112.735   1
   3  -2   2 22066.3 118.595   3
   3  -2   3 25.6925 16.0201   3
  -3   2  -3-74.1940 10.5964   1
  -3   2  -4 9712.28 83.1846   1
   3  -2   4 9743.35 78.8250   3
  -3   2  -5 1.12892 25.5547   2
   3  -2   5 4.33597 16.2133   3
  -3   2  -5 6.32699 17.4772   1
  -3   2  -6 12381.7 110.164   2
  -3   2  -6 12515.2 106.540   1
  -3   2  -7 312.947 34.0347   2
  -3   2  -7 500.270 34.3617   1
  -3   2  -8 12560.2 119.644   2
  -3   2  -8 12220.5 122.572   1
  -3   2  -9 8234.90 102.582   2
  -3   2  -9 8684.78 112.082   1
  -3   2 -10 788.163 46.6338   2
  -3   2 -10 732.678 46.9430   1
  -3   2 -11 69.8860 38.5844   1
  -3   2 -11 91.6621 39.5157   2
  -3   2 -12 3002.82 75.0304   2
  -3   2 -12 2834.37 79.5041   1
  -3   2 -13 1135.12 61.4170   2
  -3   2 -13 933.014 55.2015   1
  -3   2 -14 191.073 38.6992   1
  -3   2 -14 312.543 42.9329   2
  -3   2 -15 23.2676 44.4679   1
   3  -1 -15 1020.63 55.5732   4
   3  -1 -14 1310.28 63.4797   4
   3  -1 -13 71.6946 41.6096   4
   3  -1 -13 61.9626 38.1763   2
   3  -1 -12 383.866 43.7079   2
   3  -1 -12 455.894 44.3651   4
   3  -1 -11 2241.32 64.6760   2
   3  -1 -11 2373.52 64.8614   4
   3  -1 -10 10167.8 113.788   4
   3  -1 -10 9509.90 112.817   2
   3  -1  -9 1361.80 50.5460   2
   3  -1  -9 1443.46 49.7213   4
   3  -1  -8 1193.66 45.5070   2
   3  -1  -8 1299.78 44.1360   4
   3  -1  -8 1260.79 38.4984   3
   3  -1  -7 5191.25 75.7363   2
   3  -1  -7 5431.38 67.2195   3
   3  -1  -7 5547.94 74.9428   4
   3  -1  -6 232.595 28.9569   2
   3  -1  -6 237.229 25.1489   4
   3  -1  -6 228.780 25.4322   3
   3  -1  -5 2455.94 52.1737   2
   3  -1  -5 2520.04 48.0202   3
   3  -1  -5 2481.62 48.9785   4
   3  -1  -4 10654.2 96.7212   2
   3  -1  -4 11005.3 91.3956   4
   3  -1  -4 10833.2 87.7646   3
   3  -1  -3 16212.3 104.990   3
   3  -1  -3 15865.2 103.600   4
   3  -1  -2 8728.57 76.3498   3
   3  -1  -1 1938.69 37.8581   3
  -3   1   1 1926.74 30.6199   1
   3  -1   0 16386.6 100.658   3
  -3   1   0 16625.0 79.3624   1
   3  -1   1 21981.1 113.646   3
  -3   1  -1 21141.2 91.5441   1
  -3   1  -2 119.551 9.45552   1
   3  -1   2 122.239 16.9800   3
   3  -1   3 12874.5 85.0569   3
  -3   1  -3 13008.2 77.7795   1
  -3   1  -4 1467.43 40.5050   2
  -3   1  -4 1492.38 30.0338   1
   3  -1   4 1416.60 31.4186   3
  -3   1  -5 974.876 36.1538   2
  -3   1  -5 969.181 28.5321   1
   3  -1   5 951.868 25.8770   3
  -3   1  -6 42.6290 25.6420   2
   3  -1   6 27.8661 13.6245   3
  -3   1  -6 52.2640 17.4418   1
  -3   1  -7 20925.2 140.706   2
  -3   1  -7 21127.8 139.075   1
  -3   1  -8 4498.72 73.1441   2
  -3   1  -8 4479.98 73.3087   1
  -3   1  -9 4426.42 76.2867   2
  -3   1  -9 4219.22 79.2909   1
  -3   1 -10 4499.33 80.2698   2
  -3   1 -10 4209.81 84.5602   1
  -3   1 -11 4188.86 80.7268   2
  -3   1 -11 4095.31 86.5370   1
  -3   1 -12-6.33526 35.4861   1
  -3   1 -12 110.922 38.7141   2
  -3   1 -13-108.165 35.6654   1
  -3   1 -13 58.7501 42.6213   2
  -3   1 -14 22.5154 31.9046   1
  -3   1 -14-24.2068 46.4282   2
  -3   1 -15 314.877 46.7016   1
  -3   1 -15 120.744 43.9572   2
   3   0 -15 275.528 42.9893   4
   3   0 -15 405.637 56.2450   1
   3   0 -14 1085.69 60.2060   4
   3   0 -14 1093.01 67.9944   1
   3   0 -13 2460.20 84.2432   1
   3   0 -13 2683.07 78.6213   4
   3   0 -12-6.91584 41.0605   1
   3   0 -12 54.5156 34.8336   4
   3   0 -11 163.343 35.6917   1
   3   0 -11 254.057 35.7153   4
   3   0 -10 475.838 43.6562   1
   3   0 -10 485.193 37.5300   2
   3   0 -10 517.627 41.7439   4
   3   0  -9 3474.94 66.3864   2
   3   0  -9 3640.92 75.1886   1
   3   0  -9 3847.38 73.6095   4
   3   0  -8 1394.61 47.7262   1
   3   0  -8 1517.38 46.3615   2
   3   0  -8 1435.68 48.1605   4
   3   0  -8 1492.52 40.1175   3
   3   0  -7 236.138 27.5767   2
   3   0  -7 250.560 28.5580   1
   3   0  -7 241.573 25.0206   3
   3   0  -6 4097.96 61.7132   2
   3   0  -6 4120.55 64.7247   4
   3   0  -6 4012.54 61.9275   1
   3   0  -6 4173.31 57.7174   3
   3   0  -5 36289.8 165.075   2
   3   0  -5 35469.1 173.266   4
   3   0  -5 35693.5 156.953   3
   3   0  -5 35733.0 160.327   1
   3   0  -4 653.333 31.0365   4
   3   0  -4 637.713 27.9617   3
   3   0  -4 639.176 30.0233   2
   3   0  -3 2293.47 44.3374   4
   3   0  -3 2252.01 41.5903   3
   3   0  -2 5220.88 58.6917   3
   3   0  -1 4169.18 51.2867   3
   3   0   0 208.036 18.6999   3
   3   0   1 4902.55 54.1366   3
  -3   0  -2 67567.6 124.433   1
   3   0   2 69107.9 188.529   3
   3   0   3 6996.00 60.8468   3
  -3   0  -3 6574.87 47.7227   1
  -3   0  -4 448.058 25.5358   2
  -3   0  -4 472.003 16.0413   1
   3   0   4 475.255 18.9981   3
  -3   0  -5 22959.4 114.977   1
  -3   0  -5 23147.0 131.327   2
   3   0   5 22148.2 103.791   3
  -3   0  -6 5589.26 70.2630   2
  -3   0  -6 5678.43 64.1511   1
   3   0   6 5659.16 51.6416   3
  -3   0  -7 1974.77 49.0676   2
  -3   0  -7 2100.49 44.6786   1
  -3   0  -8 9132.25 96.7367   2
  -3   0  -8 9205.48 97.6892   1
  -3   0  -9 6789.98 89.1497   2
  -3   0  -9 6689.38 90.2823   1
  -3   0 -10 825.423 46.5845   2
  -3   0 -10 776.392 41.9026   1
  -3   0 -11-45.9301 34.4388   1
  -3   0 -11 48.4188 37.5768   2
  -3   0 -12 5422.68 94.9011   2
  -3   0 -12 5219.29 97.1280   1
  -3   0 -13 2354.24 71.9228   2
  -3   0 -13 2309.26 74.6446   1
  -3   0 -14 243.991 41.0200   1
  -3   0 -14 204.077 46.6719   2
  -3   0 -15-8.50796 35.9263   1
  -3   0 -15-34.0553 47.8803   2
   3   1 -15 39.7238 52.1874   1
   3   1 -14 1350.31 61.8178   4
   3   1 -14 1336.99 73.1049   1
   3   1 -13 241.277 46.2171   1
   3   1 -13 349.835 42.2855   4
   3   1 -12 503.727 47.4616   1
   3   1 -12 578.618 44.8701   4
   3   1 -11-10.0136 33.2081   1
   3   1 -11-9.55364 32.0009   4
   3   1 -10 582.381 45.6460   1
   3   1 -10 637.982 43.7059   4
   3   1  -9-0.07694 32.4335   4
   3   1  -9-17.7077 32.2141   1
   3   1  -8 1226.76 39.3358   2
   3   1  -8 1216.32 45.6551   1
   3   1  -8 1335.22 48.9133   4
   3   1  -8 1218.12 35.1083   3
   3   1  -7 3509.91 56.1231   2
   3   1  -7 3396.05 62.5469   1
   3   1  -7 3645.36 66.7140   4
   3   1  -7 3531.13 51.7855   3
   3   1  -6 4879.09 61.6543   2
   3   1  -6 4769.02 66.2351   1
   3   1  -6 4832.12 72.6954   4
   3   1  -6 4845.89 59.8867   3
   3   1  -5 5832.82 66.5904   1
   3   1  -5 5911.35 64.3591   2
   3   1  -5 6059.29 65.5643   3
   3   1  -5 6046.61 75.4765   4
   3   1  -4 10236.9 77.5577   1
   3   1  -4 10642.3 81.0776   2
   3   1  -4 10497.4 95.9870   4
   3   1  -4 10657.7 84.9684   3
   3   1  -3 6586.18 73.9343   4
   3   1  -3 6951.96 68.8876   3
   3   1  -3 6681.58 54.8640   1
   3   1  -2 2370.15 28.2422   1
   3   1  -2 2335.03 41.1930   3
   3   1  -1 1942.05 36.0444   3
   3   1   0 27662.6 123.618   3
   3   1   1 2015.87 35.6144   3
   3   1   2 8766.36 67.5983   3
  -3  -1  -3 5794.33 60.8731   2
  -3  -1  -3 5770.56 37.5846   1
   3   1   3 5821.62 54.3384   3
  -3  -1  -4 51406.7 177.389   2
  -3  -1  -4 51495.0 136.631   1
   3   1   4 51637.9 153.425   3
  -3  -1  -5 2545.50 44.3626   2
  -3  -1  -5 2577.21 35.8527   1
   3   1   5 2563.74 35.1224   3
  -3  -1  -6 351.478 24.8877   2
  -3  -1  -6 325.571 18.4393   1
   3   1   6 327.585 17.7734   3
  -3  -1  -7 3469.81 59.3171   2
  -3  -1  -7 3606.38 54.7576   1
  -3  -1  -8 3069.10 61.2026   2
  -3  -1  -8 3262.05 56.2154   1
  -3  -1  -9 105.546 23.4181   1
  -3  -1  -9 63.1880 32.5891   2
  -3  -1 -10 4883.69 80.9140   2
  -3  -1 -10 4805.21 79.9443   1
  -3  -1 -11 3747.98 76.8652   2
  -3  -1 -11 3560.39 75.8603   1
  -3  -1 -12 1769.93 63.1436   2
  -3  -1 -12 1649.30 63.0696   1
  -3  -1 -13 442.301 47.5603   2
  -3  -1 -13 447.111 42.9830   1
  -3  -1 -14 95.5425 37.1689   1
  -3  -1 -14 177.564 42.2108   2
  -3  -1 -15 452.709 52.2695   2
  -3  -1 -15 395.157 43.5602   1
   3   2 -15 35.5624 56.1584   1
   3   2 -14 210.859 46.0390   1
   3   2 -14 287.807 44.0248   4
   3   2 -13 1116.29 66.3818   1
   3   2 -13 1108.59 60.1835   4
   3   2 -12 140.753 40.4190   1
   3   2 -11 979.307 53.3103   1
   3   2 -11 679.361 45.4348   4
   3   2 -10 105.684 32.3929   1
   3   2 -10 65.6698 33.4816   4
   3   2  -9 5643.45 92.4667   1
   3   2  -9 6092.13 94.5336   4
   3   2  -8 45.5307 26.6335   1
   3   2  -8 51.1065 33.3137   4
   3   2  -8 11.9243 23.6418   3
   3   2  -7 3768.80 66.6583   1
   3   2  -7 3889.04 73.0796   4
   3   2  -7 3770.88 52.5641   3
   3   2  -6 327.411 24.8265   1
   3   2  -6 360.903 22.7929   2
   3   2  -6 333.737 24.3063   3
   3   2  -6 383.730 33.1156   4
   3   2  -5 155.620 11.9921   0
   3   2  -5 76.5204 26.3663   4
   3   2  -5 135.945 21.0894   3
   3   2  -4 3229.87 58.7162   4
   3   2  -4 3280.27 46.7232   1
   3   2  -4 3258.49 34.0708   0
   3   2  -4 3120.01 46.7831   3
   3   2  -4 3331.00 42.2030   2
   3   2  -3 13459.9 69.1149   0
   3   2  -3 13203.1 80.9566   1
   3   2  -3 13534.0 109.002   4
   3   2  -3 13070.3 89.2184   3
   3   2  -2 8103.91 55.8312   0
   3   2  -2 8036.68 54.1185   1
   3   2  -2 8118.70 69.3610   3
   3   2  -1 29895.3 83.5521   1
   3   2  -1 29592.1 128.212   3
   3   2   0 544.044 22.9222   3
   3   2   1 63689.7 179.065   3
  -3  -2  -2 38126.5 132.302   2
   3   2   2 38136.1 135.184   3
  -3  -2  -3 41832.9 145.805   2
   3   2   3 41470.8 137.883   3
  -3  -2  -4 30248.8 130.873   2
   3   2   4 29844.0 113.365   3
  -3  -2  -5-8.88704 15.0639   2
   3   2   5 10.7864 10.7731   3
  -3  -2  -6 11915.5 92.1325   2
  -3  -2  -6 11921.5 85.7924   1
   3   2   6 11331.8 64.2751   3
  -3  -2  -7 18364.1 121.685   2
  -3  -2  -7 18246.1 117.534   1
  -3  -2  -8 714.288 36.6852   2
   3   2   8 579.768 27.8641   0
  -3  -2  -8 687.116 30.2378   1
  -3  -2  -9 5593.84 79.5820   2
   3   2   9 5432.69 61.2859   0
  -3  -2  -9 5569.80 78.7858   1
  -3  -2 -10 3516.75 70.4822   2
  -3  -2 -10 3443.36 69.4713   1
  -3  -2 -11 723.462 47.2750   2
  -3  -2 -11 744.105 43.2450   1
  -3  -2 -12 2038.98 67.0669   2
  -3  -2 -12 1883.45 64.8770   1
  -3  -2 -13 93.1874 36.9461   1
  -3  -2 -13 126.280 43.5013   2
  -3  -2 -14 3575.57 84.5868   2
  -3  -2 -14 3309.67 85.3775   1
  -3  -2 -15 579.132 59.0363   2
  -3  -2 -15 594.151 47.7431   1
  -3  -2 -16 1358.82 72.4805   2
  -3  -2 -16 1360.67 67.9996   1
   3   3 -14 452.618 44.6180   4
   3   3 -14 389.467 53.7379   1
   3   3 -13-35.1650 41.8900   1
   3   3 -13 44.0899 40.4489   4
   3   3 -12 782.893 58.1510   1
   3   3 -12 834.184 52.4555   4
   3   3 -11-35.3773 37.6711   1
   3   3 -11 40.3283 36.0823   4
   3   3 -10 102.222 38.4453   1
   3   3 -10 231.780 39.2310   4
   3   3  -9 6935.41 106.356   1
   3   3  -9 7202.43 106.591   4
   3   3  -8 8531.51 112.290   1
   3   3  -8 8651.69 76.3120   3
   3   3  -7 672.980 41.7671   1
   3   3  -7 711.938 43.0117   4
   3   3  -7 679.549 30.9942   3
   3   3  -6 2690.64 57.1441   1
   3   3  -6 2964.52 63.0369   4
   3   3  -6 2683.15 45.8675   3
   3   3  -5 6.23249 29.6661   4
   3   3  -5 46.8738 20.4794   3
   3   3  -5 46.8350 19.9569   1
   3   3  -4 2039.10 51.8183   4
   3   3  -4 2031.68 40.2051   1
   3   3  -4 2118.96 27.9648   0
   3   3  -4 2078.46 39.4180   3
   3   3  -3 5616.49 58.3889   1
   3   3  -3 5767.71 75.7252   4
   3   3  -3 5782.84 45.6654   0
   3   3  -3 5652.98 59.9797   3
   3   3  -2 33251.7 121.622   1
   3   3  -2 33457.9 110.241   0
   3   3  -2 32800.7 136.497   3
   3   3  -1 810.346 18.9804   1
   3   3  -1 810.839 25.7868   3
   3   3  -1 858.207 22.9140   0
  -3  -3   0 19426.7 76.7723   2
   3   3   0 19688.9 73.8608   1
   3   3   0 19213.8 99.8446   3
   3   3   0 19658.9 92.2254   0
  -3  -3  -1 3983.09 37.4398   2
   3   3   1 3966.46 44.5001   0
   3   3   1 4153.20 47.5493   3
   3   3   1 4031.95 32.5671   1
  -3  -3  -2 2679.14 34.0689   2
   3   3   2 2594.66 38.7302   0
   3   3   2 2672.73 38.6839   3
   3   3   2 2686.73 28.1262   1
  -3  -3  -3 1073.15 26.6469   2
   3   3   3 1089.63 30.7706   0
   3   3   3 1198.85 28.1976   3
  -3  -3  -4 85141.5 208.292   2
   3   3   4 83986.6 188.661   3
  -3  -3  -5 17132.2 101.693   2
   3   3   5 17341.7 98.4525   0
   3   3   5 17172.4 81.3459   3
  -3  -3  -6 1663.34 38.2159   2
   3   3   6 1663.66 34.5771   0
   3   3   6 1655.88 26.1135   3
  -3  -3  -7 5352.92 67.2659   2
   3   3   7 5182.96 58.9416   0
  -3  -3  -8 7489.70 84.7517   2
   3   3   8 7441.57 70.2763   0
  -3  -3  -9 2228.85 54.9188   2
   3   3   9 2275.11 43.0268   0
  -3  -3 -10 3269.93 67.5329   2
   3   3  10 3059.08 48.3607   0
  -3  -3 -11 6712.38 97.4753   2
  -3  -3 -12 6735.37 101.987   2
  -3  -3 -13 12.7243 42.8761   2
  -3  -3 -14 89.5302 44.6638   2
  -3  -3 -15 1717.64 71.3528   2
  -3  -3 -16 1271.37 72.7404   2
   3   4 -14 80.7721 52.2508   1
   3   4 -13 94.5474 40.7311   4
   3   4 -12 339.628 51.8894   1
   3   4 -12 530.364 53.2577   4
   3   4 -11 2416.69 76.6997   4
   3   4 -11 2028.47 74.5501   1
   3   4 -10 81.6062 41.6253   1
   3   4 -10 183.901 40.5637   4
   3   4  -9 2243.22 72.8363   1
   3   4  -9 2580.70 70.5032   4
   3   4  -8 4429.11 88.0032   1
   3   4  -8 5090.08 89.5580   4
   3   4  -7 19711.4 160.218   1
   3   4  -7 19429.6 111.689   3
   3   4  -7 20234.6 162.589   4
   3   4  -6 6775.06 87.4180   1
   3   4  -6 7245.01 97.1525   4
   3   4  -6 7076.49 69.2084   3
   3   4  -5 2710.31 55.9902   1
   3   4  -5 2889.36 64.2116   4
   3   4  -5 2815.15 46.3380   3
   3   4  -4 13.9747 12.1933   0
   3   4  -4-6.63874 26.8198   4
   3   4  -4-6.68305 17.6712   1
   3   4  -4-19.8120 19.4062   3
   3   4  -3 1662.98 37.0423   1
   3   4  -3 1748.09 47.1087   4
   3   4  -3 1800.65 37.0067   3
   3   4  -3 1756.51 27.6491   0
   3   4  -2 5336.42 57.7214   3
   3   4  -2 5311.53 57.7750   1
   3   4  -2 5465.96 47.0308   0
   3   4  -1 25156.6 114.163   1
   3   4  -1 25178.4 100.311   0
   3   4  -1 24864.3 117.086   3
   3   4   0 4300.85 45.9020   1
  -3  -4   0 4151.51 29.2408   2
   3   4   0 4364.90 44.9560   0
   3   4   0 4343.32 50.2408   3
  -3  -4  -1 7292.83 44.8524   2
   3   4   1 7313.27 59.4795   0
   3   4   1 7475.25 63.2528   3
   3   4   1 7522.49 58.9823   1
   3   4   2 55.7407 19.7862   0
   3   4   2 28.5425 15.8812   1
  -3  -4  -2 27.0243 11.8687   2
   3   4   2 53.6496 17.7992   3
  -3  -4  -3 90658.8 192.424   2
   3   4   3 90798.3 211.352   0
   3   4   3 90969.6 204.001   3
   3   4   3 90406.9 211.085   1
  -3  -4  -4 1409.89 30.5509   2
   3   4   4 1417.32 33.6061   0
   3   4   4 1420.35 28.7276   3
  -3  -4  -5 83.1288 18.5216   2
   3   4   5 111.476 19.1361   0
   3   4   5 76.2662 13.7363   3
  -3  -4  -6 12179.9 91.2026   2
   3   4   6 12075.8 83.6070   0
   3   4   6 12196.6 67.5258   3
  -3  -4  -7 29320.7 149.583   2
   3   4   7 29480.8 132.079   0
   3   4   8 8957.97 75.4065   0
  -3  -4  -8 9200.83 92.0700   2
  -3  -4  -9 2808.17 59.8868   2
   3   4   9 2628.83 46.9247   0
  -3  -4 -10 1419.87 51.3955   2
   3   4  10 1131.98 36.3031   0
  -3  -4 -11 5138.40 86.7263   2
  -3  -4 -12 3149.51 76.4493   2
  -3  -4 -13 2043.36 70.2311   2
  -3  -4 -14 3195.94 84.9231   2
  -3  -4 -15 397.246 55.8580   2
  -3  -4 -16 212.465 57.2198   2
   3   5 -13 145.777 40.0701   4
   3   5 -12-21.6789 45.6738   1
   3   5 -12 289.511 42.6633   4
   3   5 -11 448.589 55.1243   1
   3   5 -11 592.901 48.9793   4
   3   5 -10 1336.39 66.0368   1
   3   5 -10 1485.64 60.4276   4
   3   5  -9 31.3618 33.2143   4
   3   5  -9-95.1808 42.0980   1
   3   5  -8 1036.13 56.0167   1
   3   5  -8 836.488 31.2625   3
   3   5  -7 2069.07 43.6622   3
   3   5  -7 1757.51 64.4834   1
   3   5  -7 1940.02 63.1529   4
   3   5  -6 1971.76 62.1986   1
   3   5  -6 2198.28 63.1708   4
   3   5  -6 2200.07 43.5882   3
   3   5  -5 33.6286 25.5090   1
   3   5  -5 58.8491 22.1673   3
   3   5  -4 915.131 36.0593   1
   3   5  -4 906.593 23.0762   0
   3   5  -4 886.601 41.6203   4
   3   5  -4 892.359 31.9364   3
   3   5  -3 164.670 20.6609   1
   3   5  -3 131.145 16.3069   0
   3   5  -3 128.162 28.1945   4
   3   5  -2 5223.95 46.8901   0
   3   5  -2 5260.00 64.5062   1
   3   5  -2 5362.10 58.2431   3
   3   5  -1 2378.21 43.2542   1
   3   5  -1 2339.28 41.0163   3
   3   5  -1 2463.04 35.4464   0
   3   5   0 3038.52 44.9016   3
   3   5   0 3195.34 41.0008   0
   3   5   0 3206.71 47.9443   1
   3   5   1 3334.78 45.2350   3
   3   5   1 3365.28 42.1710   0
   3   5   1 3279.54 48.9283   1
  -3  -5  -2 2928.23 32.0212   2
   3   5   2 2972.12 42.0065   0
   3   5   2 3015.83 42.9315   3
   3   5   2 2975.36 47.4657   1
  -3  -5  -3 9059.78 61.5046   2
   3   5   3 8976.54 79.3094   1
   3   5   3 9036.42 70.4149   0
   3   5   3 9389.09 69.4216   3
  -3  -5  -4 20199.5 100.017   2
   3   5   4 20559.3 105.271   0
   3   5   4 19350.7 117.854   1
   3   5   4 20090.8 95.8167   3
  -3  -5  -5 1538.36 33.9774   2
   3   5   5 1486.02 34.8420   0
   3   5   5 1499.41 29.3431   3
  -3  -5  -6 4372.94 57.8474   2
   3   5   6 4334.41 53.5141   0
   3   5   6 4455.57 45.5484   3
  -3  -5  -7 217.822 28.6961   2
   3   5   7 226.886 27.4235   0
  -3  -5  -8 17670.8 125.333   2
   3   5   8 17362.7 105.126   0
  -3  -5  -9 8830.94 98.2067   2
   3   5   9 8737.95 77.6558   0
  -3  -5 -10 1418.80 52.0256   2
   3   5  10 1396.00 37.6412   0
  -3  -5 -11 1005.10 50.6110   2
  -3  -5 -12 392.761 43.2415   2
  -3  -5 -13 740.269 53.6066   2
  -3  -5 -14 723.937 58.4784   2
  -3  -5 -15 1287.72 64.7311   2
  -3  -5 -16 1375.44 75.1095   2
   3   6 -12 41.2585 41.6257   1
   3   6 -12 72.7296 32.7449   4
   3   6 -11 822.237 63.8114   1
   3   6 -11 844.841 56.1544   4
   3   6 -10-29.4366 33.8721   4
   3   6 -10-14.7709 38.8748   1
   3   6  -9 34.2452 34.3751   4
   3   6  -9 19.8585 41.0014   1
   3   6  -8 1290.53 61.7536   1
   3   6  -8 1185.33 53.5494   4
   3   6  -7 2304.90 70.2039   1
   3   6  -7 2428.22 68.3772   4
   3   6  -7 2414.99 48.9625   3
   3   6  -6 8978.67 112.566   1
   3   6  -6 8980.23 83.7504   3
   3   6  -6 9369.49 117.589   4
   3   6  -5 1607.51 51.7515   1
   3   6  -5 1562.16 54.8428   4
   3   6  -5 1594.41 41.9023   3
   3   6  -4 2572.96 58.6778   1
   3   6  -4 2588.40 48.1971   3
   3   6  -4 2408.81 34.7833   0
   3   6  -4 2424.02 61.6401   4
   3   6  -3 4103.28 68.4161   1
   3   6  -3 4053.70 44.6269   0
   3   6  -3 4078.00 56.4338   3
   3   6  -2 685.382 32.6707   1
   3   6  -2 691.910 23.9286   0
   3   6  -2 712.355 30.7441   3
   3   6  -1 88.0377 23.1649   1
   3   6  -1 142.667 18.3251   0
   3   6  -1 103.821 23.0366   3
   3   6   0 1271.68 29.5205   0
   3   6   0 1196.02 35.2664   3
   3   6   0 1358.75 40.0098   1
   3   6   1 6086.72 57.1296   0
   3   6   1 6508.36 64.5542   3
   3   6   1 6480.68 75.9330   1
   3   6   2 211.661 22.8836   3
   3   6   2 180.846 27.2513   1
   3   6   2 217.373 21.7343   0
   3   6   3 17266.2 122.000   1
   3   6   3 17061.9 96.4163   0
  -3  -6  -4 929.708 26.6053   2
   3   6   4 917.626 38.3889   1
   3   6   4 1038.44 30.1730   3
   3   6   4 1055.84 32.0029   0
  -3  -6  -5 2993.29 44.8154   2
   3   6   5 2808.22 55.3203   1
   3   6   5 3182.96 43.6831   3
   3   6   5 3167.78 48.0213   0
  -3  -6  -6 1304.96 36.0761   2
   3   6   6 1301.79 30.5541   3
   3   6   6 1216.10 35.8579   0
  -3  -6  -7 19044.3 122.704   2
   3   6   7 19876.2 97.0169   3
   3   6   7 19401.2 112.730   0
  -3  -6  -8 14071.5 113.469   2
   3   6   8 14433.8 99.0072   0
  -3  -6  -9 30825.3 174.367   2
   3   6   9 31359.3 142.708   0
  -3  -6 -10 3014.91 66.3315   2
   3   6  10 3177.16 50.6635   0
  -3  -6 -11 2951.50 67.5440   2
   3   6  11 3132.04 49.7715   0
  -3  -6 -12 143.703 37.5764   2
  -3  -6 -13-27.5320 38.8110   2
  -3  -6 -14 1735.66 70.4623   2
  -3  -6 -15 1131.20 67.0945   2
   3   7 -11 141.885 33.3597   4
   3   7 -11 284.395 56.5532   1
   3   7 -10 361.307 45.5279   4
   3   7 -10 357.023 58.8192   1
   3   7  -9 23.9548 32.6851   4
   3   7  -9 56.0344 38.3756   1
   3   7  -8 767.233 58.6775   1
   3   7  -8 543.832 44.9701   4
   3   7  -7 13.9415 35.1883   1
   3   7  -7 36.2740 32.8918   4
   3   7  -7 10.9693 26.1569   3
   3   7  -6 146.111 34.9793   4
   3   7  -6 105.861 34.4961   1
   3   7  -6 109.837 27.2358   3
   3   7  -5 190.867 33.6726   4
   3   7  -5 125.173 35.9177   1
   3   7  -5 191.505 27.0331   3
   3   7  -4-0.88700 31.0868   1
   3   7  -4 38.8308 25.9858   3
   3   7  -3 29.7546 19.4071   0
   3   7  -3 0.74178 28.3020   1
   3   7  -3 54.7252 26.6646   3
   3   7  -2 479.211 35.2055   1
   3   7  -2 538.697 32.1407   3
   3   7  -2 529.380 25.2085   0
   3   7  -1 24.8125 19.3072   0
   3   7  -1 27.7702 26.5344   1
   3   7  -1 30.2569 24.5879   3
   3   7   0 1458.00 34.4320   0
   3   7   0 1444.14 38.7759   3
   3   7   0 1471.81 46.9516   1
   3   7   1 4036.38 50.7965   0
   3   7   1 4147.59 56.6382   3
   3   7   1 4186.85 70.3367   1
   3   7   2 11492.4 81.7784   0
   3   7   2 11590.6 88.0464   3
   3   7   2 11793.9 112.774   1
   3   7   3 3846.73 51.9191   0
   3   7   3 4037.27 54.3076   3
   3   7   3 3966.08 68.4771   1
   3   7   4 395.115 26.4928   3
   3   7   4 388.034 28.2228   0
   3   7   4 359.255 34.0637   1
   3   7   5 8330.45 75.2823   0
   3   7   5 8380.44 101.126   1
   3   7   5 8735.61 74.4002   3
   3   7   6 29344.3 136.432   0
  -3  -7  -6 28929.4 144.072   2
   3   7   6 28004.6 179.944   1
   3   7   6 29147.6 128.712   3
   3   7   7 9588.74 82.6012   0
  -3  -7  -7 9159.60 91.1846   2
   3   7   7 9730.44 76.6921   3
   3   7   8 5159.31 64.9572   0
  -3  -7  -8 5155.53 74.8151   2
   3   7   9 1641.81 42.7041   0
  -3  -7  -9 1440.43 50.3829   2
   3   7  10 2728.07 49.1693   0
  -3  -7 -10 2543.94 62.3895   2
   3   7  11 2937.71 50.9042   0
  -3  -7 -11 2862.05 69.1721   2
  -3  -7 -12 3082.65 74.3173   2
  -3  -7 -13 440.184 48.4475   2
  -3  -7 -14 241.869 50.2357   2
  -3  -7 -15 547.138 57.8086   2
   3   8 -10 232.360 50.5752   1
   3   8  -9 81.9236 44.5078   1
   3   8  -8 156.442 42.7165   1
   3   8  -7 296.444 31.5350   3
   3   8  -7 300.990 44.0642   1
   3   8  -6 1093.38 55.4722   1
   3   8  -6 1098.77 40.9009   3
   3   8  -5 75.0148 36.7008   1
   3   8  -5 53.4738 27.6963   3
   3   8  -4 152.954 35.7066   1
   3   8  -4 200.237 29.7525   3
   3   8  -3 3521.46 77.0156   1
   3   8  -3 3570.84 60.9912   3
   3   8  -3 3642.53 51.1905   0
   3   8  -2 10553.8 121.736   1
   3   8  -2 10846.8 96.3971   3
   3   8  -2 10559.9 80.9473   0
   3   8  -1 196.925 25.6732   0
   3   8  -1 162.554 36.1638   1
   3   8  -1 200.342 31.5101   3
   3   8   0 1089.39 38.9632   3
   3   8   0 1005.35 32.4500   0
   3   8   0 1070.42 46.9500   1
   3   8   1 6673.17 66.6979   0
   3   8   1 6800.25 75.0638   3
   3   8   1 6712.91 95.5491   1
   3   8   2 2512.07 45.7137   0
   3   8   2 2550.58 50.0186   3
   3   8   2 2524.26 63.9280   1
   3   8   3 2324.95 62.4063   1
   3   8   3 2398.44 45.4991   0
   3   8   3 2455.13 48.4708   3
   3   8   4 448.991 30.5904   0
   3   8   4 416.392 40.9565   1
   3   8   4 477.522 32.5112   3
   3   8   5 8868.12 80.8007   0
   3   8   5 8538.22 109.939   1
   3   8   5 8936.31 82.3558   3
   3   8   6 8515.01 80.4002   0
   3   8   6 8601.06 113.089   1
   3   8   6 8641.62 80.0357   3
   3   8   7 15737.3 106.770   0
   3   8   7 14880.3 147.879   1
   3   8   8 770.377 36.4833   0
  -3  -8  -8 733.643 43.3788   2
  -3  -8  -9 4857.86 79.8969   2
   3   8   9 4652.79 64.1694   0
  -3  -8 -10-6.68828 34.2080   2
   3   8  10-16.0563 25.7465   0
  -3  -8 -11-2.51617 37.4320   2
   3   8  11 33.4985 26.0990   0
  -3  -8 -12 474.880 48.7003   2
  -3  -8 -13 1840.03 69.5820   2
  -3  -8 -14 543.143 55.3871   2
  -3  -8 -15 466.914 56.0002   2
   3   9  -9 70.4910 52.1775   1
   3   9  -8 185.794 40.3848   1
   3   9  -7 339.644 47.7186   1
   3   9  -6 911.073 58.3691   1
   3   9  -6 838.721 39.8714   3
   3   9  -5 1238.13 60.5524   1
   3   9  -5 1273.26 46.1627   3
   3   9  -4 123.602 30.3134   3
   3   9  -4 70.8297 37.8360   1
   3   9  -3 334.468 41.8259   1
   3   9  -3 478.475 36.5087   3
   3   9  -2 779.710 33.9201   0
   3   9  -2 695.181 48.4457   1
   3   9  -2 724.171 39.2418   3
   3   9  -1 96.2165 31.5740   3
   3   9  -1 125.980 38.1265   1
   3   9  -1 65.0978 28.3208   0
   3   9   0 115.095 32.1328   3
   3   9   0 123.381 27.6634   0
   3   9   0 175.610 39.6236   1
   3   9   1 1649.61 41.6752   0
   3   9   1 1815.81 49.5170   3
   3   9   1 1683.04 60.7346   1
   3   9   2 4883.86 63.0287   0
   3   9   2 4953.33 69.7534   3
   3   9   2 4935.18 91.3673   1
   3   9   3 1629.50 41.9550   0
   3   9   3 1608.35 46.1260   3
   3   9   3 1661.94 60.2722   1
   3   9   4-8.90268 32.5657   3
   3   9   4 24.6986 26.5909   0
   3   9   4 31.7283 37.3210   1
   3   9   5 1046.28 39.7313   0
   3   9   5 922.006 52.9894   1
   3   9   6 5364.17 69.9256   0
   3   9   6 4959.10 95.9364   1
   3   9   7 2963.05 55.8581   0
   3   9   7 2773.61 78.3417   1
   3   9   8 302.485 33.6790   0
   3   9   8 285.049 43.6954   1
   3   9   9 2126.89 51.5009   0
  -3  -9 -10 3757.95 75.8075   2
   3   9  10 3766.22 62.0583   0
  -3  -9 -11 314.596 41.7120   2
   3   9  11 354.780 35.2827   0
  -3  -9 -12 875.841 52.4208   2
  -3  -9 -13 1117.03 60.1635   2
  -3  -9 -14 1.50527 42.8302   2
   3  10  -7 32.4263 47.0434   1
   3  10  -6 18.7121 42.4672   1
   3  10  -5 12.1198 39.5762   1
   3  10  -4 24.5479 41.8177   1
   3  10  -3 346.071 46.8212   1
   3  10  -2 2781.04 79.7435   1
   3  10  -1 135.778 29.7971   0
   3  10  -1 184.417 44.6671   1
   3  10   0 768.971 39.7367   0
   3  10   0 796.051 54.9482   1
   3  10   1 1508.83 47.4477   0
   3  10   1 1397.83 62.6014   1
   3  10   2 350.348 45.6022   1
   3  10   2 411.646 34.2609   0
   3  10   3-13.4686 29.4435   0
   3  10   3-29.7296 40.6544   1
   3  10   4-7.07359 40.9382   1
   3  10   4-13.8470 28.2656   0
   3  10   5 1580.46 45.6589   0
   3  10   5 1566.01 66.8753   1
   3  10   6 3079.37 59.2681   0
   3  10   6 3021.48 84.9701   1
   3  10   7 543.072 35.8042   0
   3  10   7 454.710 50.6289   1
   3  10   8 49.4691 43.4914   1
   3  10   8-10.4013 29.6546   0
   3  10   9 1699.23 48.3082   0
   3  10   9 1855.93 74.9008   1
   3  10  10 159.506 46.2156   1
   3  10  10 125.485 35.7385   0
   3  10  11 11.1978 28.3355   0
   3  10  12 263.433 30.9960   0
  -3 -10 -13 946.639 57.8956   2
  -3 -10 -14 11.9621 45.2810   2
   3  11  -5 190.498 49.0249   1
   3  11  -4 713.069 56.3835   1
   3  11  -3 1010.27 60.2763   1
   3  11  -2 1356.96 67.9776   1
   3  11  -1 285.525 50.7197   1
   3  11   0 960.629 59.3726   1
   3  11   1 1691.57 49.1767   0
   3  11   1 1682.85 74.2966   1
   3  11   2 1294.85 47.9904   0
   3  11   2 1205.54 64.0357   1
   3  11   3-0.96117 31.0122   0
   3  11   3-57.7879 48.5078   1
   3  11   4 2698.24 84.7705   1
   3  11   4 2736.40 58.9505   0
   3  11   5 2244.82 80.0744   1
   3  11   5 2500.23 58.7469   0
   3  11   6 831.798 43.1769   0
   3  11   6 737.304 60.1693   1
   3  11   7 103.052 35.0970   0
   3  11   7 61.3303 46.6856   1
   3  11   8 89.1302 36.1800   0
   3  11   8 92.7510 44.2610   1
   3  11   9 2352.97 88.6546   1
   3  11   9 2190.84 59.5459   0
   3  11  10 2166.62 87.6519   1
   3  11  10 2138.65 59.0139   0
   3  11  11 13.4366 55.4178   1
   3  11  11 156.993 38.8880   0
   3  11  12 244.548 47.6897   1
   3  11  12 663.120 41.2932   0
   3  12  -3 808.339 63.0166   1
   3  12  -2 760.145 62.4627   1
   3  12  -1 17.8453 50.6004   1
   3  12   0 702.903 63.4841   1
   3  12   1 1534.02 75.1616   1
   3  12   2 494.255 60.4266   1
   3  12   3-33.3145 50.2128   1
   3  12   4 5.36962 48.8660   1
   3  12   4 73.0168 33.5558   0
   3  12   5 20.5812 33.4303   0
   3  12   5-15.6399 48.3939   1
   3  12   6 258.928 40.9305   0
   3  12   6 355.489 57.3411   1
   3  12   7 51.6046 33.1571   0
   3  12   7-5.24100 49.6714   1
   3  12   8 517.157 43.1990   0
   3  12   8 385.172 62.2383   1
   3  12   9 1881.71 58.6999   0
   3  12   9 1327.25 74.2779   1
   3  12  10 2410.48 62.0928   0
   3  12  10 1355.47 73.6659   1
   3  12  11 158.785 55.9382   1
   3  13   0 181.400 48.4389   1
   3  13   1 643.831 63.1920   1
   3  13   2 280.234 57.2831   1
   3  13   3-24.7281 47.0938   1
   3  13   4 902.270 68.5540   1
   3  13   5 898.792 71.5055   1
   3  13   6 71.8815 42.0497   1
   3  13   7 60.3497 48.6405   1
   3  13   8 527.424 63.8168   1
   4  -9  -8 44.4620 38.6241   3
   4  -9  -7 1262.72 70.5265   3
   4  -9  -6 702.318 58.3490   3
   4  -9  -5-18.1921 45.0991   3
   4  -9  -4 3.75409 37.1772   3
   4  -9  -3 93.7817 42.9035   3
   4  -9  -2 352.739 43.5708   3
   4  -9  -1 249.939 46.4814   3
   4  -9   0 42.6396 40.3734   3
   4  -9   1 58.7013 45.4857   3
   4  -9   2 325.013 50.0667   3
   4  -8 -10 822.388 51.4571   3
   4  -8  -9 185.793 42.7721   3
   4  -8  -8 411.041 49.0296   3
   4  -8  -7 1177.69 60.8463   3
   4  -8  -6 1284.37 61.0766   3
   4  -8  -5 615.822 55.1953   3
   4  -8  -4 259.119 44.2958   3
   4  -8  -3 67.5803 42.9865   3
   4  -8  -2 1005.84 57.3239   3
   4  -8  -1 10.6136 38.2206   3
   4  -8   0 4.36434 39.6590   3
   4  -8   1 58.1235 34.9642   3
   4  -8   2 818.153 53.6301   3
   4  -8   3 468.405 45.5686   3
   4  -8   4-66.1980 40.0662   3
   4  -7 -11 97.4514 60.9342   2
   4  -7 -10 64.7073 49.6606   2
   4  -7 -10 26.6703 34.8817   3
  -4   7   9-13.5974 51.9801   1
   4  -7  -9 51.8094 42.7350   3
   4  -7  -8 93.4058 36.7136   3
   4  -7  -7 1276.08 58.3228   3
   4  -7  -6 1285.54 58.3039   3
   4  -7  -5 14.3004 37.1220   3
   4  -7  -4 16.8054 38.6828   3
   4  -7  -3-54.2357 35.2583   3
   4  -7  -2 312.489 42.4700   3
   4  -7  -1 2599.52 70.7028   3
   4  -7   0 831.261 50.1675   3
   4  -7   1 265.658 39.0951   3
   4  -7   2 400.609 44.7073   3
   4  -7   3 305.104 42.5423   3
   4  -7   4-5.27879 32.4243   3
  -4   7  -5 1.44218 37.3995   2
  -4   7  -6-68.7302 30.2842   2
  -4   7  -7 570.268 40.8587   2
   4  -6 -12 363.055 64.0563   2
   4  -6 -11 1526.14 74.9886   2
   4  -6 -10 665.130 65.1927   2
   4  -6  -9 430.917 47.7408   3
   4  -6  -9 399.255 59.4187   2
   4  -6  -8 17.0878 35.3517   3
  -4   6   7 139.444 37.4244   1
   4  -6  -7 152.823 40.2522   3
   4  -6  -6 407.118 43.0051   3
   4  -6  -5 310.153 40.3170   3
   4  -6  -4 1822.48 62.9839   3
   4  -6  -3 719.825 49.0245   3
   4  -6  -2 4206.14 84.3942   3
   4  -6  -1 193.125 41.2068   3
   4  -6   0 508.280 42.8491   3
   4  -6   1 123.569 37.6865   3
   4  -6   2 243.493 36.4654   3
   4  -6   3-25.4269 31.6778   3
   4  -6   4 2.62860 33.3795   3
  -4   6  -5 287.252 40.8640   2
  -4   6  -6 358.198 42.3373   2
  -4   6  -7 15.8583 35.2995   2
  -4   6  -8 274.658 35.1920   2
  -4   6  -9 5.45243 31.0841   2
   4  -5 -13 64.8013 52.6566   2
   4  -5 -12 899.578 67.4539   2
   4  -5 -11 523.358 59.8727   2
   4  -5 -10-43.5152 47.8791   2
   4  -5  -9 46.4394 48.2211   2
   4  -5  -9 109.042 37.3705   3
   4  -5  -8 241.658 53.0869   2
   4  -5  -8 305.382 40.7322   3
   4  -5  -7 610.115 43.9470   3
  -4   5   6 39.7303 34.2811   1
   4  -5  -6 80.2531 34.7478   3
   4  -5  -5 1657.79 56.5213   3
   4  -5  -4 2316.03 64.1964   3
   4  -5  -3 2536.83 65.1368   3
   4  -5  -2 84.1232 36.5447   3
   4  -5  -1 3322.76 71.6807   3
   4  -5   0 626.693 42.3924   3
   4  -5   1 3206.91 71.5092   3
   4  -5   2 4336.05 80.5717   3
   4  -5   3 8310.43 104.338   3
   4  -5   4 2910.45 66.6971   3
  -4   5  -5 14.4250 35.5509   2
   4  -5   5 7.95884 28.5277   3
  -4   5  -6-12.7282 33.0943   2
  -4   5  -7 91.1084 34.7245   2
  -4   5  -8-0.19087 33.4271   2
  -4   5  -9-12.4817 37.9492   2
  -4   5 -10 443.279 43.7408   2
  -4   5 -11 680.260 44.7087   2
   4  -4 -14 88.0233 50.3450   2
   4  -4 -13 59.9952 50.8300   2
   4  -4 -12 1199.80 73.3512   2
   4  -4 -11 5017.63 110.076   2
   4  -4 -10 57.3634 48.5034   2
   4  -4  -9 1608.27 53.8593   3
   4  -4  -9 1570.72 68.9828   2
   4  -4  -8 3632.38 91.7440   2
   4  -4  -8 3664.38 73.9125   3
   4  -4  -7 3319.79 86.3567   2
   4  -4  -7 3656.70 72.4449   3
   4  -4  -6 2073.47 59.9965   3
   4  -4  -5 70.4189 33.4259   3
   4  -4  -4 6509.44 90.9445   3
   4  -4  -3 2711.40 63.3417   3
   4  -4  -2 3282.82 67.1943   3
   4  -4  -1 5655.02 83.9890   3
   4  -4   0 1455.27 50.8867   3
   4  -4   1 238.401 35.1526   3
   4  -4   2 4908.94 78.2738   3
   4  -4   3 322.827 34.2100   3
   4  -4   4 2661.40 60.6847   3
  -4   4  -5 1078.11 52.3770   2
   4  -4   5 1151.84 43.4129   3
  -4   4  -6 107.597 36.4434   2
  -4   4  -7 72.8262 34.3588   2
  -4   4  -8 128.363 36.3938   2
  -4   4  -9 258.454 37.5849   2
  -4   4 -10 2138.72 65.8123   2
  -4   4 -11 196.738 36.8829   2
  -4   4 -12 170.413 35.3694   2
   4  -3 -14 155.348 44.8174   4
   4  -3 -14 166.264 47.8036   2
   4  -3 -13 1905.28 82.3225   2
   4  -3 -13 1925.20 69.8339   4
   4  -3 -12 543.817 61.7380   2
   4  -3 -12 632.779 49.8100   4
   4  -3 -11 312.540 44.5029   4
   4  -3 -11 324.495 53.0927   2
   4  -3 -10 2803.65 83.6742   2
   4  -3 -10 2725.72 68.9548   4
   4  -3  -9 837.505 56.8090   2
   4  -3  -9 757.246 41.9585   4
   4  -3  -8 289.128 29.4435   4
   4  -3  -8 352.491 48.1537   2
   4  -3  -7 95.1704 42.2110   2
   4  -3  -7 140.309 34.1352   3
   4  -3  -6 685.691 40.3118   3
   4  -3  -5 223.740 31.3020   3
   4  -3  -4 256.522 32.7143   3
   4  -3  -3 3373.35 65.4192   3
   4  -3  -2 755.318 38.7993   3
   4  -3  -1 1408.80 48.1876   3
   4  -3   0 6602.13 84.4826   3
   4  -3   1 7118.35 87.6741   3
   4  -3   2 1189.70 43.9771   3
   4  -3   3 8362.41 92.9729   3
   4  -3   4 13321.9 114.270   3
  -4   3  -5 5622.95 90.4492   2
   4  -3   5 5719.78 77.0638   3
  -4   3  -6 9310.16 112.575   2
  -4   3  -7 3849.94 77.7789   2
  -4   3  -8 1062.02 49.3417   2
  -4   3  -9 65.9946 31.8517   2
  -4   3 -10 27.6074 33.0389   2
  -4   3 -11 1515.79 59.5502   2
  -4   3 -12-9.22836 40.6546   2
   4  -2 -14 94.0314 44.8387   4
   4  -2 -13 121.149 46.1307   4
   4  -2 -13 88.1628 39.3628   2
   4  -2 -12 144.780 42.2537   4
   4  -2 -12 102.740 44.0940   2
   4  -2 -11 1543.50 65.3988   2
   4  -2 -11 1639.73 61.8352   4
   4  -2 -10 122.542 37.2482   4
   4  -2 -10 109.487 43.0315   2
   4  -2  -9 2295.60 69.7631   2
   4  -2  -9 2227.90 61.9264   4
   4  -2  -9 2208.05 57.1653   3
   4  -2  -8 3300.05 76.8936   2
   4  -2  -8 3588.38 73.5890   4
   4  -2  -8 3579.93 68.0458   3
   4  -2  -7 9613.39 120.365   2
   4  -2  -7 9837.45 109.882   4
   4  -2  -7 10304.4 106.773   3
   4  -2  -6 324.625 33.6430   4
   4  -2  -6 355.589 42.1410   2
   4  -2  -6 388.332 36.3162   3
   4  -2  -5 393.854 32.5125   3
   4  -2  -5 328.931 28.1696   4
   4  -2  -4 881.840 38.2341   3
   4  -2  -3 22.0388 24.3388   3
   4  -2  -2 827.064 36.3599   3
   4  -2  -1 2439.47 52.8076   3
   4  -2   0 16.7267 24.0736   3
   4  -2   1 330.444 28.8882   3
   4  -2   2 5763.36 74.1270   3
   4  -2   3 13469.2 108.974   3
   4  -2   4 11434.0 100.198   3
  -4   2  -5 390.909 43.1884   2
   4  -2   5 412.823 31.3094   3
  -4   2  -6 6362.70 92.0659   2
  -4   2  -7 407.770 42.2807   2
  -4   2  -8 430.858 40.6586   2
  -4   2  -9 43.1837 33.3227   2
  -4   2 -10 1776.71 59.4200   2
  -4   2 -11 193.573 44.8967   2
  -4   2 -12 57.8293 39.1495   2
  -4   2 -13 28.8218 47.3977   2
   4  -1 -14 133.179 44.4806   4
   4  -1 -13 1388.07 67.6339   4
   4  -1 -12 2806.17 81.1754   4
   4  -1 -11 284.424 41.5567   4
   4  -1 -11 160.136 37.9667   2
   4  -1 -10 570.684 47.1446   2
   4  -1 -10 511.110 44.3707   4
   4  -1  -9-0.60311 31.0981   4
   4  -1  -9 22.0729 36.1501   2
   4  -1  -9 2.68654 25.6650   3
   4  -1  -8 883.405 46.3081   4
   4  -1  -8 932.359 41.7688   3
   4  -1  -8 865.136 47.3943   2
   4  -1  -7 36.9973 31.0848   4
   4  -1  -7 13.5292 33.8603   2
   4  -1  -7 76.4731 29.4193   3
   4  -1  -6 9913.51 108.032   4
   4  -1  -6 9579.46 109.340   2
   4  -1  -6 9931.21 102.603   3
   4  -1  -5 2712.85 58.1844   4
   4  -1  -5 2811.94 57.1719   3
   4  -1  -4 2704.10 55.8227   3
   4  -1  -4 2548.82 54.2166   4
   4  -1  -3 747.628 35.3363   3
   4  -1  -2 80.3077 25.0766   3
   4  -1  -1 9155.64 90.2555   3
   4  -1   0 4000.24 61.3558   3
   4  -1   1 5998.74 73.0293   3
   4  -1   2 4048.49 61.1183   3
   4  -1   3 7520.45 80.1835   3
  -4   1  -4 2361.03 59.9488   2
   4  -1   4 2592.70 50.9072   3
  -4   1  -5 24585.6 160.606   2
   4  -1   5 24284.3 136.988   3
  -4   1  -6 23901.7 161.633   2
  -4   1  -7 1849.40 57.3899   2
  -4   1  -8 1595.68 55.3065   2
  -4   1  -9 6441.93 94.7831   2
  -4   1 -10 3821.87 78.3311   2
  -4   1 -11 3635.94 82.1413   2
  -4   1 -12 656.661 52.4885   2
  -4   1 -13 853.540 52.9433   2
  -4   1 -14 59.7479 52.1495   2
   4   0 -14 236.966 45.1481   4
   4   0 -13 1664.98 74.9264   4
   4   0 -12 597.892 54.2176   4
   4   0 -11 764.984 53.9535   4
   4   0 -10 114.658 37.8083   4
   4   0  -9 13.2457 35.4146   4
   4   0  -9 16.4214 27.5879   2
   4   0  -9 2.84199 22.4176   3
   4   0  -8 209.714 37.3407   4
   4   0  -8 173.165 33.4655   2
   4   0  -8 160.748 31.9888   3
   4   0  -7 5312.34 87.8524   4
   4   0  -7 5047.11 78.6546   2
   4   0  -7 5642.47 78.1717   3
   4   0  -6 734.538 41.8101   4
   4   0  -6 851.820 40.4106   2
   4   0  -6 795.825 39.5814   3
   4   0  -5 5988.57 84.3076   4
   4   0  -5 5990.54 77.3778   3
   4   0  -4 3064.17 61.2071   4
   4   0  -4 2977.50 56.3153   3
   4   0  -3 4938.91 69.0140   3
   4   0  -2 1114.05 37.1435   3
   4   0  -1 1908.90 44.4984   3
   4   0   0 62.1620 21.7529   3
   4   0   1 1855.96 42.7371   3
   4   0   2 600.107 29.8113   3
   4   0   3 7698.81 77.1935   3
  -4   0  -4 15011.3 119.193   2
   4   0   4 14973.0 104.265   3
  -4   0  -5 33834.8 180.504   2
   4   0   5 33260.8 152.108   3
  -4   0  -6 4151.95 70.7897   2
  -4   0  -7 8914.57 103.573   2
  -4   0  -8 154.379 34.4408   2
  -4   0  -9 534.521 42.7808   2
  -4   0 -10-27.9295 40.7269   2
  -4   0 -11 1046.39 56.4694   2
  -4   0 -12 42.3457 40.6645   2
  -4   0 -13 30.2513 38.4420   2
  -4   0 -14 1546.80 68.9141   2
   4   1 -14 181.311 52.1878   1
   4   1 -14 179.277 45.1869   4
   4   1 -13 55.1980 46.2621   1
   4   1 -13 143.816 49.5559   4
   4   1 -12 1496.77 71.0565   4
   4   1 -12 1251.93 61.6297   1
   4   1 -11 24.7950 31.2238   1
   4   1 -11 79.2379 41.8069   4
   4   1 -10-40.4428 30.1066   1
   4   1 -10 57.5232 37.6075   4
   4   1  -9-18.1195 25.1127   1
   4   1  -9 6.32905 33.1681   4
   4   1  -9 0.38569 19.2978   3
   4   1  -8 9507.07 120.518   4
   4   1  -8 9292.99 94.0511   3
   4   1  -7 12.1260 19.9282   1
   4   1  -7-27.2810 34.3073   4
   4   1  -7 9.60461 26.4774   3
   4   1  -6 5521.65 89.3855   4
   4   1  -6 5669.23 74.5107   2
   4   1  -6 5645.30 75.4388   3
   4   1  -5 3634.40 71.1820   4
   4   1  -5 3705.42 64.2048   3
   4   1  -4 2302.55 57.2735   4
   4   1  -4 2347.79 52.5577   3
   4   1  -3 21.4516 25.6154   3
   4   1  -2 8947.38 88.6902   3
   4   1  -1 3431.44 55.0576   3
   4   1   0 2737.47 48.7020   3
   4   1   1 712.016 29.8816   3
   4   1   2 52691.0 193.306   3
  -4  -1  -3 193.327 23.3660   2
   4   1   3 240.967 21.7749   3
  -4  -1  -4 38.3168 22.2308   2
   4   1   4 66.4286 18.4819   3
  -4  -1  -5 15316.2 119.288   2
   4   1   5 15627.4 101.761   3
  -4  -1  -6 30618.2 168.729   2
   4   1   6 30625.2 138.933   3
  -4  -1  -7 5297.34 79.3341   2
  -4  -1  -8 725.058 41.5248   2
  -4  -1  -9 3969.89 75.9195   2
  -4  -1 -10 13947.4 137.733   2
  -4  -1 -11 1567.01 60.1499   2
  -4  -1 -12 2214.33 68.9606   2
  -4  -1 -13 1127.20 61.0248   2
  -4  -1 -14 30.5563 48.2515   2
   4   2 -14-113.843 45.6684   1
   4   2 -13-53.3441 47.8610   1
   4   2 -13 146.837 47.8422   4
   4   2 -12-1.36217 39.7682   1
   4   2 -12 160.090 44.5587   4
   4   2 -11 36.2565 32.1376   1
   4   2 -11 67.1547 42.1404   4
   4   2 -10 105.859 29.0469   1
   4   2 -10 128.037 40.7005   4
   4   2  -9 162.640 29.5675   1
   4   2  -9 213.909 38.9827   4
   4   2  -8 743.363 49.2086   4
   4   2  -8 675.317 35.2546   3
   4   2  -7 2516.97 69.0171   4
   4   2  -7 2409.93 50.6697   3
   4   2  -6 1528.94 55.0103   4
   4   2  -6 1416.41 42.1670   3
   4   2  -5 69.1132 33.2651   4
   4   2  -5 57.9648 26.8459   3
   4   2  -4 4422.87 49.4818   0
   4   2  -4 4844.71 79.5246   4
   4   2  -4 4718.05 67.1627   3
   4   2  -3 7112.93 78.1740   3
   4   2  -2 351.387 28.4719   3
   4   2  -1 5077.91 66.2864   3
   4   2   0 4827.99 64.0695   3
   4   2   1 21765.3 127.290   3
  -4  -2  -2 3286.45 49.1441   2
   4   2   2 3285.35 52.7248   3
  -4  -2  -3 5243.43 62.3252   2
   4   2   3 5359.13 63.0541   3
  -4  -2  -4 49.5942 20.2226   2
   4   2   4 31.1078 18.1201   3
  -4  -2  -5 13825.4 106.045   2
   4   2   5 13510.5 92.2043   3
  -4  -2  -6 4422.20 67.7888   2
   4   2   6 4466.62 54.9310   3
  -4  -2  -7 3658.11 64.1663   2
  -4  -2  -8 2362.74 57.9014   2
  -4  -2  -9 2224.18 59.9009   2
   4   2  10 98.9563 25.7294   0
  -4  -2 -10 122.976 40.7056   2
  -4  -2 -11 2544.08 68.1831   2
  -4  -2 -12 65.3049 41.8567   2
  -4  -2 -13 93.5369 42.2899   2
  -4  -2 -14-3.63057 40.7544   2
  -4  -2 -15 253.984 53.6044   2
   4   3 -14 4.71749 53.8713   1
   4   3 -13-54.9478 41.7428   1
   4   3 -13 61.6994 40.4035   4
   4   3 -12 638.081 54.9354   1
   4   3 -12 888.209 61.9843   4
   4   3 -11 291.546 39.1456   1
   4   3 -11 377.256 46.6685   4
   4   3 -10 260.661 36.5317   1
   4   3 -10 237.844 41.5892   4
   4   3  -9 86.6197 27.5221   1
   4   3  -9 97.8069 37.1973   4
   4   3  -8 80.8286 22.7555   1
   4   3  -8 79.8702 34.9641   4
   4   3  -8 58.0582 26.2464   3
   4   3  -7 2.95884 35.4593   4
   4   3  -7 0.45923 25.3324   3
   4   3  -6 1842.66 60.9840   4
   4   3  -6 1833.13 45.8567   3
   4   3  -5 151.658 36.9314   4
   4   3  -5 562.800 32.4589   3
   4   3  -4 26851.2 186.404   4
   4   3  -4 27570.7 111.490   0
   4   3  -4 26794.6 144.612   3
   4   3  -3 4262.75 49.0736   0
   4   3  -3 4266.64 60.1612   3
   4   3  -2 4672.80 51.6938   0
   4   3  -2 4544.59 63.0317   3
   4   3  -1 720.620 26.7863   0
   4   3  -1 770.858 32.4782   3
   4   3   0 27855.2 126.298   0
   4   3   0 28743.3 141.546   3
  -4  -3  -1 8762.53 69.3425   2
   4   3   1 8337.40 74.1536   0
   4   3   1 8918.93 79.7878   3
  -4  -3  -2 678.719 24.6841   2
   4   3   2 534.405 29.2603   0
   4   3   2 709.027 29.8185   3
  -4  -3  -3 1208.29 31.3396   2
   4   3   3 1117.20 34.7765   0
   4   3   3 1194.90 33.1458   3
  -4  -3  -4 16950.1 106.881   2
   4   3   4 17286.3 109.100   0
   4   3   4 17005.8 100.994   3
  -4  -3  -5 3136.26 50.4426   2
   4   3   5 3053.35 51.1873   0
   4   3   5 2907.93 44.7098   3
  -4  -3  -6 31193.3 157.422   2
   4   3   6 31304.3 151.761   0
  -4  -3  -7 6107.44 78.6051   2
   4   3   7 6055.62 71.8748   0
  -4  -3  -8 5459.80 78.6528   2
   4   3   8 5277.05 70.6178   0
  -4  -3  -9 397.728 38.6762   2
   4   3   9 339.633 29.7353   0
  -4  -3 -10 3462.30 72.6579   2
   4   3  10 3407.98 57.9458   0
  -4  -3 -11 2234.11 63.2634   2
  -4  -3 -12 615.310 47.7198   2
  -4  -3 -13 2238.67 73.4903   2
  -4  -3 -14 2424.13 74.7778   2
  -4  -3 -15 159.882 53.3252   2
   4   4 -13-7.32451 41.7839   1
   4   4 -12 312.823 39.2711   1
   4   4 -12 242.150 45.6080   4
   4   4 -11 516.183 50.1973   1
   4   4 -11 456.746 48.9536   4
   4   4 -10-8.94860 31.7764   1
   4   4 -10-41.8187 38.0971   4
   4   4  -9 481.926 41.5204   1
   4   4  -9 477.308 48.3263   4
   4   4  -8-17.8709 37.7178   4
   4   4  -8 1.53570 23.1006   3
   4   4  -7-1.91222 21.5245   1
   4   4  -7-14.4766 37.1821   4
   4   4  -7-13.1810 23.2062   3
   4   4  -6 113.132 36.9723   4
   4   4  -6 145.670 25.8490   3
   4   4  -5 1916.64 61.2482   4
   4   4  -5 1719.43 44.2440   3
   4   4  -4 5652.41 52.3763   0
   4   4  -4 5588.10 71.1484   3
   4   4  -4 5777.70 92.8301   4
   4   4  -3 21901.6 101.365   0
   4   4  -3 21287.5 130.673   3
   4   4  -2 89.1744 18.7199   0
   4   4  -2 55.7421 25.3201   3
   4   4  -1 1362.24 32.1606   0
   4   4  -1 1303.43 38.9769   3
   4   4   0 23.2408 21.6545   0
   4   4   0 424.625 30.2552   3
  -4  -4  -1 56396.4 152.444   2
   4   4   1 56070.7 185.854   0
   4   4   1 57303.7 198.387   3
  -4  -4  -2 36281.3 131.571   2
   4   4   2 35970.6 153.268   0
  -4  -4  -3 8002.84 66.2720   2
   4   4   3 7928.02 74.8703   0
   4   4   3 8309.57 73.9785   3
  -4  -4  -4 3555.40 49.2644   2
   4   4   4 3713.40 55.9763   0
   4   4   4 3751.40 50.5423   3
  -4  -4  -5 8648.23 79.4019   2
   4   4   5 9177.13 83.1246   0
   4   4   5 8747.66 71.4732   3
  -4  -4  -6 1972.46 46.4634   2
   4   4   6 2157.32 48.2611   0
   4   4   6 2063.84 37.7463   3
  -4  -4  -7 1263.84 42.2789   2
   4   4   7 1290.11 42.0853   0
  -4  -4  -8 14259.2 119.642   2
   4   4   8 14484.6 110.353   0
  -4  -4  -9 8223.01 97.5705   2
   4   4   9 8030.13 82.3359   0
   4   4  10 33.8362 25.3873   0
  -4  -4 -10-9.57355 32.9271   2
  -4  -4 -11 1468.31 56.4440   2
   4   4  11 1554.71 43.9120   0
  -4  -4 -12 778.697 50.5418   2
  -4  -4 -13 2698.95 74.4389   2
  -4  -4 -14 578.154 58.5763   2
  -4  -4 -15 1816.31 77.1467   2
   4   5 -12 376.668 40.3699   1
   4   5 -12 548.672 50.7755   4
   4   5 -11 814.554 62.1920   1
   4   5 -11 974.658 67.0307   4
   4   5 -10 1655.64 67.6912   1
   4   5 -10 1630.73 72.5996   4
   4   5  -9 2645.75 75.0588   1
   4   5  -9 3136.36 88.6689   4
   4   5  -8 838.882 53.8637   4
   4   5  -8 791.659 34.1385   3
   4   5  -7 742.633 50.3877   4
   4   5  -7 847.153 34.9000   3
   4   5  -6-33.7186 38.1280   4
   4   5  -6 6.66445 23.7884   3
   4   5  -5 48.0134 37.6158   4
   4   5  -5 76.5912 24.3094   3
   4   5  -4 6949.18 78.0282   3
   4   5  -3 18447.8 121.066   3
   4   5  -3 18635.9 96.3612   0
   4   5  -2 59.0829 27.2970   3
   4   5  -2 85.1802 21.5773   0
   4   5  -1 113.622 21.1594   0
   4   5  -1 91.9561 26.3428   3
   4   5   0 28317.0 125.849   0
   4   5   0 29030.6 143.512   3
   4   5   1 1663.54 38.5193   0
   4   5   1 1554.22 40.5676   3
   4   5   2 228.886 26.4099   0
   4   5   2 440.248 27.7373   3
  -4  -5  -3 651.609 23.1429   2
   4   5   3 611.131 29.5963   0
   4   5   3 619.953 27.3972   3
  -4  -5  -4 13844.5 89.1350   2
   4   5   4 14560.7 99.7433   0
   4   5   4 14298.2 93.2100   3
  -4  -5  -5 261.391 25.5486   2
   4   5   5 368.840 28.4156   0
   4   5   5 294.863 22.0718   3
   4   5   6 57.9645 25.0649   0
  -4  -5  -6 9.24942 22.8481   2
   4   5   6 27.9051 17.5676   3
  -4  -5  -7 38.3095 26.8140   2
   4   5   7 14.3895 28.9675   0
  -4  -5  -8 18836.3 136.137   2
   4   5   8 18145.1 120.260   0
  -4  -5  -9 1468.27 51.4863   2
   4   5   9 1516.81 44.9190   0
  -4  -5 -10 1916.41 57.8559   2
   4   5  10 1944.72 46.4269   0
  -4  -5 -11 649.666 46.0155   2
   4   5  11 692.320 33.6977   0
  -4  -5 -12 933.491 52.7685   2
  -4  -5 -13 44.2669 41.5240   2
  -4  -5 -14 2240.48 75.0781   2
  -4  -5 -15-9.76190 48.9231   2
   4   6 -11 36.0184 33.9910   4
   4   6 -10 246.100 46.1199   4
   4   6  -9 173.946 43.1982   1
   4   6  -9 236.345 45.7545   4
   4   6  -8 309.178 48.2198   4
   4   6  -8 171.767 25.8041   3
   4   6  -7 183.897 42.5634   4
   4   6  -7 112.988 27.0503   3
   4   6  -6 325.962 41.9188   4
   4   6  -6 391.208 29.9183   3
   4   6  -5 478.284 31.6559   3
   4   6  -4 469.687 31.7459   3
   4   6  -3 10364.8 73.2843   0
   4   6  -3 10744.0 94.8053   3
   4   6  -2 947.590 41.4333   3
   4   6  -2 932.745 31.9346   0
   4   6  -1 6986.91 76.6538   3
   4   6  -1 7112.03 66.0845   0
   4   6   0 975.315 37.8038   3
   4   6   0 1003.89 32.7882   0
   4   6   1 9932.41 85.2252   3
   4   6   1 9786.84 80.1268   0
   4   6   2 5816.40 65.3450   3
   4   6   2 5892.73 64.2914   0
   4   6   3 716.111 31.3094   0
   4   6   3 745.348 29.6006   3
   4   6   4 244.259 23.7859   3
   4   6   4 157.516 28.5131   0
  -4  -6  -5 21991.7 119.681   2
   4   6   5 21421.5 126.089   0
   4   6   5 21763.3 113.390   3
  -4  -6  -6 24926.2 136.544   2
   4   6   6 24929.6 137.062   0
   4   6   6 24890.2 120.158   3
  -4  -6  -7 228.949 29.2626   2
   4   6   7 150.692 33.4042   0
  -4  -6  -8 5905.04 79.8771   2
   4   6   8 6010.42 74.3140   0
  -4  -6  -9 1950.24 55.1871   2
   4   6   9 1886.36 48.7560   0
  -4  -6 -10 3467.34 70.7689   2
   4   6  10 3567.80 59.8086   0
  -4  -6 -11 264.883 41.0414   2
   4   6  11 201.448 29.0539   0
  -4  -6 -12 685.974 51.1035   2
  -4  -6 -13 3355.93 81.9175   2
  -4  -6 -14 147.047 43.0881   2
  -4  -6 -15 663.747 61.2888   2
   4   7 -11 214.526 42.6558   4
   4   7 -10 293.284 49.3298   4
   4   7  -9 2847.52 85.5763   4
   4   7  -8 998.118 58.1687   4
   4   7  -8 529.000 31.2073   3
   4   7  -7 245.663 30.3489   3
   4   7  -7 264.155 43.0338   4
   4   7  -6-6.62972 35.0313   4
   4   7  -6 5.28194 29.8234   3
   4   7  -5 341.089 32.0686   3
   4   7  -4 69.7276 28.8804   3
   4   7  -3 1828.98 37.6199   0
   4   7  -3 1790.12 48.5494   3
   4   7  -2-11.1894 23.7877   0
   4   7  -2-7.55674 29.7245   3
   4   7  -1 3969.18 54.1845   0
   4   7  -1 4154.61 62.6216   3
   4   7   0 5579.09 61.4668   0
   4   7   0 5928.68 71.8249   3
   4   7   1 1275.30 39.6900   3
   4   7   1 1310.10 36.4693   0
   4   7   2 1210.78 38.7748   3
   4   7   2 1199.32 36.8144   0
   4   7   3 193.472 27.0869   0
   4   7   3 215.799 28.5716   3
   4   7   4 7624.21 76.4600   3
   4   7   4 7511.26 77.0098   0
   4   7   5 628.659 35.9669   3
   4   7   5 870.267 41.4529   0
   4   7   6 18354.2 109.941   3
   4   7   6 18591.2 120.971   0
  -4  -7  -7 833.278 38.9531   2
   4   7   7 961.153 39.7539   0
  -4  -7  -8 4378.14 69.7333   2
   4   7   8 4261.21 64.9250   0
  -4  -7  -9 3308.07 66.3132   2
   4   7   9 3421.11 59.3358   0
   4   7  10 9.28968 29.3521   0
  -4  -7 -10-0.14399 31.4727   2
  -4  -7 -11 693.705 45.2170   2
   4   7  11 673.608 36.9323   0
  -4  -7 -12 1160.50 57.0276   2
  -4  -7 -13-34.8832 37.7505   2
  -4  -7 -14 427.421 49.1711   2
  -4  -7 -15-49.1976 51.5241   2
   4   8  -9 107.714 36.8064   4
   4   8  -8 386.245 50.2670   4
   4   8  -7 75.4473 28.0027   3
   4   8  -6 178.081 32.9933   3
   4   8  -5 111.065 29.3916   3
   4   8  -4 50.5960 28.6353   3
   4   8  -3 264.508 33.9272   3
   4   8  -2 213.153 27.3998   0
   4   8  -2 211.779 33.8294   3
   4   8  -1 9214.49 79.1724   0
   4   8  -1 9853.06 95.7889   3
   4   8   0 4362.22 58.2602   0
   4   8   0 4617.49 68.7736   3
   4   8   1 123.599 26.7471   0
   4   8   1 109.190 30.3504   3
   4   8   2 1605.08 42.3325   0
   4   8   2 1806.38 47.5371   3
   4   8   3 16043.9 108.572   0
   4   8   3 16851.6 116.981   3
   4   8   4 5398.87 67.8734   0
   4   8   4 5311.63 68.8084   3
   4   8   5 7692.12 79.4668   0
   4   8   5 7516.95 79.0919   3
   4   8   6 10580.0 91.9631   0
   4   8   6 10858.2 91.0931   3
   4   8   7 601.228 35.0978   0
   4   8   7 598.511 30.3365   3
   4   8   8 8561.21 85.7954   0
   4   8   9 11684.3 100.491   0
   4   8  10 535.366 37.2735   0
  -4  -8 -10 461.709 42.6292   2
   4   8  11 136.308 30.2026   0
  -4  -8 -11 94.8089 39.2200   2
   4   8  12 38.1225 29.7332   0
  -4  -8 -12 3.15375 36.6991   2
  -4  -8 -13 460.377 45.6200   2
  -4  -8 -14 54.0253 47.1676   2
   4   9  -7 9.09231 24.6825   3
   4   9  -6 508.022 36.9725   3
   4   9  -5 2316.22 57.8152   3
   4   9  -4 743.696 41.1820   3
   4   9  -3-15.0819 28.7187   3
   4   9  -2 11.9963 24.9595   0
   4   9  -2 6.32718 30.7045   3
   4   9  -1 2579.67 48.5989   0
   4   9  -1 2794.66 60.2420   3
   4   9   0 4639.63 64.0710   0
   4   9   0 4812.60 73.2342   3
   4   9   1 385.727 32.8644   0
   4   9   1 375.926 37.1824   3
   4   9   2 1562.27 43.3863   0
   4   9   2 1741.06 50.5689   3
   4   9   3 3897.10 60.7145   0
   4   9   3 3635.36 63.9573   3
   4   9   4 7860.45 83.0304   0
   4   9   4 8083.80 87.7868   3
   4   9   5 3561.24 60.9824   0
   4   9   5 3400.76 59.3556   3
   4   9   6 342.880 34.2139   0
   4   9   6 375.360 31.0899   3
   4   9   7 101.368 26.7312   3
   4   9   7 32.1730 30.3358   0
   4   9   8-23.3189 29.5024   0
   4   9   9 339.406 35.0717   0
   4   9  10 893.896 44.6290   0
   4   9  11 856.870 43.1809   0
   4   9  12 89.7840 32.1835   0
  -4  -9 -13 11.0173 39.5262   2
  -4  -9 -14 132.821 51.2104   2
   4  10  -7 31.1939 24.3339   3
   4  10  -6 160.789 33.9585   3
   4  10  -5 151.517 36.1474   3
   4  10  -4 504.585 38.6461   3
   4  10  -3 306.377 34.8039   3
   4  10  -2 66.1818 32.6045   3
   4  10  -2 59.8651 26.6675   0
   4  10  -1 1434.16 44.0003   0
   4  10  -1 1563.39 52.2486   3
   4  10   0 3954.76 62.1068   0
   4  10   0 4488.99 75.1313   3
   4  10   1 52.4582 33.2738   3
   4  10   1 39.0586 28.9324   0
   4  10   2 353.262 35.4668   0
   4  10   2 349.129 40.1542   3
   4  10   3 2431.97 53.6645   0
   4  10   3 2456.48 59.2297   3
   4  10   4 1316.19 44.2964   0
   4  10   4 1316.02 48.6016   3
   4  10   5 149.539 33.8627   3
   4  10   5 150.288 32.1754   0
   4  10   6 74.2741 31.1875   3
   4  10   6 18.8577 33.0128   0
   4  10   7 1404.11 45.7920   0
   4  10   8 1784.48 50.2438   0
   4  10   9 2999.69 60.8940   0
   4  10  10 2565.26 62.0224   0
   4  10  11 37.1296 31.4105   0
   4  10  12 72.9718 32.2108   0
   4  11  -4 362.077 42.3251   3
   4  11  -3 31.8278 31.3636   3
   4  11  -2 145.451 39.3978   3
   4  11  -1 175.132 37.7812   3
   4  11  -1 185.683 34.1936   0
   4  11   0 1079.82 50.9262   3
   4  11   0 1066.61 45.8395   0
   4  11   1 179.472 43.6001   3
   4  11   1 141.402 34.4713   0
   4  11   2 539.070 41.0931   0
   4  11   2 585.590 43.0645   3
   4  11   3 1411.13 46.9966   0
   4  11   3 1419.60 52.0478   3
   4  11   4 550.305 36.4377   0
   4  11   5 0.05829 29.0545   0
   4  11   6 89.7519 34.5026   0
   4  11   7 5.22457 28.9802   0
   4  11   8 28.4322 32.9020   0
   4  11   9 145.967 34.7223   0
   4  11  10 201.561 35.2945   0
   4  11  11 305.361 42.1943   0
   4  11  12-1.01021 35.2055   0
   4  12   0 856.043 42.3390   0
   4  12   1 69.3321 31.9578   0
   4  12   2 1192.72 50.7599   0
   4  12   3 607.119 41.2724   0
   4  12   4 200.639 37.6079   0
   4  12   5-1.53285 33.5042   0
   4  12   6 317.484 37.6185   0
   4  12   7 697.102 46.5504   0
   4  12   8 53.2513 37.7665   0
   5  -7  -9 55.7090 36.0702   3
   5  -7  -8 1200.83 66.6024   3
   5  -7  -7 802.900 63.0330   3
   5  -7  -6 3.38040 48.2764   3
   5  -7  -5 450.488 49.4133   3
   5  -7  -4 192.848 50.4334   3
   5  -7  -3 0.00000 41.9453   3
   5  -7  -2 109.694 45.4955   3
   5  -7  -1 63.4837 43.9997   3
   5  -7   0 134.844 40.8391   3
   5  -7   1 604.906 52.9176   3
   5  -7   2 271.775 49.4396   3
   5  -7   3 123.122 44.7306   3
   5  -7   4 161.115 41.5582   3
  -5   7  -5 439.187 41.6037   2
   5  -6 -10 20.4911 31.0610   3
   5  -6  -9 85.6913 38.7093   3
   5  -6  -8 534.371 49.1393   3
   5  -6  -7 350.595 49.4390   3
   5  -6  -6-18.8621 44.5057   3
   5  -6  -5 45.2842 39.8618   3
   5  -6  -4 1762.93 68.5011   3
   5  -6  -3 1022.69 57.5947   3
   5  -6  -2 31.7041 39.4623   3
   5  -6  -1 57.0935 42.2331   3
   5  -6   0 564.503 48.8546   3
   5  -6   1 688.039 51.4692   3
   5  -6   2 2048.86 67.9775   3
   5  -6   3 25.2758 38.4288   3
   5  -6   4 2353.39 72.5684   3
  -5   6  -5 147.713 47.3296   2
  -5   6  -6-12.7858 46.9333   2
  -5   6  -7-49.7543 37.0625   2
   5  -5 -10 35.7255 32.2538   3
   5  -5  -9 64.9901 41.2160   3
   5  -5  -8 23.6340 35.5990   3
   5  -5  -7-8.18066 40.5152   3
   5  -5  -6 370.947 48.1931   3
   5  -5  -5 2072.20 67.7513   3
   5  -5  -4 434.314 45.2018   3
   5  -5  -3 220.070 40.7553   3
   5  -5  -2 513.627 48.2704   3
   5  -5  -1 226.861 41.8126   3
   5  -5   0 186.218 39.1023   3
   5  -5   1 450.123 45.0013   3
   5  -5   2 412.839 43.9501   3
   5  -5   3 454.708 44.5578   3
   5  -5   4 613.850 46.7682   3
  -5   5  -5 406.753 45.8730   2
  -5   5  -6 191.121 45.1828   2
  -5   5  -7-18.8757 42.4745   2
  -5   5  -8 99.6170 44.9640   2
   5  -4 -12 59.0798 50.2083   2
   5  -4 -11 82.1533 48.3120   2
   5  -4 -10 12.7642 30.2785   3
   5  -4  -9 18.2200 37.1299   3
   5  -4  -8 273.498 39.4210   3
   5  -4  -7 486.439 46.7938   3
   5  -4  -6 1297.76 59.7328   3
   5  -4  -5 653.825 52.7704   3
   5  -4  -4 1109.34 56.8784   3
   5  -4  -3 2582.09 70.9833   3
   5  -4  -2 2047.92 65.8447   3
   5  -4  -1 2925.70 72.8244   3
   5  -4   0 6742.09 102.025   3
   5  -4   1 7908.14 108.710   3
   5  -4   2 1229.25 52.5892   3
   5  -4   3 887.618 47.7879   3
   5  -4   4 3832.46 77.3367   3
  -5   4  -5 445.898 46.9568   2
  -5   4  -6 120.755 41.4519   2
  -5   4  -7 35.8674 40.3886   2
  -5   4  -8 1505.76 63.0919   2
  -5   4  -9 93.6637 42.3314   2
   5  -3 -13-6.77393 38.6045   2
   5  -3 -12 150.147 44.4858   2
   5  -3 -11 685.534 66.3018   2
   5  -3 -10 557.649 56.7122   2
   5  -3  -9 874.893 47.5894   3
   5  -3  -8 188.651 39.2621   3
   5  -3  -7 223.937 38.3702   3
   5  -3  -6 472.680 45.2701   3
   5  -3  -5 5799.01 95.3681   3
   5  -3  -4 3805.07 80.8933   3
   5  -3  -3 192.138 40.4541   3
   5  -3  -2-31.1606 35.9546   3
   5  -3  -1 673.029 46.8380   3
   5  -3   0 904.269 50.2826   3
   5  -3   1 40.9353 37.7263   3
   5  -3   2 4441.52 82.2770   3
   5  -3   3 1634.77 56.6578   3
   5  -3   4 1944.46 57.4689   3
  -5   3  -5 1449.04 58.7273   2
   5  -3   5 1435.74 50.3915   3
  -5   3  -6 237.047 41.0328   2
  -5   3  -7 1837.72 64.9454   2
  -5   3  -8 98.7126 40.1617   2
  -5   3  -9 461.289 47.8253   2
  -5   3 -10 117.544 38.3132   2
   5  -2 -13 560.230 47.3927   4
   5  -2 -12 1004.55 58.1923   4
   5  -2 -11-44.5319 41.8254   4
   5  -2 -11-12.0914 44.0385   2
   5  -2 -10-38.2515 37.2019   4
   5  -2 -10-3.36027 40.8288   2
   5  -2  -9 661.174 48.7995   4
   5  -2  -9 771.172 46.9240   3
   5  -2  -8 0.66993 34.1315   4
   5  -2  -8-8.10808 33.8344   3
   5  -2  -7 1220.97 49.6889   4
   5  -2  -7 1687.58 57.8662   3
   5  -2  -6 256.030 38.2685   3
   5  -2  -5 6779.25 99.4667   3
   5  -2  -4 692.907 45.9452   3
   5  -2  -3 4958.31 84.4106   3
   5  -2  -2 551.031 40.6272   3
   5  -2  -1 2411.70 64.0392   3
   5  -2   0 1958.72 60.0374   3
   5  -2   1 22218.8 165.280   3
   5  -2   2 874.461 47.8195   3
   5  -2   3 8788.69 103.914   3
   5  -2   4 10012.9 109.380   3
  -5   2  -5 10523.7 126.193   2
   5  -2   5 10693.3 110.766   3
  -5   2  -6 87.8891 39.5915   2
  -5   2  -7 656.554 48.5176   2
  -5   2  -8 921.133 53.6367   2
  -5   2  -9 236.661 43.2312   2
  -5   2 -10 440.046 46.1367   2
  -5   2 -11 92.8010 36.1412   2
   5  -1 -13 87.1635 41.4873   4
   5  -1 -12 40.6904 45.6387   4
   5  -1 -11 669.217 56.8661   4
   5  -1 -10 1192.22 61.9540   4
   5  -1  -9 102.844 38.7309   4
   5  -1  -9 207.675 40.3173   2
   5  -1  -9 153.625 38.2491   3
   5  -1  -8 463.155 44.4245   4
   5  -1  -8 469.149 42.6871   3
   5  -1  -7 36.7567 33.6662   4
   5  -1  -7 16.0436 32.8778   3
   5  -1  -6 1358.96 53.8881   4
   5  -1  -6 1506.50 54.4283   3
   5  -1  -5 2184.76 62.6732   3
   5  -1  -4 6139.40 91.0680   3
   5  -1  -3 167.857 33.3793   3
   5  -1  -2 4.57703 29.9265   3
   5  -1  -1 1175.12 47.5176   3
   5  -1   0 8819.36 102.626   3
   5  -1   1 3004.42 65.4834   3
   5  -1   2 1903.79 57.4925   3
   5  -1   3 12194.5 116.181   3
  -5   1  -4-54.0717 40.0632   2
   5  -1   4 16.3066 30.8533   3
  -5   1  -5 2778.18 72.2559   2
   5  -1   5 2896.69 61.8646   3
  -5   1  -6-19.8141 39.9514   2
  -5   1  -7 4880.53 88.5715   2
  -5   1  -8 46.0949 37.4678   2
  -5   1  -9 34.7407 33.6580   2
  -5   1 -10 233.461 39.5650   2
  -5   1 -11 1389.40 62.8032   2
  -5   1 -12-21.0169 41.0075   2
   5   0 -13-97.2753 37.7347   4
   5   0 -12 157.710 49.2947   4
   5   0 -11 128.241 49.1902   4
   5   0 -10 74.5217 42.1245   4
   5   0  -9 1673.98 65.9512   4
   5   0  -9 1859.11 58.6007   3
   5   0  -8 2911.19 77.7432   4
   5   0  -8 2891.95 67.7539   3
   5   0  -7 717.996 47.3865   4
   5   0  -7 728.742 44.5858   3
   5   0  -6 4101.83 84.4336   4
   5   0  -6 4368.95 79.2162   3
   5   0  -5 4030.75 74.2239   3
   5   0  -4 1543.17 52.1413   3
   5   0  -3 3.44284 27.2154   3
   5   0  -2 321.515 33.0881   3
   5   0  -1 4665.16 74.9969   3
   5   0   0 5460.52 80.7695   3
   5   0   1 2026.03 54.1811   3
   5   0   2 1617.64 50.8301   3
   5   0   3 38150.5 195.880   3
  -5   0  -4 4575.83 81.2093   2
   5   0   4 4726.75 73.4927   3
  -5   0  -5 10487.7 115.395   2
   5   0   5 10070.4 100.472   3
  -5   0  -6 6252.89 93.6780   2
  -5   0  -7 16242.3 144.963   2
  -5   0  -8 2806.23 71.6639   2
  -5   0  -9 4643.23 87.9389   2
  -5   0 -10 656.630 44.7897   2
  -5   0 -11 73.6617 42.9070   2
  -5   0 -12 199.752 49.0167   2
  -5   0 -13 643.244 54.5483   2
   5   1 -11-7.61974 45.4031   4
   5   1 -10 1738.40 76.2473   4
   5   1  -9 187.046 43.2375   4
   5   1  -9 201.926 34.2522   3
   5   1  -8 257.090 41.3180   4
   5   1  -8 212.069 36.2832   3
   5   1  -7 387.937 44.7392   4
   5   1  -7 430.032 37.1321   3
   5   1  -6 80.7896 37.2959   4
   5   1  -6 111.754 32.0024   3
   5   1  -5-14.6712 33.9007   3
   5   1  -4 16298.5 141.978   3
   5   1  -3 97.6862 38.8810   3
   5   1  -2 3328.40 70.4685   3
   5   1  -1 145.539 34.3061   3
   5   1   0 11549.5 111.982   3
   5   1   1 4867.15 74.3056   3
   5   1   2 18797.2 135.671   3
  -5  -1  -3 1120.16 43.0155   2
   5   1   3 1129.10 43.8350   3
  -5  -1  -4 14122.8 122.579   2
   5   1   4 14062.7 116.373   3
  -5  -1  -5 4527.06 75.3557   2
   5   1   5 4586.47 68.5925   3
  -5  -1  -6 3320.00 71.5229   2
  -5  -1  -7 1342.16 57.2390   2
  -5  -1  -8 2729.08 68.5350   2
  -5  -1  -9 246.339 38.6274   2
  -5  -1 -10 698.809 49.3471   2
  -5  -1 -11 826.467 55.0478   2
  -5  -1 -12 811.117 53.4156   2
  -5  -1 -13 39.8870 39.6650   2
   5   2 -12-14.0613 41.6706   4
   5   2 -11 892.595 64.0424   4
   5   2 -10 391.336 53.0018   4
   5   2  -9 724.591 58.1074   4
   5   2  -9 404.927 32.3876   3
   5   2  -8 1601.54 66.8182   4
   5   2  -8 1537.35 50.4681   3
   5   2  -7 153.533 38.5346   4
   5   2  -7 27.4869 28.0852   3
   5   2  -6 110.901 41.0029   4
   5   2  -6 148.593 31.8790   3
   5   2  -5 1728.90 53.1390   3
   5   2  -4 11549.1 116.366   3
   5   2  -3 273.718 38.2532   3
   5   2  -2 972.987 46.9121   3
   5   2  -1 19048.6 139.672   3
   5   2   0 775.734 40.7242   3
   5   2   1 113.211 29.4922   3
  -5  -2  -2-0.69425 22.1806   2
   5   2   2 44.0654 28.9280   3
  -5  -2  -3 19551.5 132.197   2
   5   2   3 19609.5 134.165   3
  -5  -2  -4-26.4651 25.3331   2
   5   2   4-27.8304 26.3689   3
  -5  -2  -5 1163.52 42.6248   2
   5   2   5 1162.21 39.0815   3
  -5  -2  -6 44.7968 31.2455   2
  -5  -2  -7 41232.2 213.400   2
  -5  -2  -8 5113.08 85.9627   2
  -5  -2  -9 2237.35 62.9712   2
  -5  -2 -10 103.680 40.8316   2
  -5  -2 -11 149.637 43.0620   2
  -5  -2 -12 493.517 51.7180   2
  -5  -2 -13 1636.19 69.7005   2
   5   3 -12-28.6195 44.8063   4
   5   3 -11 55.9461 41.4686   4
   5   3 -10 632.590 58.4096   4
   5   3  -9 1271.50 66.6287   4
   5   3  -9 888.261 39.2807   3
   5   3  -8 34.3722 41.8424   4
   5   3  -8 4.71727 30.9556   3
   5   3  -7 67.5175 43.0043   4
   5   3  -7 71.6571 29.5819   3
   5   3  -6 1759.27 65.7875   4
   5   3  -6 1689.86 49.5859   3
   5   3  -5-7.79195 28.8855   3
   5   3  -4 7870.00 94.9088   3
   5   3  -3 6507.59 69.6811   0
   5   3  -3 6649.84 85.7090   3
   5   3  -2 20400.3 120.899   0
   5   3  -2 20933.7 142.104   3
   5   3  -1 2466.65 49.9055   0
   5   3  -1 2817.44 60.3490   3
   5   3   0 3288.05 54.8243   0
   5   3   0 3355.58 62.5516   3
  -5  -3  -1 805.127 29.5338   2
   5   3   1 792.150 37.0305   3
  -5  -3  -2 6717.03 72.9347   2
   5   3   2 6733.18 79.1171   3
  -5  -3  -3 173.549 23.1473   2
   5   3   3 122.181 27.3599   3
  -5  -3  -4 8633.27 87.2424   2
   5   3   4 8341.45 83.9643   3
  -5  -3  -5 269.299 28.2933   2
   5   3   5 265.515 26.1827   3
  -5  -3  -6 961.472 39.1600   2
   5   3   7 73.3421 33.2977   0
  -5  -3  -7 141.428 34.5651   2
  -5  -3  -8 10116.6 110.349   2
   5   3   8 10152.8 103.355   0
   5   3   9-36.1758 31.2057   0
  -5  -3  -9 10.1914 34.5907   2
  -5  -3 -10 329.239 41.4627   2
   5   3  10 181.413 34.3114   0
  -5  -3 -11 352.868 42.4258   2
   5   3  11 263.025 36.3367   0
  -5  -3 -12 644.233 51.4847   2
  -5  -3 -13 1483.59 66.5288   2
  -5  -3 -14 2.06864 41.6007   2
   5   4 -11-33.4753 47.6317   4
   5   4 -10 243.866 54.3440   4
   5   4  -9 115.186 42.8746   4
   5   4  -8 66.0552 44.6739   4
   5   4  -8-4.93414 30.2648   3
   5   4  -7 1865.78 70.5703   4
   5   4  -7 1502.85 49.2892   3
   5   4  -6 1353.34 61.3245   4
   5   4  -6 1304.92 47.6455   3
   5   4  -5 550.297 37.8571   3
   5   4  -4 765.027 41.2697   3
   5   4  -3 439.998 30.9373   0
   5   4  -3 392.252 41.1637   3
   5   4  -2 2520.73 51.0645   0
   5   4  -2 2694.05 60.6577   3
   5   4  -1 2113.38 48.4400   0
   5   4  -1 2205.68 53.7851   3
   5   4   0 2493.43 50.1560   0
   5   4   0 2505.05 53.4246   3
   5   4   1 5167.09 66.7678   0
   5   4   1 5279.34 70.4488   3
   5   4   2 2054.58 47.7135   0
   5   4   2 2036.60 47.4196   3
  -5  -4  -3 9664.84 83.0046   2
   5   4   3 9433.50 90.8182   0
   5   4   3 9703.64 90.8692   3
   5   4   4 49.2920 26.9325   0
  -5  -4  -4 29.7478 18.0289   2
   5   4   4 43.6647 23.9720   3
  -5  -4  -5 1368.18 39.0684   2
   5   4   5 1395.35 44.4315   0
   5   4   5 1365.26 38.5271   3
  -5  -4  -6 3478.93 62.4194   2
   5   4   6 3517.38 62.9729   0
   5   4   6 3501.04 53.7976   3
  -5  -4  -7 4494.49 73.0999   2
   5   4   7 4608.46 71.3034   0
  -5  -4  -8 577.891 41.2520   2
   5   4   8 598.804 42.1920   0
  -5  -4  -9 3079.49 68.1825   2
   5   4   9 3017.59 62.3198   0
  -5  -4 -10 2753.01 70.1662   2
   5   4  10 2774.79 62.7505   0
  -5  -4 -11 4960.63 89.3142   2
   5   4  11 5092.74 76.7173   0
  -5  -4 -12 92.6301 42.3825   2
  -5  -4 -13 505.883 54.2088   2
  -5  -4 -14 24.6826 41.3071   2
   5   5 -10 148.593 49.1316   4
   5   5  -9 319.152 54.4511   4
   5   5  -8 459.124 53.7151   4
   5   5  -8 431.294 34.4453   3
   5   5  -7 1058.91 62.5746   4
   5   5  -7 993.740 43.1071   3
   5   5  -6 3085.46 62.3684   3
   5   5  -5 812.958 41.6493   3
   5   5  -4 177.609 31.5871   3
   5   5  -3 3173.20 49.6477   0
   5   5  -3 2969.11 61.3311   3
   5   5  -2 24225.0 125.880   0
   5   5  -2 24300.0 151.106   3
   5   5  -1 37144.5 159.183   0
   5   5  -1 37018.4 182.121   3
   5   5   0 2569.21 49.0871   0
   5   5   0 2389.53 54.7210   3
   5   5   1 1144.33 37.6256   0
   5   5   1 1178.47 41.8138   3
   5   5   2 5424.73 68.9384   0
   5   5   2 5455.88 71.0233   3
   5   5   3 911.066 37.3120   0
   5   5   3 886.171 36.1363   3
   5   5   4 4.59665 24.9193   0
   5   5   4-11.7728 21.9647   3
  -5  -5  -5 248.306 25.9770   2
   5   5   5 303.673 32.1482   0
   5   5   5 228.538 24.6603   3
  -5  -5  -6 7875.97 85.0931   2
   5   5   6 7876.68 86.7061   0
   5   5   6 7681.41 75.4889   3
   5   5   7 174.587 31.8800   0
  -5  -5  -7 153.457 30.3483   2
  -5  -5  -8 6215.61 86.3529   2
   5   5   8 6081.98 80.6103   0
   5   5   9 95.0537 30.8727   0
  -5  -5  -9 44.0653 33.3811   2
  -5  -5 -10 5503.26 90.1710   2
   5   5  10 5696.28 80.1497   0
  -5  -5 -11 218.186 43.3842   2
   5   5  11 302.134 32.3640   0
  -5  -5 -12 3303.35 82.0286   2
  -5  -5 -13 136.630 47.8985   2
  -5  -5 -14 984.805 63.7728   2
   5   6 -10 592.136 55.6510   4
   5   6  -9 398.361 62.2985   4
   5   6  -8-11.7614 46.1779   4
   5   6  -8 49.4890 28.0971   3
   5   6  -7 1501.42 48.5921   3
   5   6  -6 2364.25 56.4984   3
   5   6  -5 618.008 39.0743   3
   5   6  -4 15.8835 27.4749   3
   5   6  -3 1458.74 47.8087   3
   5   6  -2 2065.98 56.9323   3
   5   6  -2 2018.32 45.1642   0
   5   6  -1 2568.57 52.1770   0
   5   6  -1 2364.00 59.8334   3
   5   6   0 931.005 38.1899   0
   5   6   0 911.645 42.4739   3
   5   6   1 2172.21 47.4207   0
   5   6   1 2332.10 52.0746   3
   5   6   2 840.076 38.7260   0
   5   6   2 793.869 38.6641   3
   5   6   3 12.5874 24.3074   3
   5   6   4 32.5110 33.7469   0
   5   6   4 117.208 24.2347   3
   5   6   5 1885.77 51.8673   0
   5   6   5 2126.88 44.9737   3
   5   6   6 108.721 31.2246   0
   5   6   6 174.680 23.1604   3
  -5  -6  -7 2078.90 49.9001   2
   5   6   7 1985.58 51.7190   0
  -5  -6  -8 1080.53 43.0944   2
   5   6   8 1118.48 46.1226   0
  -5  -6  -9 367.278 37.5903   2
   5   6   9 324.673 36.3761   0
  -5  -6 -10 234.068 41.5587   2
   5   6  10 208.773 37.9856   0
  -5  -6 -11 2513.28 68.2149   2
   5   6  11 2506.73 59.4796   0
  -5  -6 -12 214.576 43.9503   2
   5   6  12 188.143 32.0156   0
  -5  -6 -13 303.736 50.6514   2
  -5  -6 -14 1146.66 67.2074   2
   5   7  -9 431.585 49.4932   4
   5   7  -8-8.08603 23.3825   3
   5   7  -7 393.419 37.9842   3
   5   7  -6 1107.85 43.9689   3
   5   7  -5 779.469 44.2055   3
   5   7  -4 393.521 38.4110   3
   5   7  -3 1.50994 32.0809   3
   5   7  -2 1206.75 45.4082   3
   5   7  -2 1144.83 36.2052   0
   5   7  -1 14597.6 118.669   3
   5   7  -1 13867.4 100.838   0
   5   7   0 46.1115 28.0891   0
   5   7   0 163.901 33.8964   3
   5   7   1 383.417 33.9685   3
   5   7   1 250.530 29.8827   0
   5   7   2 9996.92 95.4653   3
   5   7   2 10001.8 91.9344   0
   5   7   3 16910.3 119.614   3
   5   7   3 16791.5 119.259   0
   5   7   4 304.243 29.3625   3
   5   7   4 157.567 33.0843   0
   5   7   5 238.652 25.2359   3
   5   7   5 111.402 32.9057   0
   5   7   6 246.252 31.7804   0
   5   7   6 181.451 25.1323   3
   5   7   7 731.328 38.5991   0
   5   7   8 68.7973 32.2986   0
  -5  -7  -9 171.802 34.9587   2
   5   7   9 156.962 33.9870   0
  -5  -7 -10 5774.25 90.1000   2
   5   7  10 5740.94 80.3294   0
  -5  -7 -11 730.488 49.9220   2
   5   7  11 706.931 40.2766   0
  -5  -7 -12 1040.17 55.7722   2
   5   7  12 1025.30 46.9281   0
  -5  -7 -13 193.839 42.3519   2
  -5  -7 -14 1028.44 66.1399   2
   5   8  -8 23.1157 27.0087   3
   5   8  -7 496.525 37.1129   3
   5   8  -6 362.841 38.8957   3
   5   8  -5-1.44981 34.1690   3
   5   8  -4 15.5764 32.2100   3
   5   8  -3 823.865 43.2758   3
   5   8  -2 157.439 26.6225   0
   5   8  -2 98.1022 32.2783   3
   5   8  -1 198.529 26.8459   0
   5   8  -1 176.286 37.5442   3
   5   8   0 219.776 29.9243   0
   5   8   0 165.311 36.9839   3
   5   8   1 2818.16 53.3351   0
   5   8   1 3002.50 61.4089   3
   5   8   2 331.458 36.9911   3
   5   8   2 372.059 37.1775   0
   5   8   3 4682.09 72.2943   3
   5   8   3 4778.99 69.1868   0
   5   8   4 1570.91 48.4099   3
   5   8   4 1704.69 48.6258   0
   5   8   5 270.248 32.5172   0
   5   8   5 188.080 31.0961   3
   5   8   6 321.905 28.8440   3
   5   8   6 396.539 35.1935   0
   5   8   7 691.523 38.6295   0
   5   8   8 105.616 32.8739   0
   5   8   9 213.954 34.2137   0
   5   8  10 27.8593 34.1886   0
   5   8  11 931.827 45.5502   0
   5   8  12 180.635 37.4486   0
  -5  -8 -12 122.252 38.2198   2
  -5  -8 -13-19.4653 37.2562   2
  -5  -8 -14 18.6021 43.3177   2
   5   9  -7 178.820 32.0016   3
   5   9  -6 297.529 35.0448   3
   5   9  -5-11.3452 30.2144   3
   5   9  -4 554.374 39.1184   3
   5   9  -3 727.785 42.1973   3
   5   9  -2 22.7914 34.7244   3
   5   9  -1 20.0471 26.9456   0
   5   9  -1 43.9702 35.1621   3
   5   9   0 1210.65 42.6605   0
   5   9   0 1553.63 53.6143   3
   5   9   1 3658.23 60.4956   0
   5   9   1 3990.78 72.0935   3
   5   9   2 4715.80 68.4833   0
   5   9   2 4599.84 75.4413   3
   5   9   3 9922.62 94.6026   0
   5   9   3 10374.4 104.507   3
   5   9   4 208.053 33.9134   0
   5   9   4 122.017 36.1085   3
   5   9   5 6618.48 80.2230   0
   5   9   5 6601.39 80.5380   3
   5   9   6 4795.51 70.5898   0
   5   9   6 4976.16 70.2281   3
   5   9   7 1657.48 47.6343   0
   5   9   8 643.040 37.5396   0
   5   9   9 460.742 38.1617   0
   5   9  10 601.322 40.3644   0
   5   9  11 161.388 37.9873   0
   5   9  12-18.9167 35.4251   0
   5  10  -5-10.6719 29.3653   3
   5  10  -4 169.181 34.6896   3
   5  10  -3 702.837 45.5337   3
   5  10  -2 406.629 37.7086   3
   5  10  -1 6.91415 26.0025   0
   5  10  -1-11.1912 36.0486   3
   5  10   0 44.6317 30.3828   0
   5  10   0-34.5816 37.2230   3
   5  10   1 2595.29 55.5275   0
   5  10   1 2833.46 65.4540   3
   5  10   2 3978.88 68.0809   0
   5  10   2 3953.11 72.5765   3
   5  10   3 47.7695 32.0048   0
   5  10   3 57.6571 33.7419   3
   5  10   4-1.38902 30.6613   0
   5  10   4 26.7205 31.4448   3
   5  10   5 90.2619 33.4499   0
   5  10   5 98.7595 29.8285   3
   5  10   6 32.5409 33.8392   0
   5  10   6 14.6018 29.1602   3
   5  10   7 51.0809 32.5682   0
   5  10   8 103.772 33.6840   0
   5  10   9-4.28286 36.5083   0
   5  10  10-25.8568 36.5678   0
   5  10  11 823.588 49.4403   0
   5  10  12 415.239 40.7668   0
   5  11  -2 152.902 34.2780   3
   5  11  -1 23.3255 38.6778   3
   5  11   0 15.1848 30.9074   0
   5  11   0-19.3919 40.6547   3
   5  11   1 324.528 36.8628   0
   5  11   1 305.646 42.2898   3
   5  11   2 349.557 38.6827   0
   5  11   2 324.482 39.2203   3
   5  11   3 616.731 42.5387   0
   5  11   3 634.470 43.7149   3
   5  11   4 121.911 37.1977   3
   5  11   4 98.6749 35.3416   0
   5  11   5 2126.17 57.7645   0
   5  11   5 2196.03 57.8019   3
   5  11   6 1531.82 51.7126   0
   5  11   6 1690.87 53.1109   3
   5  11   7 1675.72 55.8174   0
   5  11   8 640.551 44.4048   0
   5  11   9-17.5736 36.7109   0
   5  12   0-15.3050 33.2262   0
   5  12   1 127.020 37.7390   0
   5  12   2 288.799 39.9510   0
   5  12   3 78.1883 40.8718   3
   5  12   3 21.4318 35.7168   0
   5  12   4 34.8453 34.1790   3
   5  12   4-12.4963 34.7146   0
   5  12   5 65.9528 37.5400   0
   6  -6  -4-59.1485 42.4374   3
   6  -6  -3-56.8288 45.0732   3
   6  -6  -2 369.298 48.2680   3
   6  -6  -1 541.899 53.5981   3
   6  -6   0 85.1719 43.8569   3
   6  -6   1-38.0666 47.1351   3
   6  -6   2 223.081 50.6445   3
   6  -6   3 900.180 63.0098   3
   6  -5  -8 177.998 40.5230   3
   6  -5  -7 33.3899 41.6665   3
   6  -5  -6 2141.01 81.7959   3
   6  -5  -5 478.892 57.0330   3
   6  -5  -4 84.3606 51.6036   3
   6  -5  -3 215.978 49.6995   3
   6  -5  -2 1231.52 64.9048   3
   6  -5  -1 818.640 61.1802   3
   6  -5   0 476.031 50.3832   3
   6  -5   1 430.827 52.4455   3
   6  -5   2 100.511 43.7356   3
   6  -5   3 136.561 44.6255   3
   6  -5   4 1421.48 60.8803   3
   6  -4 -10-43.1964 27.6890   3
   6  -4  -9 1.19116 36.2206   3
   6  -4  -8 246.211 50.9400   3
   6  -4  -7 187.984 49.5576   3
   6  -4  -6 82.3135 50.6130   3
   6  -4  -5 1924.65 72.9119   3
   6  -4  -4 63.0377 50.3542   3
   6  -4  -3 84.9321 45.2730   3
   6  -4  -2 741.751 55.1157   3
   6  -4  -1 322.294 49.1276   3
   6  -4   0 36.1777 46.0561   3
   6  -4   1 14.8828 40.9208   3
   6  -4   2 137.581 37.8724   3
   6  -4   3 1485.78 60.8734   3
   6  -4   4 1011.14 55.2411   3
  -6   4  -5-65.6975 46.9107   2
  -6   4  -6 481.221 53.3350   2
   6  -3 -10-4.95886 26.2469   3
   6  -3  -9 5.41550 41.2131   3
   6  -3  -8 161.438 42.9553   3
   6  -3  -7 5.31514 40.0748   3
   6  -3  -6 1715.31 68.7283   3
   6  -3  -5 673.160 57.2672   3
   6  -3  -4 2295.15 74.7513   3
   6  -3  -3 3819.23 90.1747   3
   6  -3  -2 7698.54 118.208   3
   6  -3  -1 1583.16 65.6068   3
   6  -3   0 642.151 48.2765   3
   6  -3   1 581.653 49.9832   3
   6  -3   2 1636.84 62.8850   3
   6  -3   3 53.3205 36.6683   3
   6  -3   4 789.854 47.1872   3
  -6   3  -5 276.206 44.9887   2
  -6   3  -6 1293.77 62.9794   2
  -6   3  -7 266.010 50.3090   2
  -6   3  -8 126.248 47.2367   2
   6  -2 -10 52.0490 37.6938   3
   6  -2  -9 26.7896 34.8474   3
   6  -2  -8 971.291 55.6688   3
   6  -2  -7 1233.82 60.6801   3
   6  -2  -6 190.468 48.6581   3
   6  -2  -5 2791.35 79.6108   3
   6  -2  -4 109.478 44.4213   3
   6  -2  -3 1983.90 70.6428   3
   6  -2  -2 1104.09 62.4814   3
   6  -2  -1 5283.12 97.7765   3
   6  -2   0 423.364 45.5462   3
   6  -2   1 290.251 43.1678   3
   6  -2   2 322.450 42.7385   3
   6  -2   3 922.216 49.9302   3
   6  -2   4 114.173 33.6766   3
  -6   2  -5 187.433 40.2581   2
  -6   2  -6 1695.49 66.2447   2
  -6   2  -7 1537.84 66.8198   2
  -6   2  -8 278.176 45.4831   2
  -6   2  -9 79.5884 45.7326   2
   6  -1 -11 651.946 55.2198   4
   6  -1 -10 707.746 59.5256   4
   6  -1  -9 39.5646 43.8220   4
   6  -1  -9 99.0547 38.9123   3
   6  -1  -8 529.760 53.3183   3
   6  -1  -7 411.228 48.4560   3
   6  -1  -6 936.092 54.9564   3
   6  -1  -5 2726.83 76.0197   3
   6  -1  -4 147.572 42.7119   3
   6  -1  -3 3077.11 80.0398   3
   6  -1  -2 12072.5 137.256   3
   6  -1  -1 370.851 50.4094   3
   6  -1   0 7861.26 110.654   3
   6  -1   1 5298.81 91.9781   3
   6  -1   2 6247.60 97.0294   3
   6  -1   3 717.025 43.9279   3
  -6   1  -4 2304.39 69.2782   2
   6  -1   4 2386.36 64.2289   3
  -6   1  -5 84.4935 39.5770   2
  -6   1  -6 2436.95 71.4448   2
  -6   1  -7 72.5370 37.7656   2
  -6   1  -8 107.130 41.9253   2
  -6   1  -9 1417.03 62.1933   2
  -6   1 -10 1567.81 71.0417   2
   6   0 -11 676.740 65.1219   4
   6   0 -10 313.811 49.9614   4
   6   0  -9 19.2106 42.3827   4
   6   0  -9-23.0054 39.9779   3
   6   0  -8 25.4149 38.0525   3
   6   0  -7 2424.42 73.1929   3
   6   0  -6 6.17571 40.5539   3
   6   0  -5 323.897 44.3443   3
   6   0  -4 2112.49 68.2765   3
   6   0  -3 7276.92 108.375   3
   6   0  -2 27.0175 39.0433   3
   6   0  -1 1536.50 59.5302   3
   6   0   0 7544.11 104.691   3
   6   0   1 65.2356 37.6757   3
   6   0   2 215.367 39.2347   3
   6   0   3 1244.39 49.8788   3
  -6   0  -4 578.619 46.0927   2
   6   0   4 680.521 40.8404   3
  -6   0  -5-19.4471 39.3810   2
   6   0   5 62.2213 30.8004   3
  -6   0  -6 218.829 37.5903   2
  -6   0  -7 4460.36 87.2519   2
  -6   0  -8 905.376 52.8110   2
  -6   0  -9 88.7570 36.0696   2
  -6   0 -10 59.9038 41.9510   2
  -6   0 -11 2024.59 75.2243   2
   6   1 -11 1487.82 78.5413   4
   6   1 -10 926.926 62.9352   4
   6   1  -9 137.639 52.9776   4
   6   1  -9 117.051 34.7077   3
   6   1  -8 586.329 55.8254   4
   6   1  -8 707.381 49.4912   3
   6   1  -7 394.748 48.9080   3
   6   1  -6 246.644 42.5478   3
   6   1  -5 26.2517 38.7051   3
   6   1  -4 143.928 38.7579   3
   6   1  -3 164.662 43.7372   3
   6   1  -2 2769.52 74.6507   3
   6   1  -1 424.734 47.1213   3
   6   1   0 23227.0 177.787   3
   6   1   1 9984.03 119.049   3
   6   1   2 1217.51 54.1373   3
  -6  -1  -3 2966.59 68.3687   2
   6   1   3 3030.21 69.5680   3
  -6  -1  -4 6591.92 95.4770   2
   6   1   4 6742.22 95.0830   3
  -6  -1  -5 1665.07 57.1728   2
   6   1   5 1826.66 55.6820   3
  -6  -1  -6 8516.36 110.258   2
  -6  -1  -7 725.265 47.3221   2
  -6  -1  -8 206.714 38.2851   2
  -6  -1  -9-22.6725 35.2917   2
  -6  -1 -10 2795.59 76.3304   2
  -6  -1 -11 342.507 52.7303   2
   6   2 -10 220.032 51.4102   4
   6   2  -9 258.879 54.2788   4
   6   2  -9 171.317 33.2692   3
   6   2  -8 72.8263 48.8120   4
   6   2  -8 146.890 40.1339   3
   6   2  -7 1773.61 61.6309   3
   6   2  -6 442.824 44.0686   3
   6   2  -5 1243.65 52.3654   3
   6   2  -4 546.646 45.3701   3
   6   2  -3 4581.17 85.7569   3
   6   2  -2 1380.28 59.9925   3
   6   2  -1 6681.67 99.3398   3
   6   2   0 51.4151 41.7200   3
   6   2   1 10560.5 120.618   3
  -6  -2  -2 5010.00 78.0784   2
   6   2   2 5030.83 84.9451   3
  -6  -2  -3 1628.12 51.5462   2
   6   2   3 1898.61 57.6709   3
  -6  -2  -4 990.965 44.3018   2
   6   2   4 933.953 45.4170   3
  -6  -2  -5 2739.16 66.0763   2
   6   2   5 2667.70 61.0119   3
  -6  -2  -6-19.1445 30.9040   2
  -6  -2  -7 3715.11 77.8282   2
  -6  -2  -8 129.284 33.4820   2
  -6  -2  -9 2789.85 70.4089   2
  -6  -2 -10 28.9587 39.4144   2
  -6  -2 -11 2517.69 77.5191   2
   6   2  11 2292.53 63.2554   0
  -6  -2 -12 88.9481 43.6097   2
   6   3 -10 489.211 61.0903   4
   6   3  -9 250.263 54.9783   4
   6   3  -9 119.367 35.1659   3
   6   3  -8 2258.87 64.3697   3
   6   3  -7 1915.99 62.0562   3
   6   3  -6 78.9604 36.2023   3
   6   3  -5 41.6373 32.3830   3
   6   3  -4 2875.16 68.4089   3
   6   3  -3 90.2609 25.8193   0
   6   3  -3 163.171 39.6364   3
   6   3  -2 1856.18 49.6046   0
   6   3  -2 2003.57 63.1907   3
   6   3  -1 2475.31 55.5363   0
   6   3  -1 2721.59 67.3210   3
   6   3   0 4654.96 81.0197   3
   6   3   1 3590.11 73.9656   3
  -6  -3  -2 439.506 30.0347   2
   6   3   2 383.724 39.5701   3
  -6  -3  -3 203.173 29.0546   2
   6   3   3 206.061 33.6316   3
  -6  -3  -4 14151.1 122.449   2
   6   3   4 13313.0 119.829   3
  -6  -3  -5 2695.28 60.3593   2
   6   3   5 2580.50 58.0412   3
  -6  -3  -6 3396.81 68.4987   2
  -6  -3  -7 824.774 43.6747   2
   6   3   7 828.022 44.0270   0
  -6  -3  -8 12.0786 34.2346   2
  -6  -3  -9 431.585 46.5887   2
   6   3   9 327.587 41.4033   0
  -6  -3 -10 2702.06 76.2165   2
   6   3  10 2468.04 64.4274   0
   6   3  11 120.161 33.5873   0
  -6  -3 -11 247.241 45.2840   2
  -6  -3 -12 51.1823 41.1238   2
   6   4  -9 12.0506 46.4358   4
   6   4  -9-1.00433 30.3903   3
   6   4  -8 636.318 46.8606   3
   6   4  -7 978.745 51.6068   3
   6   4  -6 1202.48 53.7408   3
   6   4  -5 1557.37 59.4146   3
   6   4  -4 1049.56 48.4692   3
   6   4  -3 194.199 26.0755   0
   6   4  -3 369.162 37.8469   3
   6   4  -2 4560.91 67.2177   0
   6   4  -2 4317.62 78.8805   3
   6   4  -1 458.954 33.4572   0
   6   4  -1 488.940 41.3454   3
   6   4   0 20.3152 29.5179   0
   6   4   0 34.1366 34.2576   3
   6   4   1 4411.27 70.6235   0
   6   4   1 4440.48 78.4094   3
   6   4   2 3341.36 64.9183   0
   6   4   2 3606.40 69.4123   3
   6   4   3 2403.40 57.6507   0
   6   4   3 2388.40 56.5612   3
  -6  -4  -4 264.280 27.3506   2
   6   4   4 232.027 35.7346   0
   6   4   4 205.684 31.3299   3
  -6  -4  -5 1409.12 46.3714   2
   6   4   5 1548.41 51.1432   0
   6   4   5 1492.58 46.1446   3
  -6  -4  -6 1392.05 46.2224   2
   6   4   6 1399.11 49.6980   0
  -6  -4  -7 1354.43 49.7368   2
   6   4   7 1348.27 50.1807   0
  -6  -4  -8 3393.79 73.1303   2
   6   4   8 3438.63 70.7670   0
  -6  -4  -9 1089.34 54.2177   2
   6   4   9 1079.34 47.4742   0
  -6  -4 -10 463.420 44.1949   2
   6   4  10 445.135 43.0978   0
   6   4  11 73.5248 34.3952   0
  -6  -4 -11 99.1116 45.4426   2
  -6  -4 -12 214.436 47.2228   2
   6   5  -9-61.5192 28.2061   3
   6   5  -8 999.214 52.5399   3
   6   5  -7 347.076 42.6109   3
   6   5  -6 333.589 39.3646   3
   6   5  -5 189.729 43.8880   3
   6   5  -4 826.075 49.0914   3
   6   5  -3 1038.62 49.5272   3
   6   5  -2 70.8739 27.8127   0
   6   5  -2 30.6358 35.7135   3
   6   5  -1 291.590 30.1905   0
   6   5  -1 93.2911 35.3804   3
   6   5   0 2650.64 55.4220   0
   6   5   0 2707.12 63.9647   3
   6   5   1 976.720 40.9607   0
   6   5   1 1147.29 48.5363   3
   6   5   2 64.9199 31.5385   0
   6   5   2 100.225 35.3572   3
   6   5   3 1086.51 45.1652   0
   6   5   3 1134.26 45.2308   3
   6   5   4 1189.32 47.2493   0
   6   5   4 1331.98 44.2243   3
   6   5   5 20.5029 31.9354   0
   6   5   5 18.2690 24.3147   3
   6   5   6 1391.62 49.8870   0
  -6  -5  -7 281.195 34.1867   2
   6   5   7 348.103 38.0521   0
  -6  -5  -8 3079.33 68.1386   2
   6   5   8 3270.90 70.2892   0
   6   5   9 34.2977 36.6338   0
  -6  -5  -9 49.3529 33.4407   2
  -6  -5 -10 1246.88 58.3589   2
   6   5  10 1424.30 54.4325   0
  -6  -5 -11 1273.51 59.8893   2
   6   5  11 1254.63 48.4582   0
  -6  -5 -12 404.489 46.8883   2
   6   5  12 484.002 43.5203   0
  -6  -5 -13 35.3886 40.4489   2
   6   6  -8 724.242 43.7324   3
   6   6  -7 250.369 41.1466   3
   6   6  -6 39.0789 32.9946   3
   6   6  -5 2771.14 68.3152   3
   6   6  -4 7985.75 103.041   3
   6   6  -3 1340.86 53.3633   3
   6   6  -2 565.798 32.9730   0
   6   6  -2 577.626 42.0472   3
   6   6  -1-8.61820 26.3580   0
   6   6  -1 14.2218 32.7415   3
   6   6   0 611.572 38.4822   0
   6   6   0 763.849 43.2097   3
   6   6   1 525.219 36.2727   0
   6   6   1 550.386 40.2924   3
   6   6   2 2167.41 52.2243   0
   6   6   2 1840.52 53.1481   3
   6   6   3 3386.65 64.1199   0
   6   6   3 3426.63 64.8716   3
   6   6   4 1662.70 51.1217   0
   6   6   4 1458.94 47.7588   3
   6   6   5 306.435 34.3762   0
   6   6   5 296.759 29.8607   3
   6   6   6 537.540 38.2376   0
   6   6   7 679.498 41.5193   0
   6   6   8 47.0059 32.1446   0
  -6  -6  -9 2652.07 66.3794   2
   6   6   9 2650.80 61.7598   0
  -6  -6 -10 735.445 49.4930   2
   6   6  10 601.497 43.3105   0
  -6  -6 -11 318.824 43.1351   2
   6   6  11 272.052 38.4783   0
  -6  -6 -12 127.917 40.6876   2
   6   6  12 125.780 43.1828   0
  -6  -6 -13 1036.44 58.6983   2
   6   7  -8 305.560 30.3052   3
   6   7  -7 928.665 49.2935   3
   6   7  -6 511.815 43.2230   3
   6   7  -5 688.082 46.8246   3
   6   7  -4 130.297 39.8638   3
   6   7  -3 884.479 47.1339   3
   6   7  -2 3.67597 27.5970   0
   6   7  -2 12.5511 31.4237   3
   6   7  -1 3.33771 26.5821   0
   6   7  -1 3.46954 32.6736   3
   6   7   0 19.6381 28.2668   0
   6   7   0 33.9433 31.1897   3
   6   7   1 927.883 43.7689   0
   6   7   1 928.540 43.1314   3
   6   7   2 75.9470 33.8984   0
   6   7   2 110.356 32.3496   3
   6   7   3 74.8469 34.6495   0
   6   7   3 152.087 30.2174   3
   6   7   4 1666.79 51.1280   0
   6   7   4 1761.91 48.4815   3
   6   7   5 671.679 40.9217   0
   6   7   5 641.414 33.9112   3
   6   7   6 79.6295 33.1355   0
   6   7   6 123.524 26.7639   3
   6   7   7 611.358 42.2046   0
   6   7   8 462.156 40.1948   0
   6   7   9 551.257 44.3744   0
   6   7  10 592.889 43.6210   0
   6   7  11 2511.00 64.6173   0
  -6  -7 -12 230.998 49.7309   2
   6   7  12 174.457 43.1126   0
  -6  -7 -13 1096.13 62.0769   2
   6   8  -7 138.131 32.2258   3
   6   8  -6 3.56261 35.8738   3
   6   8  -5 402.604 37.9334   3
   6   8  -4 2341.56 61.9413   3
   6   8  -3 426.610 41.2058   3
   6   8  -2 62.4668 35.8050   3
   6   8  -1 1430.27 52.0019   3
   6   8  -1 1203.23 42.2612   0
   6   8   0 4194.94 74.4755   3
   6   8   0 4241.61 66.5166   0
   6   8   1 1225.76 47.3850   3
   6   8   1 1158.04 43.7519   0
   6   8   2 513.260 39.1671   3
   6   8   2 395.075 36.7313   0
   6   8   3 41.6834 32.3164   0
   6   8   3 108.515 29.7564   3
   6   8   4 26.6297 30.0652   0
   6   8   4 44.3067 27.2117   3
   6   8   5-18.5224 32.3899   0
   6   8   5 24.9149 25.6082   3
   6   8   6 84.7189 28.6045   3
   6   8   6 106.933 32.3027   0
   6   8   7 622.286 40.0753   0
   6   8   8 149.091 37.5821   0
   6   8   9 909.055 49.2464   0
   6   8  10 1348.86 55.1897   0
   6   8  11 137.942 40.0504   0
   6   8  12 75.3992 41.3554   0
   6   9  -5 302.638 42.6422   3
   6   9  -4-5.59370 38.4840   3
   6   9  -3-23.4210 36.8105   3
   6   9  -2 0.88850 34.1477   3
   6   9  -1 52.3111 28.3530   0
   6   9  -1 27.4277 37.1977   3
   6   9   0 1072.63 40.7900   0
   6   9   0 998.970 52.8553   3
   6   9   1 175.083 31.5908   0
   6   9   1 44.2609 39.4110   3
   6   9   2 192.083 36.6381   3
   6   9   2 347.466 33.1408   0
   6   9   3 92.7169 33.2023   0
   6   9   3-26.0417 35.7309   3
   6   9   4 1039.47 47.5424   3
   6   9   4 1009.88 44.8475   0
   6   9   5 679.872 41.6348   3
   6   9   5 710.036 39.8286   0
   6   9   6 118.816 34.2749   0
   6   9   6 121.967 28.6512   3
   6   9   7 50.8713 37.8504   0
   6   9   8-40.1023 37.0538   0
   6   9   9 589.377 41.9537   0
   6   9  10 105.320 42.2322   0
   6   9  11 591.909 44.6173   0
   6  10  -2 413.227 45.4620   3
   6  10  -1 781.172 46.7341   3
   6  10   0 2864.41 59.7263   0
   6  10   0 2979.38 69.5781   3
   6  10   1 360.237 35.1003   0
   6  10   1 385.925 41.2160   3
   6  10   2 1392.47 48.2112   0
   6  10   2 1340.79 55.7567   3
   6  10   3 2017.95 54.4196   0
   6  10   3 1833.03 55.8972   3
   6  10   4 1538.12 50.6617   0
   6  10   4 1512.71 52.4663   3
   6  10   5 1412.08 49.9373   0
   6  10   5 1291.77 47.8723   3
   6  10   6 617.979 39.0960   0
   6  10   6 605.485 39.1222   3
   6  10   7 32.5184 33.5903   0
   6  10   8 36.1757 36.1400   0
   6  10   9 112.966 34.1550   0
   6  11   0 139.606 35.0741   0
   6  11   1 115.170 38.4724   0
   6  11   2 614.554 40.2446   0
   6  11   2 705.080 48.5844   3
   6  11   3 146.779 40.1634   0
   6  11   3 173.202 35.3017   3
   6  11   4 143.043 40.6634   0
   6  11   4 97.9075 37.2931   3
   6  11   5 847.764 46.9347   0
   6  11   5 792.412 45.5888   3
   6  11   6 157.581 30.9575   3
   7  -4  -1 226.215 46.6874   3
   7  -4   0 309.763 54.6973   3
   7  -4   1 887.873 61.1589   3
   7  -4   2 225.189 48.7447   3
   7  -4   3 79.8023 46.4911   3
   7  -3  -5 7.14700 44.1696   3
   7  -3  -4 709.959 59.4530   3
   7  -3  -3 173.350 52.6983   3
   7  -3  -2 564.754 56.1137   3
   7  -3  -1 68.4504 42.8279   3
   7  -3   0 3400.46 93.4805   3
   7  -3   1 712.852 57.6444   3
   7  -3   2 191.006 43.8108   3
   7  -3   3 73.0970 42.9887   3
   7  -2  -7 342.114 46.9672   3
   7  -2  -6 754.194 63.2260   3
   7  -2  -5 1018.20 63.0264   3
   7  -2  -4 1213.29 69.0562   3
   7  -2  -3 1310.97 68.9874   3
   7  -2  -2-18.9462 47.9013   3
   7  -2  -1 1407.55 69.4764   3
   7  -2   0 412.654 49.8418   3
   7  -2   1 326.894 48.4903   3
   7  -2   2-4.16683 40.8046   3
   7  -2   3 94.9808 39.1007   3
  -7   2  -4 18.9668 38.6319   2
   7  -2   4 48.8523 38.3452   3
  -7   2  -5 629.563 55.9755   2
   7  -1  -8 252.859 47.7767   3
   7  -1  -7 435.691 57.6996   3
   7  -1  -6 247.614 55.8923   3
   7  -1  -5 368.289 50.9694   3
   7  -1  -4 1829.25 73.9407   3
   7  -1  -3 1568.61 69.4253   3
   7  -1  -2-15.9696 46.8689   3
   7  -1  -1 14.5663 44.8936   3
   7  -1   0 3237.90 84.0457   3
   7  -1   1 363.231 45.6783   3
   7  -1   2-21.8600 38.2558   3
   7  -1   3-16.7227 34.8558   3
  -7   1  -4 1209.83 59.9878   2
   7  -1   4 1082.95 54.4526   3
  -7   1  -5-28.7783 41.8321   2
  -7   1  -6 729.522 51.9429   2
  -7   1  -7 118.611 46.7232   2
   7   0  -9 984.880 56.6212   3
   7   0  -8 916.413 64.0553   3
   7   0  -7 4.41817 45.6664   3
   7   0  -6 317.181 47.9700   3
   7   0  -5 2587.62 84.2825   3
   7   0  -4 240.696 50.7306   3
   7   0  -3 507.474 53.8604   3
   7   0  -2 604.376 53.1705   3
   7   0  -1 2235.52 73.0755   3
   7   0   0 2248.51 72.7143   3
   7   0   1 3182.82 81.5897   3
   7   0   2 53.0678 36.9910   3
  -7   0  -3 1053.48 54.6543   2
   7   0   3 1057.28 53.8740   3
  -7   0  -4 241.043 36.5137   2
   7   0   4 342.362 40.5268   3
  -7   0  -5 541.872 47.0478   2
  -7   0  -6 108.931 40.9891   2
  -7   0  -7 1276.12 59.3923   2
  -7   0  -8 421.085 49.2726   2
   7   1  -9 562.086 49.8928   3
   7   1  -8 245.505 54.5359   3
   7   1  -7 453.175 51.7066   3
   7   1  -6 350.760 47.1185   3
   7   1  -5 85.4267 49.1617   3
   7   1  -4 430.881 53.5105   3
   7   1  -3 4730.85 99.9254   3
   7   1  -2 299.365 49.3508   3
   7   1  -1-8.42490 41.8252   3
   7   1   0 1510.79 66.0660   3
   7   1   1 779.736 54.9174   3
  -7  -1  -2 610.124 45.6284   2
   7   1   2 667.302 53.9484   3
  -7  -1  -3 162.730 34.3787   2
   7   1   3 185.169 45.8579   3
  -7  -1  -4 1125.81 53.0053   2
   7   1   4 1141.97 53.9433   3
  -7  -1  -5 45.9850 36.0130   2
  -7  -1  -6 63.7017 33.3874   2
  -7  -1  -7 422.566 43.5872   2
  -7  -1  -8 2560.94 76.9231   2
  -7  -1  -9-16.2287 42.0457   2
   7   2  -9 349.140 43.2235   3
   7   2  -8 827.585 58.3395   3
   7   2  -7 29.8856 40.7686   3
   7   2  -6 43.8555 38.6963   3
   7   2  -5 152.119 48.2090   3
   7   2  -4 844.660 57.6161   3
   7   2  -3 4218.96 91.3476   3
   7   2  -2 2454.10 75.1470   3
   7   2  -1 120.062 45.3455   3
   7   2   0 948.234 54.1138   3
   7   2   1 634.452 51.1969   3
  -7  -2  -2 823.062 47.5812   2
   7   2   2 901.331 54.5736   3
  -7  -2  -3 8303.28 108.956   2
   7   2   3 8307.13 113.485   3
  -7  -2  -4 343.511 38.7884   2
   7   2   4 310.089 43.9429   3
  -7  -2  -5 228.895 36.5703   2
  -7  -2  -6 1268.08 54.3848   2
  -7  -2  -7 1956.26 62.7218   2
  -7  -2  -8 36.3226 31.1116   2
  -7  -2  -9 5.86408 33.8494   2
  -7  -2 -10 326.590 43.9996   2
   7   3  -9 216.765 36.0291   3
   7   3  -8 69.6355 37.8662   3
   7   3  -7-28.1989 34.9624   3
   7   3  -6 1194.59 58.6535   3
   7   3  -5 402.438 44.3473   3
   7   3  -4 602.051 53.7561   3
   7   3  -3 10.4706 45.7651   3
   7   3  -2 479.152 36.9179   0
   7   3  -2 639.193 53.1567   3
   7   3  -1 2963.59 63.9117   0
   7   3  -1 2946.77 75.1889   3
   7   3   0 2193.47 67.9151   3
   7   3   1 3290.24 77.3731   3
   7   3   2 740.324 49.0689   3
   7   3   3 851.122 52.0058   3
  -7  -3  -4 1290.15 51.2560   2
   7   3   4 1441.05 55.0987   3
  -7  -3  -5 923.208 46.0596   2
   7   3   5 959.064 45.0441   3
  -7  -3  -6 471.215 38.7173   2
   7   3   7 59.7388 43.1421   0
  -7  -3  -7 211.578 33.6773   2
  -7  -3  -8 2469.36 67.1986   2
   7   3   8 2354.87 72.9756   0
  -7  -3  -9 833.760 51.1926   2
   7   3   9 635.167 51.4585   0
   7   3  10-34.9335 36.0789   0
  -7  -3 -10 61.1613 44.2523   2
   7   3  11 646.100 53.3400   0
   7   4  -8 396.755 42.4922   3
   7   4  -7 350.873 51.8279   3
   7   4  -6 468.747 49.7276   3
   7   4  -5 242.154 47.2656   3
   7   4  -4 2105.07 67.2688   3
   7   4  -3 11.9409 40.7100   3
   7   4  -2 1618.99 50.9269   0
   7   4  -2 1575.68 62.7793   3
   7   4  -1 57.0177 32.6371   0
   7   4  -1 54.8266 39.3452   3
   7   4   0-48.6054 30.0507   0
   7   4   0 68.9532 37.3533   3
   7   4   1 1573.62 52.9417   0
   7   4   1 1643.59 57.8014   3
   7   4   2 128.523 36.8992   0
   7   4   2 263.873 36.5219   3
   7   4   3 2661.56 67.0267   0
   7   4   3 2803.20 70.1865   3
   7   4   4 1102.44 50.9797   0
   7   4   4 1178.47 50.3187   3
   7   4   5-77.3531 37.5014   0
   7   4   5 67.7312 29.2191   3
  -7  -4  -6 1831.40 57.3315   2
   7   4   6 1928.34 61.2173   0
  -7  -4  -7 929.247 45.0879   2
   7   4   7 778.794 51.3034   0
  -7  -4  -8 1228.53 55.7304   2
   7   4   8 1152.01 57.7074   0
   7   4   9 78.7414 43.1622   0
  -7  -4  -9 107.854 45.1480   2
  -7  -4 -10 1389.93 61.4491   2
   7   4  10 1537.08 62.8567   0
   7   4  11 320.143 41.0905   0
   7   5  -7-20.5011 37.0688   3
   7   5  -6 605.278 54.0935   3
   7   5  -5 1028.87 53.7324   3
   7   5  -4 43.6960 40.3709   3
   7   5  -3 21.4845 38.0427   3
   7   5  -2 387.564 36.3274   0
   7   5  -2 326.679 42.0517   3
   7   5  -1 1687.01 49.7875   0
   7   5  -1 1917.47 65.1889   3
   7   5   0-13.0825 33.4391   0
   7   5   0-5.40008 34.6327   3
   7   5   1 654.029 44.2391   0
   7   5   1 674.296 44.9437   3
   7   5   2 52.7205 35.6727   0
   7   5   2 24.3937 33.1519   3
   7   5   3 2061.83 59.4928   0
   7   5   3 2307.07 66.4800   3
   7   5   4 2116.21 60.9693   0
   7   5   4 2204.97 60.1991   3
   7   5   5 2544.04 65.1847   0
   7   5   5 2627.97 62.4958   3
   7   5   6 23.6105 33.3107   0
   7   5   7 418.599 46.6315   0
   7   5   8 77.4723 43.2392   0
  -7  -5  -9 1448.74 62.3137   2
   7   5   9 1405.64 57.1982   0
  -7  -5 -10 470.249 44.9033   2
   7   5  10 394.330 43.4933   0
  -7  -5 -11 493.843 57.1818   2
   7   5  11 483.514 49.2445   0
   7   6  -6 872.220 55.4204   3
   7   6  -5-15.1741 44.7114   3
   7   6  -4 0.60226 38.4812   3
   7   6  -3-28.7405 39.1079   3
   7   6  -2 346.452 43.5598   3
   7   6  -1 189.275 37.6960   0
   7   6  -1 254.536 40.8591   3
   7   6   0 1219.96 45.4081   0
   7   6   0 1136.08 50.8047   3
   7   6   1 57.3241 32.0100   0
   7   6   1 18.9937 32.8105   3
   7   6   2 96.8753 33.5239   0
   7   6   2 48.4831 32.1167   3
   7   6   3 320.454 35.4916   0
   7   6   3 313.588 38.5576   3
   7   6   4 65.1076 37.4247   0
   7   6   4-14.7600 29.3159   3
   7   6   5 1430.52 55.3678   0
   7   6   5 1291.77 48.1629   3
   7   6   6 116.719 38.8542   0
   7   6   7 167.042 39.2368   0
   7   6   8 2224.54 66.7420   0
   7   6   9 82.9528 37.1944   0
   7   6  10 80.7968 36.1592   0
   7   7  -5 464.523 44.7061   3
   7   7  -4 13.0921 35.8271   3
   7   7  -3 42.7039 32.3845   3
   7   7  -2 37.4175 38.8235   3
   7   7  -1 1343.70 47.1913   0
   7   7  -1 1422.55 56.6072   3
   7   7   0 66.5015 31.9516   0
   7   7   0 50.2052 40.5142   3
   7   7   1 110.278 33.2371   0
   7   7   1 94.3662 38.0526   3
   7   7   2-48.5202 32.4179   0
   7   7   2-48.0052 32.6516   3
   7   7   3 388.523 37.9352   0
   7   7   3 491.850 39.6363   3
   7   7   4 56.3414 38.6079   0
   7   7   4 95.6404 29.9977   3
   7   7   5-28.5511 35.3904   0
   7   7   5 44.8078 28.0409   3
   7   7   6 691.924 45.7882   0
   7   7   7 511.090 43.7784   0
   7   7   8-11.6541 45.2376   0
   7   7   9 846.799 49.7689   0
   7   8  -3 96.2218 38.5324   3
   7   8  -2 168.718 39.0374   3
   7   8  -1 385.510 42.6029   3
   7   8   0 615.680 42.8939   3
   7   8   0 586.306 41.5665   0
   7   8   1-2.03685 30.1446   0
   7   8   1 36.3929 32.1974   3
   7   8   2 356.679 38.3864   3
   7   8   2 349.464 38.7882   0
   7   8   3 121.000 36.9145   0
   7   8   3 149.583 34.4640   3
   7   8   4 1150.07 48.4630   0
   7   8   4 1335.90 50.7176   3
   7   8   5 47.0743 38.5200   0
   7   8   5 113.713 34.3333   3
   7   8   6 188.056 40.3786   0
   7   8   7 196.636 43.3481   0
   7   8   8 2461.52 70.7872   0
   7   9   0 439.622 45.4560   3
   7   9   0 397.353 37.9563   0
   7   9   1 32.2958 34.2794   0
   7   9   1 110.276 38.8557   3
   7   9   2-16.8736 33.8545   0
   7   9   2 5.45263 35.7184   3
   7   9   3 391.528 37.5126   3
   7   9   3 369.299 41.4028   0
   7   9   4 31.3995 36.9204   0
   7   9   4-0.07387 31.8209   3
   7   9   5-26.3890 32.1599   0
   7   9   5-20.6984 30.5349   3
   7   9   6 169.748 42.5900   0
   7  10   0 285.453 31.4436   0
   7  10   1 111.250 35.1715   0
   7  10   2 344.363 35.7575   0
   7  10   3 119.031 36.7248   0
   7  10   3 29.0549 37.4174   3
   7  10   4 343.816 37.6136   3
   7  10   5 48.7607 32.0418   3
   8  -1   1 2.41945 38.5895   3
   8  -1   2 773.864 53.6763   3
   8  -1   3 147.226 46.1634   3
   8   0  -2 908.326 67.2712   3
   8   0  -1 71.8972 53.4490   3
   8   0   0 63.7851 48.8151   3
   8   0   1 340.522 49.3112   3
  -8   0  -2 39.2617 38.6524   2
   8   0   2 130.457 45.3138   3
  -8   0  -3 390.831 45.3279   2
   8   0   3 489.433 54.3124   3
  -8   0  -4 219.186 40.2255   2
   8   1  -3 436.871 59.7462   3
   8   1  -2 866.426 67.5296   3
   8   1  -1 469.816 52.7912   3
   8   1   0-90.5946 50.9265   3
   8   1   1 120.330 46.4638   3
  -8  -1  -2 352.173 41.3436   2
   8   1   2 303.846 50.1567   3
  -8  -1  -3 84.3420 34.2418   2
   8   1   3 58.0803 47.0997   3
  -8  -1  -4 615.948 46.6786   2
   8   1   4 532.766 48.8442   3
  -8  -1  -5 904.664 51.8164   2
   8   2  -3 130.794 49.8195   3
   8   2  -2 706.844 55.4518   3
   8   2  -1 42.7940 49.6068   3
   8   2   0 369.912 46.7428   3
   8   2   1 262.496 47.2075   3
   8   2   2 313.772 47.1141   3
   8   2   3 42.9161 38.5765   3
  -8  -2  -4 928.414 54.9892   2
   8   2   4 900.311 58.0308   3
  -8  -2  -5 829.922 54.0871   2
  -8  -2  -6 203.942 43.9088   2
   8   3  -3 504.918 54.8635   3
   8   3  -2 34.1869 44.0599   3
   8   3  -1-64.5788 32.0539   0
   8   3  -1 8.58487 41.0230   3
   8   3   0 1342.71 55.6735   0
   8   3   0 1592.96 64.9411   3
   8   3   1 314.714 47.7607   0
   8   3   1 490.230 50.7772   3
   8   3   2 35.5396 38.3721   0
   8   3   2 159.650 46.0416   3
   8   3   3 1434.18 58.8265   3
   8   3   4 547.483 49.8153   3
   8   3   5-81.7183 43.8347   0
  -8  -3  -7 1179.64 55.6738   2
   8   4  -3 655.708 54.6517   3
   8   4  -2 1470.79 65.4996   3
   8   4  -1-50.2137 37.6673   0
   8   4  -1-26.5529 37.6619   3
   8   4   0 19.5422 39.6461   3
   8   4   1 458.194 47.1929   0
   8   4   1 546.067 49.5124   3
   8   4   2 1526.69 60.2484   0
   8   4   2 1869.67 66.2336   3
   8   4   3-61.2023 37.0489   0
   8   4   3-23.1797 34.9815   3
   8   4   4 96.8491 38.6928   0
   8   4   4 112.398 40.0507   3
   8   4   5 343.714 43.2355   0
   8   4   6 1495.36 65.6481   0
   8   5  -2 100.277 46.0039   3
   8   5  -1 165.104 38.1682   0
   8   5  -1 153.857 46.4294   3
   8   5   0 95.8619 35.8970   0
   8   5   0 96.4040 40.2121   3
   8   5   1 495.925 47.2044   0
   8   5   1 525.307 50.0790   3
   8   5   2 134.433 45.1038   0
   8   5   2 140.906 40.0605   3
   8   5   3 1224.98 54.9005   0
   8   5   3 1290.67 58.6800   3
   8   5   4 97.2290 40.3189   0
   8   5   4 113.525 39.0213   3
   8   5   5 828.246 53.8827   0
   8   6  -1 343.852 48.4537   3
   8   6   0 214.495 35.1559   0
   8   6   0 189.203 39.6371   3
   8   6   1 1036.22 51.6712   0
   8   6   1 853.557 50.5454   3
   8   6   2 2763.28 68.6863   0
   8   6   2 2657.50 71.7414   3
   8   6   3 317.421 44.9750   0
   8   6   3 242.559 46.0968   3
   8   6   4 139.791 36.9829   0
   8   6   4 72.0053 34.5513   3
   8   6   5 51.7144 40.8503   0
   8   7   0 379.767 43.5684   0
   8   7   1-22.5082 38.9224   0
   8   7   1 4.25105 37.0807   3
   8   7   2-21.1715 40.2485   0
   8   7   2-72.5219 42.6412   3
   8   7   3 181.589 46.1354   0
   8   7   3 217.172 44.3318   3
   8   7   4-31.4986 39.9159   3
   8   8   0-22.9081 35.2228   0
   8   8   1 194.311 36.5864   0
   8   8   4 643.491 51.3806   3
;
_shelx_hkl_checksum              50901
_shelx_res_file
;
TITL GSH4 P-1
CELL  0.71073  6.71010 10.35900 13.50000 76.04900 85.84600 74.82300
ZERR 2  0.00060  0.00100  0.00100  0.00800  0.00900  0.00800
LATT 1
SFAC C H CL N O S
UNIT 32 32 2 6 6 2
PLAN 30
FMAP 2
SHEL 14 0.8
SIZE 0.44 0.42 0.36
OMIT -1 -2 2
L.S. 14
MPLA 5 S1 N1 C7 C8 O3
MPLA 6 C1 C2 C3 C4 C5 C6
MPLA 6 C10 C11 C12 C13 C14 C15
MPLA 5 C9 N3 N2 C8 O3
BOND $H
DFIX 0.86 0.02 N1 H1N N2 H2N
HTAB N1 O3
HTAB N1 O1_$1
HTAB N2 O3_$2
HTAB C15 O2_$3
EQIV $1 -x+2, -y, -z+1
EQIV $2 -x+1, -y+1, -z+1
EQIV $3 x-1, y+1, z
CONF
ACTA
WGHT    0.051800    0.343900
FVAR       6.22232
CL1   3   -0.694510    0.569915    0.103388    11.00000    0.06515    0.15925 =
         0.07269   -0.01942   -0.02266   -0.03203
S1    6    0.785251   -0.020058    0.384591    11.00000    0.04487    0.04194 =
         0.05402   -0.01497   -0.00405   -0.01103
O1    5    0.930229   -0.120171    0.454358    11.00000    0.05958    0.04849 =
         0.06895   -0.00709   -0.01229   -0.00825
O2    5    0.609951   -0.055347    0.354474    11.00000    0.05310    0.05714 =
         0.07543   -0.02498   -0.00359   -0.02154
O3    5    0.644510    0.335571    0.496533    11.00000    0.05019    0.05707 =
         0.07192   -0.03012   -0.01682   -0.00607
N1    4    0.697999    0.107622    0.435985    11.00000    0.04437    0.05302 =
         0.05218   -0.02256   -0.00587   -0.00932
H1N   2    0.786059    0.127206    0.463327    11.00000   -1.20000
N2    4    0.329663    0.435650    0.429519    11.00000    0.04800    0.04929 =
         0.05789   -0.02371   -0.01174   -0.00787
H2N   2    0.321932    0.507915    0.450359    11.00000   -1.20000
N3    4    0.176575    0.432333    0.368054    11.00000    0.04504    0.04995 =
         0.04727   -0.01505   -0.00780   -0.01112
C1    1    0.922013    0.034860    0.272563    11.00000    0.04422    0.04542 =
         0.05248   -0.01734   -0.00150   -0.00669
C2    1    0.835364    0.060262    0.178170    11.00000    0.05454    0.08738 =
         0.05860   -0.02405   -0.00428   -0.01499
AFIX  43
H2    2    0.707111    0.044113    0.172634    11.00000   -1.20000
AFIX   0
C3    1    0.940650    0.109851    0.092013    11.00000    0.07574    0.10489 =
         0.05165   -0.01757   -0.00428   -0.01073
AFIX  43
H3    2    0.881699    0.127226    0.028350    11.00000   -1.20000
AFIX   0
C4    1    1.131649    0.134386    0.097903    11.00000    0.06959    0.07821 =
         0.06574   -0.01284    0.01444   -0.01376
C5    1    1.213349    0.107462    0.193050    11.00000    0.05945    0.11222 =
         0.07551   -0.01743    0.00724   -0.03329
AFIX  43
H5    2    1.341355    0.123907    0.198684    11.00000   -1.20000
AFIX   0
C6    1    1.113669    0.057300    0.280055    11.00000    0.05365    0.09748 =
         0.06089   -0.01542   -0.00439   -0.02800
AFIX  43
H6    2    1.174280    0.038549    0.343468    11.00000   -1.20000
AFIX   0
C7    1    0.515547    0.214261    0.396965    11.00000    0.04541    0.04660 =
         0.04476   -0.01421   -0.00275   -0.01347
AFIX  23
H7A   2    0.393204    0.179762    0.413884    11.00000   -1.20000
H7B   2    0.525186    0.243657    0.323299    11.00000   -1.20000
AFIX   0
C8    1    0.502387    0.333135    0.445288    11.00000    0.04325    0.04759 =
         0.04312   -0.01377   -0.00312   -0.01143
C9    1    0.019783    0.535563    0.356261    11.00000    0.05002    0.04913 =
         0.05205   -0.01974   -0.00412   -0.01231
AFIX  43
H9    2    0.015088    0.606100    0.388577    11.00000   -1.20000
AFIX   0
C10   1   -0.153169    0.544255    0.292307    11.00000    0.04625    0.04551 =
         0.04599   -0.00931   -0.00422   -0.01141
C11   1   -0.145327    0.447219    0.235472    11.00000    0.05462    0.05011 =
         0.06153   -0.01836   -0.01019   -0.00554
AFIX  43
H11   2   -0.027322    0.375649    0.236920    11.00000   -1.20000
AFIX   0
C12   1   -0.310343    0.456274    0.177290    11.00000    0.06841    0.06495 =
         0.05647   -0.01894   -0.01019   -0.02052
AFIX  43
H12   2   -0.303998    0.391349    0.139324    11.00000   -1.20000
AFIX   0
C13   1   -0.485167    0.562064    0.175538    11.00000    0.05162    0.07784 =
         0.04659   -0.00408   -0.00807   -0.02186
C14   1   -0.496567    0.659014    0.229848    11.00000    0.04736    0.06782 =
         0.06323   -0.00656   -0.00501   -0.00167
AFIX  43
H14   2   -0.615040    0.730416    0.227653    11.00000   -1.20000
AFIX   0
C15   1   -0.329714    0.650198    0.288468    11.00000    0.05358    0.05116 =
         0.06081   -0.01729   -0.00078   -0.00817
AFIX  43
H15   2   -0.336798    0.716230    0.325522    11.00000   -1.20000
AFIX   0
C16   1    1.243478    0.190852    0.002720    11.00000    0.11256    0.14409 =
         0.08137   -0.00377    0.02841   -0.03767
AFIX 137
H16A  2    1.172654    0.190489   -0.056463    11.00000   -1.50000
H16B  2    1.382151    0.134663    0.002448    11.00000   -1.50000
H16C  2    1.246663    0.283271    0.001713    11.00000   -1.50000
AFIX   0
HKLF 4
REM  GSH4 P-1
REM R1 =  0.0409 for    2984 Fo > 4sig(Fo)  and  0.0512 for all    3580 data
REM    224 parameters refined using      2 restraints
END
WGHT      0.0518      0.3441
REM Highest difference peak  0.299,  deepest hole -0.348,  1-sigma level  0.050
Q1    1  -0.7327  0.6430  0.1398  11.00000  0.05    0.30
Q2    1   0.8692  0.0104  0.3220  11.00000  0.05    0.23
Q3    1   1.0697  0.1059  0.0801  11.00000  0.05    0.16
Q4    1  -0.6060  0.6060  0.0584  11.00000  0.05    0.16
Q5    1   0.9748  0.0730  0.2808  11.00000  0.05    0.16
Q6    1  -0.0696  0.5367  0.3186  11.00000  0.05    0.15
Q7    1   1.2270  0.0977  0.4204  11.00000  0.05    0.14
Q8    1   0.9936  0.0165  0.2908  11.00000  0.05    0.14
Q9    1   1.1135  0.0815  0.3925  11.00000  0.05    0.13
Q10   1  -0.0863  0.5283  0.3446  11.00000  0.05    0.13
Q11   1   1.2591  0.0208  0.1829  11.00000  0.05    0.13
Q12   1   1.1242 -0.0271  0.2761  11.00000  0.05    0.13
Q13   1   0.0204  0.2590  0.3829  11.00000  0.05    0.13
Q14   1   0.9504  0.0405 -0.0201  11.00000  0.05    0.13
Q15   1   0.7576  0.1764  0.3620  11.00000  0.05    0.13
Q16   1   0.7309 -0.0228  0.5263  11.00000  0.05    0.13
Q17   1   0.9588 -0.1783  0.5635  11.00000  0.05    0.13
Q18   1   0.0370  0.4019  0.1901  11.00000  0.05    0.13
Q19   1   0.6891 -0.0357  0.1999  11.00000  0.05    0.12
Q20   1  -0.4369  0.6324  0.2812  11.00000  0.05    0.12
Q21   1   0.8773  0.0685  0.2395  11.00000  0.05    0.12
Q22   1  -0.3314  0.5590  0.4063  11.00000  0.05    0.12
Q23   1   0.5291  0.2916  0.3962  11.00000  0.05    0.12
Q24   1  -0.0581  0.6018  0.4937  11.00000  0.05    0.12
Q25   1   1.2944  0.0882 -0.0437  11.00000  0.05    0.12
Q26   1  -0.6299  0.4801  0.1400  11.00000  0.05    0.12
Q27   1  -0.2636  0.5764  0.3130  11.00000  0.05    0.12
Q28   1  -0.6781  0.5564 -0.0040  11.00000  0.05    0.12
Q29   1  -0.5333  0.5095  0.0554  11.00000  0.05    0.12
Q30   1   1.3076  0.1997  0.2214  11.00000  0.05    0.11
;
_shelx_res_checksum              48847
_shelxl_version_number           2014/6
loop_
_space_group_symop_operation_xyz
'x, y, z'
'-x, -y, -z'
loop_
_atom_site_type_symbol
_atom_site_label
_atom_site_fract_x
_atom_site_fract_y
_atom_site_fract_z
_atom_site_U_iso_or_equiv
_atom_site_adp_type
_atom_site_calc_flag
_atom_site_occupancy
Cl Cl1 -0.69451(11) 0.56991(10) 0.10339(6) 0.0985(3) Uani d 1
S S1 0.78525(7) -0.02006(5) 0.38459(4) 0.04606(15) Uani d 1
O O1 0.9302(2) -0.12017(14) 0.45436(12) 0.0606(4) Uani d 1
O O2 0.6100(2) -0.05535(15) 0.35447(12) 0.0586(4) Uani d 1
O O3 0.6445(2) 0.33557(15) 0.49653(12) 0.0576(4) Uani d 1
N N1 0.6980(2) 0.10762(17) 0.43598(12) 0.0483(4) Uani d 1
H H1N 0.786(3) 0.127(2) 0.4633(16) 0.058 Uiso d 1
N N2 0.3297(2) 0.43565(17) 0.42952(13) 0.0500(4) Uani d 1
H H2N 0.322(3) 0.5079(19) 0.4504(16) 0.060 Uiso d 1
N N3 0.1766(2) 0.43233(16) 0.36805(12) 0.0465(4) Uani d 1
C C1 0.9220(3) 0.03486(19) 0.27256(15) 0.0471(4) Uani d 1
C C2 0.8354(4) 0.0603(3) 0.17817(17) 0.0659(6) Uani d 1
H H2 0.7071 0.0441 0.1726 0.079 Uiso calc 1
C C3 0.9407(4) 0.1099(3) 0.09201(19) 0.0796(7) Uani d 1
H H3 0.8817 0.1272 0.0284 0.096 Uiso calc 1
C C4 1.1316(4) 0.1344(3) 0.0979(2) 0.0736(7) Uani d 1
C C5 1.2133(4) 0.1075(3) 0.1931(2) 0.0813(8) Uani d 1
H H5 1.3414 0.1239 0.1987 0.098 Uiso calc 1
C C6 1.1137(3) 0.0573(3) 0.28006(19) 0.0693(6) Uani d 1
H H6 1.1743 0.0385 0.3435 0.083 Uiso calc 1
C C7 0.5155(3) 0.21426(19) 0.39697(14) 0.0445(4) Uani d 1
H H7A 0.3932 0.1798 0.4139 0.053 Uiso calc 1
H H7B 0.5252 0.2437 0.3233 0.053 Uiso calc 1
C C8 0.5024(3) 0.33313(19) 0.44529(14) 0.0439(4) Uani d 1
C C9 0.0198(3) 0.5356(2) 0.35626(15) 0.0488(4) Uani d 1
H H9 0.0151 0.6061 0.3886 0.059 Uiso calc 1
C C10 -0.1532(3) 0.54426(19) 0.29231(14) 0.0460(4) Uani d 1
C C11 -0.1453(3) 0.4472(2) 0.23547(16) 0.0554(5) Uani d 1
H H11 -0.0273 0.3756 0.2369 0.067 Uiso calc 1
C C12 -0.3103(4) 0.4563(2) 0.17729(17) 0.0612(5) Uani d 1
H H12 -0.3040 0.3913 0.1393 0.073 Uiso calc 1
C C13 -0.4852(3) 0.5621(2) 0.17554(16) 0.0590(5) Uani d 1
C C14 -0.4966(3) 0.6590(2) 0.22985(17) 0.0632(6) Uani d 1
H H14 -0.6150 0.7304 0.2277 0.076 Uiso calc 1
C C15 -0.3297(3) 0.6502(2) 0.28847(17) 0.0554(5) Uani d 1
H H15 -0.3368 0.7162 0.3255 0.066 Uiso calc 1
C C16 1.2435(6) 0.1909(4) 0.0027(3) 0.1171(12) Uani d 1
H H16A 1.1727 0.1905 -0.0565 0.176 Uiso calc 1
H H16B 1.3822 0.1347 0.0024 0.176 Uiso calc 1
H H16C 1.2467 0.2833 0.0017 0.176 Uiso calc 1
loop_
_atom_site_aniso_label
_atom_site_aniso_U_11
_atom_site_aniso_U_22
_atom_site_aniso_U_33
_atom_site_aniso_U_12
_atom_site_aniso_U_13
_atom_site_aniso_U_23
Cl1 0.0651(4) 0.1592(8) 0.0727(4) -0.0320(4) -0.0227(3) -0.0194(4)
S1 0.0449(3) 0.0419(2) 0.0540(3) -0.01103(18) -0.00405(19) -0.0150(2)
O1 0.0596(9) 0.0485(8) 0.0689(9) -0.0082(6) -0.0123(7) -0.0071(7)
O2 0.0531(8) 0.0571(8) 0.0754(10) -0.0215(7) -0.0036(7) -0.0250(7)
O3 0.0502(8) 0.0571(8) 0.0719(9) -0.0061(6) -0.0168(7) -0.0301(7)
N1 0.0444(8) 0.0530(9) 0.0522(9) -0.0093(7) -0.0059(7) -0.0226(7)
N2 0.0480(9) 0.0493(9) 0.0579(10) -0.0079(7) -0.0117(7) -0.0237(8)
N3 0.0450(8) 0.0499(9) 0.0473(9) -0.0111(7) -0.0078(7) -0.0151(7)
C1 0.0442(9) 0.0454(10) 0.0525(11) -0.0067(8) -0.0015(8) -0.0173(8)
C2 0.0545(12) 0.0874(16) 0.0586(13) -0.0150(11) -0.0043(10) -0.0240(12)
C3 0.0757(16) 0.105(2) 0.0516(13) -0.0107(14) -0.0043(11) -0.0176(13)
C4 0.0696(15) 0.0782(16) 0.0657(15) -0.0138(12) 0.0144(12) -0.0128(12)
C5 0.0594(14) 0.112(2) 0.0755(17) -0.0333(14) 0.0072(12) -0.0174(15)
C6 0.0536(12) 0.0975(18) 0.0609(13) -0.0280(12) -0.0044(10) -0.0154(12)
C7 0.0454(9) 0.0466(10) 0.0448(10) -0.0135(8) -0.0027(7) -0.0142(8)
C8 0.0433(9) 0.0476(10) 0.0431(9) -0.0114(8) -0.0031(7) -0.0138(8)
C9 0.0500(10) 0.0491(10) 0.0521(11) -0.0123(8) -0.0041(8) -0.0197(8)
C10 0.0462(10) 0.0455(10) 0.0460(10) -0.0114(8) -0.0042(8) -0.0093(8)
C11 0.0546(11) 0.0501(11) 0.0615(12) -0.0055(9) -0.0102(9) -0.0184(9)
C12 0.0684(13) 0.0649(13) 0.0565(12) -0.0205(11) -0.0102(10) -0.0189(10)
C13 0.0516(11) 0.0778(15) 0.0466(11) -0.0219(11) -0.0081(9) -0.0041(10)
C14 0.0474(11) 0.0678(14) 0.0632(13) -0.0017(10) -0.0050(9) -0.0066(11)
C15 0.0536(11) 0.0512(11) 0.0608(12) -0.0082(9) -0.0008(9) -0.0173(9)
C16 0.113(3) 0.144(3) 0.081(2) -0.038(2) 0.0284(19) -0.004(2)
loop_
_atom_type_symbol
_atom_type_description
_atom_type_scat_dispersion_real
_atom_type_scat_dispersion_imag
_atom_type_scat_source
C C 0.0033 0.0016 'International Tables Vol C Tables 4.2.6.8 and 6.1.1.4'
H H 0.0000 0.0000 'International Tables Vol C Tables 4.2.6.8 and 6.1.1.4'
Cl Cl 0.1484 0.1585 'International Tables Vol C Tables 4.2.6.8 and 6.1.1.4'
N N 0.0061 0.0033 'International Tables Vol C Tables 4.2.6.8 and 6.1.1.4'
O O 0.0106 0.0060 'International Tables Vol C Tables 4.2.6.8 and 6.1.1.4'
S S 0.1246 0.1234 'International Tables Vol C Tables 4.2.6.8 and 6.1.1.4'
loop_
_geom_angle_atom_site_label_1
_geom_angle_atom_site_label_2
_geom_angle_atom_site_label_3
_geom_angle
O1 S1 O2 119.66(9)
O1 S1 N1 106.70(9)
O2 S1 N1 106.80(9)
O1 S1 C1 107.61(9)
O2 S1 C1 107.43(9)
N1 S1 C1 108.21(9)
C7 N1 S1 121.12(12)
C7 N1 H1N 119.1(17)
S1 N1 H1N 113.6(17)
C8 N2 N3 120.21(15)
C8 N2 H2N 119.7(16)
N3 N2 H2N 119.5(16)
C9 N3 N2 115.61(16)
C2 C1 C6 120.0(2)
C2 C1 S1 120.38(16)
C6 C1 S1 119.59(16)
C1 C2 C3 119.3(2)
C1 C2 H2 120.3
C3 C2 H2 120.3
C2 C3 C4 121.6(2)
C2 C3 H3 119.2
C4 C3 H3 119.2
C5 C4 C3 117.4(2)
C5 C4 C16 121.7(3)
C3 C4 C16 120.9(3)
C6 C5 C4 122.5(2)
C6 C5 H5 118.8
C4 C5 H5 118.8
C5 C6 C1 119.2(2)
C5 C6 H6 120.4
C1 C6 H6 120.4
N1 C7 C8 107.79(14)
N1 C7 H7A 110.1
C8 C7 H7A 110.1
N1 C7 H7B 110.1
C8 C7 H7B 110.1
H7A C7 H7B 108.5
O3 C8 N2 121.73(17)
O3 C8 C7 121.09(16)
N2 C8 C7 117.18(15)
N3 C9 C10 120.77(17)
N3 C9 H9 119.6
C10 C9 H9 119.6
C15 C10 C11 118.66(18)
C15 C10 C9 119.73(18)
C11 C10 C9 121.61(17)
C12 C11 C10 120.60(19)
C12 C11 H11 119.7
C10 C11 H11 119.7
C11 C12 C13 119.6(2)
C11 C12 H12 120.2
C13 C12 H12 120.2
C14 C13 C12 121.1(2)
C14 C13 Cl1 120.01(18)
C12 C13 Cl1 118.93(18)
C13 C14 C15 119.4(2)
C13 C14 H14 120.3
C15 C14 H14 120.3
C10 C15 C14 120.7(2)
C10 C15 H15 119.7
C14 C15 H15 119.7
C4 C16 H16A 109.5
C4 C16 H16B 109.5
H16A C16 H16B 109.5
C4 C16 H16C 109.5
H16A C16 H16C 109.5
H16B C16 H16C 109.5
loop_
_geom_bond_atom_site_label_1
_geom_bond_atom_site_label_2
_geom_bond_distance
Cl1 C13 1.740(2)
S1 O1 1.4292(15)
S1 O2 1.4313(14)
S1 N1 1.5974(16)
S1 C1 1.764(2)
O3 C8 1.227(2)
N1 C7 1.450(2)
N1 H1N 0.811(15)
N2 C8 1.341(2)
N2 N3 1.379(2)
N2 H2N 0.849(16)
N3 C9 1.276(2)
C1 C2 1.377(3)
C1 C6 1.380(3)
C2 C3 1.378(3)
C2 H2 0.9300
C3 C4 1.381(4)
C3 H3 0.9300
C4 C5 1.370(4)
C4 C16 1.511(4)
C5 C6 1.368(3)
C5 H5 0.9300
C6 H6 0.9300
C7 C8 1.507(2)
C7 H7A 0.9700
C7 H7B 0.9700
C9 C10 1.467(2)
C9 H9 0.9300
C10 C15 1.382(3)
C10 C11 1.393(3)
C11 C12 1.374(3)
C11 H11 0.9300
C12 C13 1.377(3)
C12 H12 0.9300
C13 C14 1.363(3)
C14 C15 1.389(3)
C14 H14 0.9300
C15 H15 0.9300
C16 H16A 0.9600
C16 H16B 0.9600
C16 H16C 0.9600
loop_
_geom_hbond_atom_site_label_D
_geom_hbond_atom_site_label_H
_geom_hbond_atom_site_label_A
_geom_hbond_site_symmetry_A
_geom_hbond_distance_DH
_geom_hbond_distance_HA
_geom_hbond_distance_DA
_geom_hbond_angle_DHA
N1 H1N O3 . 0.811(15) 2.26(2) 2.611(2) 107.0(18)
N1 H1N O1 2_756 0.811(15) 2.249(16) 3.038(2) 164(2)
N2 H2N O3 2_666 0.849(16) 1.992(16) 2.833(2) 170(2)
C15 H15 O2 1_465 0.93 2.42 3.298(3) 157.0
loop_
_geom_torsion_atom_site_label_1
_geom_torsion_atom_site_label_2
_geom_torsion_atom_site_label_3
_geom_torsion_atom_site_label_4
_geom_torsion
O1 S1 N1 C7 -166.15(14)
O2 S1 N1 C7 -37.09(17)
C1 S1 N1 C7 78.30(16)
C8 N2 N3 C9 -178.84(18)
O1 S1 C1 C2 141.34(18)
O2 S1 C1 C2 11.3(2)
N1 S1 C1 C2 -103.71(18)
O1 S1 C1 C6 -41.1(2)
O2 S1 C1 C6 -171.16(18)
N1 S1 C1 C6 73.87(19)
C6 C1 C2 C3 -0.9(3)
S1 C1 C2 C3 176.7(2)
C1 C2 C3 C4 0.2(4)
C2 C3 C4 C5 0.0(4)
C2 C3 C4 C16 -179.1(3)
C3 C4 C5 C6 0.4(4)
C16 C4 C5 C6 179.5(3)
C4 C5 C6 C1 -1.1(4)
C2 C1 C6 C5 1.3(4)
S1 C1 C6 C5 -176.3(2)
S1 N1 C7 C8 -167.41(13)
N3 N2 C8 O3 177.30(17)
N3 N2 C8 C7 -2.5(3)
N1 C7 C8 O3 8.7(2)
N1 C7 C8 N2 -171.55(16)
N2 N3 C9 C10 179.80(16)
N3 C9 C10 C15 173.79(19)
N3 C9 C10 C11 -5.6(3)
C15 C10 C11 C12 -0.4(3)
C9 C10 C11 C12 179.0(2)
C10 C11 C12 C13 -0.2(3)
C11 C12 C13 C14 0.7(3)
C11 C12 C13 Cl1 -178.75(17)
C12 C13 C14 C15 -0.5(3)
Cl1 C13 C14 C15 178.91(17)
C11 C10 C15 C14 0.6(3)
C9 C10 C15 C14 -178.87(19)
C13 C14 C15 C10 -0.1(3)

_cod_database_fobs_code 2021326
