#------------------------------------------------------------------------------
#$Date: 2020-02-08 08:04:51 +0200 (Sat, 08 Feb 2020) $
#$Revision: 247978 $
#$URL: file:///home/coder/svn-repositories/cod/cif/2/02/19/2021974.cif $
#------------------------------------------------------------------------------
#
# This file is available in the Crystallography Open Database (COD),
# http://www.crystallography.net/. The original data for this entry
# were provided by IUCr Journals, http://journals.iucr.org/.
#
# The file may be used within the scientific community so long as
# proper attribution is given to the journal article from which the
# data were obtained.
#
data_2021974
loop_
_publ_author_name
'Bernhardt, Eduard'
'Herbst-Irmer, Regine'
_publ_section_title
;
 Phase transition and structures of the twinned low-temperature phases of
 (Et~4~N)[ReS~4~]
;
_journal_coeditor_code           EF3002
_journal_issue                   3
_journal_name_full               'Acta Crystallographica Section C'
_journal_page_first
;
;
_journal_paper_doi               10.1107/S205322961901725X
_journal_volume                  76
_journal_year                    2020
_chemical_formula_iupac          '(C8 H20 N) [Re S4]'
_chemical_formula_moiety         'C8 H20 N +, Re S4 -'
_chemical_formula_sum            'C8 H20 N Re S4'
_chemical_formula_weight         444.69
_chemical_name_systematic
;
Tetraethylammonium tetrathiorhenate
;
_space_group_crystal_system      monoclinic
_space_group_IT_number           4
_space_group_name_Hall           'P 2yb'
_space_group_name_H-M_alt        'P 1 21 1'
_atom_sites_solution_hydrogens   geom
_audit_creation_method           SHELXL-2018/3
_cell_angle_alpha                90
_cell_angle_beta                 119.04(2)
_cell_angle_gamma                90
_cell_formula_units_Z            2
_cell_length_a                   7.900(2)
_cell_length_b                   12.842(3)
_cell_length_c                   8.118(2)
_cell_measurement_reflns_used    3279
_cell_measurement_temperature    149.9(3)
_cell_measurement_theta_max      29.5080
_cell_measurement_theta_min      2.9080
_cell_volume                     720.0(3)
_computing_cell_refinement
;
CrysAlis PRO (Oxford Diffraction, 2016)
;
_computing_data_collection
;
CrysAlis PRO (Oxford Diffraction, 2016)
;
_computing_data_reduction
;
CrysAlis PRO (Oxford Diffraction, 2016)
;
_computing_molecular_graphics
;
DIAMOND (Brandenburg, 2001)
;
_computing_publication_material
;
SHELXL2018 (Sheldrick, 2015)
;
_computing_structure_refinement
;
SHELXL2018 (Sheldrick, 2015)
;
_computing_structure_solution
;
SHELXS97 (Sheldrick, 2008)
;
_diffrn_ambient_temperature      149.9(3)
_diffrn_detector_area_resol_mean 16.2705
_diffrn_measured_fraction_theta_full 0.993
_diffrn_measured_fraction_theta_max 0.935
_diffrn_measurement_device_type
'Oxford Diffraction Gemini E Ultra diffractometer with an EOS CCD camera'
_diffrn_measurement_method       '\w scans'
_diffrn_radiation_monochromator  graphite
_diffrn_radiation_source         'fine-focus sealed tube Enhanced (Mo)'
_diffrn_radiation_type           MoK\a
_diffrn_radiation_wavelength     0.71073
_diffrn_reflns_av_R_equivalents  0.0525
_diffrn_reflns_av_unetI/netI     0.0250
_diffrn_reflns_limit_h_max       10
_diffrn_reflns_limit_h_min       -10
_diffrn_reflns_limit_k_max       16
_diffrn_reflns_limit_k_min       -15
_diffrn_reflns_limit_l_max       10
_diffrn_reflns_limit_l_min       -10
_diffrn_reflns_number            4476
_diffrn_reflns_theta_full        25.242
_diffrn_reflns_theta_max         29.279
_diffrn_reflns_theta_min         3.280
_exptl_absorpt_coefficient_mu    8.986
_exptl_absorpt_correction_T_max  0.336
_exptl_absorpt_correction_T_min  0.241
_exptl_absorpt_correction_type   analytical
_exptl_absorpt_process_details
;
[CrysAlis PRO (Agilent, 2013), based on expressions derived by
Clark & Reid (1995)]
;
_exptl_crystal_colour            black
_exptl_crystal_density_diffrn    2.051
_exptl_crystal_description       prism
_exptl_crystal_F_000             428
_exptl_crystal_size_max          0.2391
_exptl_crystal_size_mid          0.2035
_exptl_crystal_size_min          0.1704
_refine_diff_density_max         2.005
_refine_diff_density_min         -4.804
_refine_ls_abs_structure_details
;
Flack <i>x</i> determined using 1080 quotients [(I+)-(I-)]/[(I+)+(I-)]
(Parsons <i>et al.</i>,  2013)
;
_refine_ls_abs_structure_Flack   0.105(18)
_refine_ls_extinction_method     none
_refine_ls_goodness_of_fit_ref   1.085
_refine_ls_hydrogen_treatment    constr
_refine_ls_matrix_type           full
_refine_ls_number_parameters     87
_refine_ls_number_reflns         2814
_refine_ls_number_restraints     89
_refine_ls_restrained_S_all      1.071
_refine_ls_R_factor_all          0.0525
_refine_ls_R_factor_gt           0.0519
_refine_ls_shift/su_max          0.002
_refine_ls_shift/su_mean         0.000
_refine_ls_structure_factor_coef Fsqd
_refine_ls_weighting_details
'w=1/[\s^2^(Fo^2^)+(0.0596P)^2^+29.5424P] where P=(Fo^2^+2Fc^2^)/3'
_refine_ls_weighting_scheme      calc
_refine_ls_wR_factor_gt          0.1360
_refine_ls_wR_factor_ref         0.1378
_reflns_number_gt                2808
_reflns_number_total             2814
_reflns_threshold_expression     'I > 2\s(I)'
_cod_data_source_file            ef3002sup1.cif
_cod_data_source_block           Ic
_cod_original_sg_symbol_H-M      'P 21'
_cod_database_code               2021974
_shelx_space_group_comment
;
The symmetry employed for this shelxl refinement is uniquely defined
by the following loop, which should always be used as a source of
symmetry information in preference to the above space-group names.
They are only intended as comments.
;
_shelx_hkl_file
;
   2   0   0 6885.85   21.65  -6
  -2   0   2 6885.85   21.65  -5
   0   0  -2 6885.85   21.65  -4
  -2   0   2 6885.85   21.65  -3
   0   0  -2 6885.85   21.65  -2
   2   0   0 6885.85   21.65   1
   3   0   0 4148.19   12.11  -6
  -3   0   3 4148.19   12.11  -5
   0   0  -3 4148.19   12.11  -4
  -3   0   3 4148.19   12.11  -3
   0   0  -3 4148.19   12.11  -2
   3   0   0 4148.19   12.11   1
   4   0   0 1653.12   13.99  -6
  -4   0   4 1653.12   13.99  -5
   0   0  -4 1653.12   13.99  -4
  -4   0   4 1653.12   13.99  -3
   0   0  -4 1653.12   13.99  -2
   4   0   0 1653.12   13.99   1
   5   0   0  762.07   10.99  -6
  -5   0   5  762.07   10.99  -5
   0   0  -5  762.07   10.99  -4
  -5   0   5  762.07   10.99  -3
   0   0  -5  762.07   10.99  -2
   5   0   0  762.07   10.99   1
   6   0   0 1399.81   35.64  -6
  -6   0   6 1399.81   35.64  -5
   0   0  -6 1399.81   35.64  -4
  -6   0   6 1399.81   35.64  -3
   0   0  -6 1399.81   35.64  -2
   6   0   0 1399.81   35.64   1
   7   0   0  911.02   26.66  -6
  -7   0   7  911.02   26.66  -5
   0   0  -7  911.02   26.66  -4
  -7   0   7  911.02   26.66  -3
   0   0  -7  911.02   26.66  -2
   7   0   0  911.02   26.66   1
   8   0   0  338.48   23.45  -6
  -8   0   8  338.48   23.45  -5
   0   0  -8  338.48   23.45  -4
  -8   0   8  338.48   23.45  -3
   0   0  -8  338.48   23.45  -2
   8   0   0  338.48   23.45   1
   1  -1   0  729.80    4.44  -6
  -1  -1   1  729.80    4.44  -5
   0  -1  -1  729.80    4.44  -4
  -1  -1   1  729.80    4.44  -3
   0  -1  -1  729.80    4.44  -2
   1  -1   0  729.80    4.44   1
   1   1   0  715.70    7.59  -6
  -1   1   1  715.70    7.59  -5
   0   1  -1  715.70    7.59  -4
  -1   1   1  715.70    7.59  -3
   0   1  -1  715.70    7.59  -2
   1   1   0  715.70    7.59   1
   2  -1   0 2245.45    6.84  -6
  -2  -1   2 2245.45    6.84  -5
   0  -1  -2 2245.45    6.84  -4
  -2  -1   2 2245.45    6.84  -3
   0  -1  -2 2245.45    6.84  -2
   2  -1   0 2245.45    6.84   1
   2   1   0 2214.83   11.09  -6
  -2   1   2 2214.83   11.09  -5
   0   1  -2 2214.83   11.09  -4
  -2   1   2 2214.83   11.09  -3
   0   1  -2 2214.83   11.09  -2
   2   1   0 2214.83   11.09   1
   3  -1   0 1185.47   11.47  -6
  -3  -1   3 1185.47   11.47  -5
   0  -1  -3 1185.47   11.47  -4
  -3  -1   3 1185.47   11.47  -3
   0  -1  -3 1185.47   11.47  -2
   3  -1   0 1185.47   11.47   1
   3   1   0 1290.66   11.77  -6
  -3   1   3 1290.66   11.77  -5
   0   1  -3 1290.66   11.77  -4
  -3   1   3 1290.66   11.77  -3
   0   1  -3 1290.66   11.77  -2
   3   1   0 1290.66   11.77   1
   4  -1   0 1635.33   11.56  -6
  -4  -1   4 1635.33   11.56  -5
   0  -1  -4 1635.33   11.56  -4
  -4  -1   4 1635.33   11.56  -3
   0  -1  -4 1635.33   11.56  -2
   4  -1   0 1635.33   11.56   1
   5  -1   0 1302.74   10.26  -6
  -5  -1   5 1302.74   10.26  -5
   0  -1  -5 1302.74   10.26  -4
  -5  -1   5 1302.74   10.26  -3
   0  -1  -5 1302.74   10.26  -2
   5  -1   0 1302.74   10.26   1
   5   1   0 1462.37   14.88  -6
  -5   1   5 1462.37   14.88  -5
   0   1  -5 1462.37   14.88  -4
  -5   1   5 1462.37   14.88  -3
   0   1  -5 1462.37   14.88  -2
   5   1   0 1462.37   14.88   1
   6  -1   0 2370.60   44.07  -6
  -6  -1   6 2370.60   44.07  -5
   0  -1  -6 2370.60   44.07  -4
  -6  -1   6 2370.60   44.07  -3
   0  -1  -6 2370.60   44.07  -2
   6  -1   0 2370.60   44.07   1
   6   1   0 2203.79   38.32  -6
  -6   1   6 2203.79   38.32  -5
   0   1  -6 2203.79   38.32  -4
  -6   1   6 2203.79   38.32  -3
   0   1  -6 2203.79   38.32  -2
   6   1   0 2203.79   38.32   1
   7  -1   0 1921.83   44.47  -6
  -7  -1   7 1921.83   44.47  -5
   0  -1  -7 1921.83   44.47  -4
  -7  -1   7 1921.83   44.47  -3
   0  -1  -7 1921.83   44.47  -2
   7  -1   0 1921.83   44.47   1
   7   1   0 1799.08   41.42  -6
  -7   1   7 1799.08   41.42  -5
   0   1  -7 1799.08   41.42  -4
  -7   1   7 1799.08   41.42  -3
   0   1  -7 1799.08   41.42  -2
   7   1   0 1799.08   41.42   1
   8  -1   0  607.79   27.43  -6
  -8  -1   8  607.79   27.43  -5
   0  -1  -8  607.79   27.43  -4
  -8  -1   8  607.79   27.43  -3
   0  -1  -8  607.79   27.43  -2
   8  -1   0  607.79   27.43   1
   8   1   0  562.21   23.73  -6
  -8   1   8  562.21   23.73  -5
   0   1  -8  562.21   23.73  -4
  -8   1   8  562.21   23.73  -3
   0   1  -8  562.21   23.73  -2
   8   1   0  562.21   23.73   1
   2  -2   0 2914.18    9.51  -6
  -2  -2   2 2914.18    9.51  -5
   0  -2  -2 2914.18    9.51  -4
  -2  -2   2 2914.18    9.51  -3
   0  -2  -2 2914.18    9.51  -2
   2  -2   0 2914.18    9.51   1
   2   2   0 3747.93   13.08  -6
  -2   2   2 3747.93   13.08  -5
   0   2  -2 3747.93   13.08  -4
  -2   2   2 3747.93   13.08  -3
   0   2  -2 3747.93   13.08  -2
   2   2   0 3747.93   13.08   1
   3  -2   0 2706.29    9.31  -6
  -3  -2   3 2706.29    9.31  -5
   0  -2  -3 2706.29    9.31  -4
  -3  -2   3 2706.29    9.31  -3
   0  -2  -3 2706.29    9.31  -2
   3  -2   0 2706.29    9.31   1
   3   2   0 3031.56   15.29  -6
  -3   2   3 3031.56   15.29  -5
   0   2  -3 3031.56   15.29  -4
  -3   2   3 3031.56   15.29  -3
   0   2  -3 3031.56   15.29  -2
   3   2   0 3031.56   15.29   1
   4  -2   0 1281.28   18.75  -6
  -4  -2   4 1281.28   18.75  -5
   0  -2  -4 1281.28   18.75  -4
  -4  -2   4 1281.28   18.75  -3
   0  -2  -4 1281.28   18.75  -2
   4  -2   0 1281.28   18.75   1
   4   2   0 1507.82   13.47  -6
  -4   2   4 1507.82   13.47  -5
   0   2  -4 1507.82   13.47  -4
  -4   2   4 1507.82   13.47  -3
   0   2  -4 1507.82   13.47  -2
   4   2   0 1507.82   13.47   1
   5  -2   0  927.03   11.11  -6
  -5  -2   5  927.03   11.11  -5
   0  -2  -5  927.03   11.11  -4
  -5  -2   5  927.03   11.11  -3
   0  -2  -5  927.03   11.11  -2
   5  -2   0  927.03   11.11   1
   5   2   0 1136.68   12.87  -6
  -5   2   5 1136.68   12.87  -5
   0   2  -5 1136.68   12.87  -4
  -5   2   5 1136.68   12.87  -3
   0   2  -5 1136.68   12.87  -2
   5   2   0 1136.68   12.87   1
   6  -2   0  899.68   14.58  -6
  -6  -2   6  899.68   14.58  -5
   0  -2  -6  899.68   14.58  -4
  -6  -2   6  899.68   14.58  -3
   0  -2  -6  899.68   14.58  -2
   6  -2   0  899.68   14.58   1
   6   2   0  896.53   20.37  -6
  -6   2   6  896.53   20.37  -5
   0   2  -6  896.53   20.37  -4
  -6   2   6  896.53   20.37  -3
   0   2  -6  896.53   20.37  -2
   6   2   0  896.53   20.37   1
   7  -2   0  824.35   40.34  -6
  -7  -2   7  824.35   40.34  -5
   0  -2  -7  824.35   40.34  -4
  -7  -2   7  824.35   40.34  -3
   0  -2  -7  824.35   40.34  -2
   7  -2   0  824.35   40.34   1
   7   2   0  737.00   34.10  -6
  -7   2   7  737.00   34.10  -5
   0   2  -7  737.00   34.10  -4
  -7   2   7  737.00   34.10  -3
   0   2  -7  737.00   34.10  -2
   7   2   0  737.00   34.10   1
   8  -2   0  364.95   39.15  -6
  -8  -2   8  364.95   39.15  -5
   0  -2  -8  364.95   39.15  -4
  -8  -2   8  364.95   39.15  -3
   0  -2  -8  364.95   39.15  -2
   8  -2   0  364.95   39.15   1
   8   2   0  298.73   34.87  -6
  -8   2   8  298.73   34.87  -5
   0   2  -8  298.73   34.87  -4
  -8   2   8  298.73   34.87  -3
   0   2  -8  298.73   34.87  -2
   8   2   0  298.73   34.87   1
   9   2   0  215.04   38.84  -6
  -9   2   9  215.04   38.84  -5
   0   2  -9  215.04   38.84  -4
  -9   2   9  215.04   38.84  -3
   0   2  -9  215.04   38.84  -2
   9   2   0  215.04   38.84   1
   0  -3   0    7.50    4.44  -6
   0  -3   0    7.50    4.44  -5
   0  -3   0    7.50    4.44  -4
   0  -3   0    7.50    4.44  -3
   0  -3   0    7.50    4.44  -2
   0  -3   0    7.50    4.44   1
   0   3   0    7.88    5.64  -6
   0   3   0    7.88    5.64  -5
   0   3   0    7.88    5.64  -4
   0   3   0    7.88    5.64  -3
   0   3   0    7.88    5.64  -2
   0   3   0    7.88    5.64   1
   1  -3   0  355.54    3.37  -6
  -1  -3   1  355.54    3.37  -5
   0  -3  -1  355.54    3.37  -4
  -1  -3   1  355.54    3.37  -3
   0  -3  -1  355.54    3.37  -2
   1  -3   0  355.54    3.37   1
   1   3   0  380.63    6.49  -6
  -1   3   1  380.63    6.49  -5
   0   3  -1  380.63    6.49  -4
  -1   3   1  380.63    6.49  -3
   0   3  -1  380.63    6.49  -2
   1   3   0  380.63    6.49   1
   2  -3   0 1288.68    7.23  -6
  -2  -3   2 1288.68    7.23  -5
   0  -3  -2 1288.68    7.23  -4
  -2  -3   2 1288.68    7.23  -3
   0  -3  -2 1288.68    7.23  -2
   2  -3   0 1288.68    7.23   1
   2   3   0 1328.48    8.04  -6
  -2   3   2 1328.48    8.04  -5
   0   3  -2 1328.48    8.04  -4
  -2   3   2 1328.48    8.04  -3
   0   3  -2 1328.48    8.04  -2
   2   3   0 1328.48    8.04   1
   3  -3   0  996.41   12.67  -6
  -3  -3   3  996.41   12.67  -5
   0  -3  -3  996.41   12.67  -4
  -3  -3   3  996.41   12.67  -3
   0  -3  -3  996.41   12.67  -2
   3  -3   0  996.41   12.67   1
   3   3   0 1017.06   11.03  -6
  -3   3   3 1017.06   11.03  -5
   0   3  -3 1017.06   11.03  -4
  -3   3   3 1017.06   11.03  -3
   0   3  -3 1017.06   11.03  -2
   3   3   0 1017.06   11.03   1
   4  -3   0  757.67    7.70  -6
  -4  -3   4  757.67    7.70  -5
   0  -3  -4  757.67    7.70  -4
  -4  -3   4  757.67    7.70  -3
   0  -3  -4  757.67    7.70  -2
   4  -3   0  757.67    7.70   1
   5  -3   0 1057.18   21.30  -6
  -5  -3   5 1057.18   21.30  -5
   0  -3  -5 1057.18   21.30  -4
  -5  -3   5 1057.18   21.30  -3
   0  -3  -5 1057.18   21.30  -2
   5  -3   0 1057.18   21.30   1
   5   3   0 1177.03   28.22  -6
  -5   3   5 1177.03   28.22  -5
   0   3  -5 1177.03   28.22  -4
  -5   3   5 1177.03   28.22  -3
   0   3  -5 1177.03   28.22  -2
   5   3   0 1177.03   28.22   1
   6  -3   0  981.63   16.31  -6
  -6  -3   6  981.63   16.31  -5
   0  -3  -6  981.63   16.31  -4
  -6  -3   6  981.63   16.31  -3
   0  -3  -6  981.63   16.31  -2
   6  -3   0  981.63   16.31   1
   6   3   0  998.19   20.94  -6
  -6   3   6  998.19   20.94  -5
   0   3  -6  998.19   20.94  -4
  -6   3   6  998.19   20.94  -3
   0   3  -6  998.19   20.94  -2
   6   3   0  998.19   20.94   1
   7   3   0 1021.18   24.81  -6
  -7   3   7 1021.18   24.81  -5
   0   3  -7 1021.18   24.81  -4
  -7   3   7 1021.18   24.81  -3
   0   3  -7 1021.18   24.81  -2
   7   3   0 1021.18   24.81   1
   8  -3   0  658.78   41.91  -6
  -8  -3   8  658.78   41.91  -5
   0  -3  -8  658.78   41.91  -4
  -8  -3   8  658.78   41.91  -3
   0  -3  -8  658.78   41.91  -2
   8  -3   0  658.78   41.91   1
   8   3   0  599.58   35.89  -6
  -8   3   8  599.58   35.89  -5
   0   3  -8  599.58   35.89  -4
  -8   3   8  599.58   35.89  -3
   0   3  -8  599.58   35.89  -2
   8   3   0  599.58   35.89   1
   9   3   0  377.85   39.29  -6
  -9   3   9  377.85   39.29  -5
   0   3  -9  377.85   39.29  -4
  -9   3   9  377.85   39.29  -3
   0   3  -9  377.85   39.29  -2
   9   3   0  377.85   39.29   1
   1  -4   0 5853.24   15.61  -6
  -1  -4   1 5853.24   15.61  -5
   0  -4  -1 5853.24   15.61  -4
  -1  -4   1 5853.24   15.61  -3
   0  -4  -1 5853.24   15.61  -2
   1  -4   0 5853.24   15.61   1
   1   4   0 5691.78   16.20  -6
  -1   4   1 5691.78   16.20  -5
   0   4  -1 5691.78   16.20  -4
  -1   4   1 5691.78   16.20  -3
   0   4  -1 5691.78   16.20  -2
   1   4   0 5691.78   16.20   1
   2  -4   0 3906.65   11.01  -6
  -2  -4   2 3906.65   11.01  -5
   0  -4  -2 3906.65   11.01  -4
  -2  -4   2 3906.65   11.01  -3
   0  -4  -2 3906.65   11.01  -2
   2  -4   0 3906.65   11.01   1
   2   4   0 3750.42   14.00  -6
  -2   4   2 3750.42   14.00  -5
   0   4  -2 3750.42   14.00  -4
  -2   4   2 3750.42   14.00  -3
   0   4  -2 3750.42   14.00  -2
   2   4   0 3750.42   14.00   1
   3  -4   0 3037.99   17.03  -6
  -3  -4   3 3037.99   17.03  -5
   0  -4  -3 3037.99   17.03  -4
  -3  -4   3 3037.99   17.03  -3
   0  -4  -3 3037.99   17.03  -2
   3  -4   0 3037.99   17.03   1
   3   4   0 3068.11   17.12  -6
  -3   4   3 3068.11   17.12  -5
   0   4  -3 3068.11   17.12  -4
  -3   4   3 3068.11   17.12  -3
   0   4  -3 3068.11   17.12  -2
   3   4   0 3068.11   17.12   1
   4  -4   0 1550.65   14.63  -6
  -4  -4   4 1550.65   14.63  -5
   0  -4  -4 1550.65   14.63  -4
  -4  -4   4 1550.65   14.63  -3
   0  -4  -4 1550.65   14.63  -2
   4  -4   0 1550.65   14.63   1
   4   4   0 1504.25   11.02  -6
  -4   4   4 1504.25   11.02  -5
   0   4  -4 1504.25   11.02  -4
  -4   4   4 1504.25   11.02  -3
   0   4  -4 1504.25   11.02  -2
   4   4   0 1504.25   11.02   1
   5  -4   0  680.25    7.65  -6
  -5  -4   5  680.25    7.65  -5
   0  -4  -5  680.25    7.65  -4
  -5  -4   5  680.25    7.65  -3
   0  -4  -5  680.25    7.65  -2
   5  -4   0  680.25    7.65   1
   5   4   0  609.63    8.73  -6
  -5   4   5  609.63    8.73  -5
   0   4  -5  609.63    8.73  -4
  -5   4   5  609.63    8.73  -3
   0   4  -5  609.63    8.73  -2
   5   4   0  609.63    8.73   1
   6  -4   0 1244.86   37.56  -6
  -6  -4   6 1244.86   37.56  -5
   0  -4  -6 1244.86   37.56  -4
  -6  -4   6 1244.86   37.56  -3
   0  -4  -6 1244.86   37.56  -2
   6  -4   0 1244.86   37.56   1
   6   4   0 1205.36   30.73  -6
  -6   4   6 1205.36   30.73  -5
   0   4  -6 1205.36   30.73  -4
  -6   4   6 1205.36   30.73  -3
   0   4  -6 1205.36   30.73  -2
   6   4   0 1205.36   30.73   1
   7  -4   0  690.45   40.95  -6
  -7  -4   7  690.45   40.95  -5
   0  -4  -7  690.45   40.95  -4
  -7  -4   7  690.45   40.95  -3
   0  -4  -7  690.45   40.95  -2
   7  -4   0  690.45   40.95   1
   7   4   0  609.19   31.45  -6
  -7   4   7  609.19   31.45  -5
   0   4  -7  609.19   31.45  -4
  -7   4   7  609.19   31.45  -3
   0   4  -7  609.19   31.45  -2
   7   4   0  609.19   31.45   1
   8  -4   0  267.20   39.84  -6
  -8  -4   8  267.20   39.84  -5
   0  -4  -8  267.20   39.84  -4
  -8  -4   8  267.20   39.84  -3
   0  -4  -8  267.20   39.84  -2
   8  -4   0  267.20   39.84   1
   8   4   0  206.66   22.21  -6
  -8   4   8  206.66   22.21  -5
   0   4  -8  206.66   22.21  -4
  -8   4   8  206.66   22.21  -3
   0   4  -8  206.66   22.21  -2
   8   4   0  206.66   22.21   1
   0  -5   0    1.15    6.54  -6
   0  -5   0    1.15    6.54  -5
   0  -5   0    1.15    6.54  -4
   0  -5   0    1.15    6.54  -3
   0  -5   0    1.15    6.54  -2
   0  -5   0    1.15    6.54   1
   0   5   0    3.97    7.91  -6
   0   5   0    3.97    7.91  -5
   0   5   0    3.97    7.91  -4
   0   5   0    3.97    7.91  -3
   0   5   0    3.97    7.91  -2
   0   5   0    3.97    7.91   1
   1  -5   0  366.88    6.60  -6
  -1  -5   1  366.88    6.60  -5
   0  -5  -1  366.88    6.60  -4
  -1  -5   1  366.88    6.60  -3
   0  -5  -1  366.88    6.60  -2
   1  -5   0  366.88    6.60   1
   1   5   0  315.98    7.80  -6
  -1   5   1  315.98    7.80  -5
   0   5  -1  315.98    7.80  -4
  -1   5   1  315.98    7.80  -3
   0   5  -1  315.98    7.80  -2
   1   5   0  315.98    7.80   1
   2  -5   0 1828.36    8.55  -6
  -2  -5   2 1828.36    8.55  -5
   0  -5  -2 1828.36    8.55  -4
  -2  -5   2 1828.36    8.55  -3
   0  -5  -2 1828.36    8.55  -2
   2  -5   0 1828.36    8.55   1
   2   5   0 1813.78    9.58  -6
  -2   5   2 1813.78    9.58  -5
   0   5  -2 1813.78    9.58  -4
  -2   5   2 1813.78    9.58  -3
   0   5  -2 1813.78    9.58  -2
   2   5   0 1813.78    9.58   1
   3  -5   0 1421.36   15.17  -6
  -3  -5   3 1421.36   15.17  -5
   0  -5  -3 1421.36   15.17  -4
  -3  -5   3 1421.36   15.17  -3
   0  -5  -3 1421.36   15.17  -2
   3  -5   0 1421.36   15.17   1
   3   5   0 1367.36   18.97  -6
  -3   5   3 1367.36   18.97  -5
   0   5  -3 1367.36   18.97  -4
  -3   5   3 1367.36   18.97  -3
   0   5  -3 1367.36   18.97  -2
   3   5   0 1367.36   18.97   1
   4  -5   0 1847.67   19.17  -6
  -4  -5   4 1847.67   19.17  -5
   0  -5  -4 1847.67   19.17  -4
  -4  -5   4 1847.67   19.17  -3
   0  -5  -4 1847.67   19.17  -2
   4  -5   0 1847.67   19.17   1
   4   5   0 1823.82   29.82  -6
  -4   5   4 1823.82   29.82  -5
   0   5  -4 1823.82   29.82  -4
  -4   5   4 1823.82   29.82  -3
   0   5  -4 1823.82   29.82  -2
   4   5   0 1823.82   29.82   1
   5  -5   0  860.60   11.01  -6
  -5  -5   5  860.60   11.01  -5
   0  -5  -5  860.60   11.01  -4
  -5  -5   5  860.60   11.01  -3
   0  -5  -5  860.60   11.01  -2
   5  -5   0  860.60   11.01   1
   5   5   0  926.77   11.49  -6
  -5   5   5  926.77   11.49  -5
   0   5  -5  926.77   11.49  -4
  -5   5   5  926.77   11.49  -3
   0   5  -5  926.77   11.49  -2
   5   5   0  926.77   11.49   1
   6  -5   0 1528.49   40.14  -6
  -6  -5   6 1528.49   40.14  -5
   0  -5  -6 1528.49   40.14  -4
  -6  -5   6 1528.49   40.14  -3
   0  -5  -6 1528.49   40.14  -2
   6  -5   0 1528.49   40.14   1
   6   5   0 1324.47   30.29  -6
  -6   5   6 1324.47   30.29  -5
   0   5  -6 1324.47   30.29  -4
  -6   5   6 1324.47   30.29  -3
   0   5  -6 1324.47   30.29  -2
   6   5   0 1324.47   30.29   1
   7   5   0  614.96   22.39  -6
  -7   5   7  614.96   22.39  -5
   0   5  -7  614.96   22.39  -4
  -7   5   7  614.96   22.39  -3
   0   5  -7  614.96   22.39  -2
   7   5   0  614.96   22.39   1
   8  -5   0  591.09   43.20  -6
  -8  -5   8  591.09   43.20  -5
   0  -5  -8  591.09   43.20  -4
  -8  -5   8  591.09   43.20  -3
   0  -5  -8  591.09   43.20  -2
   8  -5   0  591.09   43.20   1
   8   5   0  323.40   35.14  -6
  -8   5   8  323.40   35.14  -5
   0   5  -8  323.40   35.14  -4
  -8   5   8  323.40   35.14  -3
   0   5  -8  323.40   35.14  -2
   8   5   0  323.40   35.14   1
   1  -6   0 5989.12   16.93  -6
  -1  -6   1 5989.12   16.93  -5
   0  -6  -1 5989.12   16.93  -4
  -1  -6   1 5989.12   16.93  -3
   0  -6  -1 5989.12   16.93  -2
   1  -6   0 5989.12   16.93   1
   1   6   0 5854.41   26.26  -6
  -1   6   1 5854.41   26.26  -5
   0   6  -1 5854.41   26.26  -4
  -1   6   1 5854.41   26.26  -3
   0   6  -1 5854.41   26.26  -2
   1   6   0 5854.41   26.26   1
   2  -6   0 6778.07   15.83  -6
  -2  -6   2 6778.07   15.83  -5
   0  -6  -2 6778.07   15.83  -4
  -2  -6   2 6778.07   15.83  -3
   0  -6  -2 6778.07   15.83  -2
   2  -6   0 6778.07   15.83   1
   2   6   0 7039.35   18.68  -6
  -2   6   2 7039.35   18.68  -5
   0   6  -2 7039.35   18.68  -4
  -2   6   2 7039.35   18.68  -3
   0   6  -2 7039.35   18.68  -2
   2   6   0 7039.35   18.68   1
   3  -6   0 4124.77   20.03  -6
  -3  -6   3 4124.77   20.03  -5
   0  -6  -3 4124.77   20.03  -4
  -3  -6   3 4124.77   20.03  -3
   0  -6  -3 4124.77   20.03  -2
   3  -6   0 4124.77   20.03   1
   3   6   0 4052.82   27.67  -6
  -3   6   3 4052.82   27.67  -5
   0   6  -3 4052.82   27.67  -4
  -3   6   3 4052.82   27.67  -3
   0   6  -3 4052.82   27.67  -2
   3   6   0 4052.82   27.67   1
   4  -6   0 3292.98   23.56  -6
  -4  -6   4 3292.98   23.56  -5
   0  -6  -4 3292.98   23.56  -4
  -4  -6   4 3292.98   23.56  -3
   0  -6  -4 3292.98   23.56  -2
   4  -6   0 3292.98   23.56   1
   4   6   0 3178.37   26.14  -6
  -4   6   4 3178.37   26.14  -5
   0   6  -4 3178.37   26.14  -4
  -4   6   4 3178.37   26.14  -3
   0   6  -4 3178.37   26.14  -2
   4   6   0 3178.37   26.14   1
   5  -6   0 2074.54   39.21  -6
  -5  -6   5 2074.54   39.21  -5
   0  -6  -5 2074.54   39.21  -4
  -5  -6   5 2074.54   39.21  -3
   0  -6  -5 2074.54   39.21  -2
   5  -6   0 2074.54   39.21   1
   5   6   0 2072.87   35.06  -6
  -5   6   5 2072.87   35.06  -5
   0   6  -5 2072.87   35.06  -4
  -5   6   5 2072.87   35.06  -3
   0   6  -5 2072.87   35.06  -2
   5   6   0 2072.87   35.06   1
   6  -6   0  788.14   37.82  -6
  -6  -6   6  788.14   37.82  -5
   0  -6  -6  788.14   37.82  -4
  -6  -6   6  788.14   37.82  -3
   0  -6  -6  788.14   37.82  -2
   6  -6   0  788.14   37.82   1
   6   6   0  724.55   26.93  -6
  -6   6   6  724.55   26.93  -5
   0   6  -6  724.55   26.93  -4
  -6   6   6  724.55   26.93  -3
   0   6  -6  724.55   26.93  -2
   6   6   0  724.55   26.93   1
   7  -6   0  480.93   41.11  -6
  -7  -6   7  480.93   41.11  -5
   0  -6  -7  480.93   41.11  -4
  -7  -6   7  480.93   41.11  -3
   0  -6  -7  480.93   41.11  -2
   7  -6   0  480.93   41.11   1
   7   6   0  274.73   30.14  -6
  -7   6   7  274.73   30.14  -5
   0   6  -7  274.73   30.14  -4
  -7   6   7  274.73   30.14  -3
   0   6  -7  274.73   30.14  -2
   7   6   0  274.73   30.14   1
   8   6   0  113.48   31.88  -6
  -8   6   8  113.48   31.88  -5
   0   6  -8  113.48   31.88  -4
  -8   6   8  113.48   31.88  -3
   0   6  -8  113.48   31.88  -2
   8   6   0  113.48   31.88   1
   0  -7   0    3.55    6.81  -6
   0  -7   0    3.55    6.81  -5
   0  -7   0    3.55    6.81  -4
   0  -7   0    3.55    6.81  -3
   0  -7   0    3.55    6.81  -2
   0  -7   0    3.55    6.81   1
   1  -7   0  244.61    7.37  -6
  -1  -7   1  244.61    7.37  -5
   0  -7  -1  244.61    7.37  -4
  -1  -7   1  244.61    7.37  -3
   0  -7  -1  244.61    7.37  -2
   1  -7   0  244.61    7.37   1
   1   7   0  250.61   12.35  -6
  -1   7   1  250.61   12.35  -5
   0   7  -1  250.61   12.35  -4
  -1   7   1  250.61   12.35  -3
   0   7  -1  250.61   12.35  -2
   1   7   0  250.61   12.35   1
   2  -7   0 1136.13   15.70  -6
  -2  -7   2 1136.13   15.70  -5
   0  -7  -2 1136.13   15.70  -4
  -2  -7   2 1136.13   15.70  -3
   0  -7  -2 1136.13   15.70  -2
   2  -7   0 1136.13   15.70   1
   3  -7   0 1165.60   29.11  -6
  -3  -7   3 1165.60   29.11  -5
   0  -7  -3 1165.60   29.11  -4
  -3  -7   3 1165.60   29.11  -3
   0  -7  -3 1165.60   29.11  -2
   3  -7   0 1165.60   29.11   1
   3   7   0 1269.67   11.55  -6
  -3   7   3 1269.67   11.55  -5
   0   7  -3 1269.67   11.55  -4
  -3   7   3 1269.67   11.55  -3
   0   7  -3 1269.67   11.55  -2
   3   7   0 1269.67   11.55   1
   4  -7   0 1352.19   34.10  -6
  -4  -7   4 1352.19   34.10  -5
   0  -7  -4 1352.19   34.10  -4
  -4  -7   4 1352.19   34.10  -3
   0  -7  -4 1352.19   34.10  -2
   4  -7   0 1352.19   34.10   1
   4   7   0 1345.88   22.95  -6
  -4   7   4 1345.88   22.95  -5
   0   7  -4 1345.88   22.95  -4
  -4   7   4 1345.88   22.95  -3
   0   7  -4 1345.88   22.95  -2
   4   7   0 1345.88   22.95   1
   5  -7   0 1676.67   38.94  -6
  -5  -7   5 1676.67   38.94  -5
   0  -7  -5 1676.67   38.94  -4
  -5  -7   5 1676.67   38.94  -3
   0  -7  -5 1676.67   38.94  -2
   5  -7   0 1676.67   38.94   1
   5   7   0 1489.41   36.96  -6
  -5   7   5 1489.41   36.96  -5
   0   7  -5 1489.41   36.96  -4
  -5   7   5 1489.41   36.96  -3
   0   7  -5 1489.41   36.96  -2
   5   7   0 1489.41   36.96   1
   6  -7   0 1095.78   39.80  -6
  -6  -7   6 1095.78   39.80  -5
   0  -7  -6 1095.78   39.80  -4
  -6  -7   6 1095.78   39.80  -3
   0  -7  -6 1095.78   39.80  -2
   6  -7   0 1095.78   39.80   1
   6   7   0  783.84   33.27  -6
  -6   7   6  783.84   33.27  -5
   0   7  -6  783.84   33.27  -4
  -6   7   6  783.84   33.27  -3
   0   7  -6  783.84   33.27  -2
   6   7   0  783.84   33.27   1
   7  -7   0  787.50   43.39  -6
  -7  -7   7  787.50   43.39  -5
   0  -7  -7  787.50   43.39  -4
  -7  -7   7  787.50   43.39  -3
   0  -7  -7  787.50   43.39  -2
   7  -7   0  787.50   43.39   1
   7   7   0  369.84   30.48  -6
  -7   7   7  369.84   30.48  -5
   0   7  -7  369.84   30.48  -4
  -7   7   7  369.84   30.48  -3
   0   7  -7  369.84   30.48  -2
   7   7   0  369.84   30.48   1
   8   7   0  235.21   32.13  -6
  -8   7   8  235.21   32.13  -5
   0   7  -8  235.21   32.13  -4
  -8   7   8  235.21   32.13  -3
   0   7  -8  235.21   32.13  -2
   8   7   0  235.21   32.13   1
   0  -8   0 1416.51   15.83  -6
   0  -8   0 1416.51   15.83  -5
   0  -8   0 1416.51   15.83  -4
   0  -8   0 1416.51   15.83  -3
   0  -8   0 1416.51   15.83  -2
   0  -8   0 1416.51   15.83   1
   0   8   0 1468.81   26.19  -6
   0   8   0 1468.81   26.19  -5
   0   8   0 1468.81   26.19  -4
   0   8   0 1468.81   26.19  -3
   0   8   0 1468.81   26.19  -2
   0   8   0 1468.81   26.19   1
   1  -8   0 2518.77   12.82  -6
  -1  -8   1 2518.77   12.82  -5
   0  -8  -1 2518.77   12.82  -4
  -1  -8   1 2518.77   12.82  -3
   0  -8  -1 2518.77   12.82  -2
   1  -8   0 2518.77   12.82   1
   1   8   0 2806.45   19.52  -6
  -1   8   1 2806.45   19.52  -5
   0   8  -1 2806.45   19.52  -4
  -1   8   1 2806.45   19.52  -3
   0   8  -1 2806.45   19.52  -2
   1   8   0 2806.45   19.52   1
   2  -8   0 3328.80   19.21  -6
  -2  -8   2 3328.80   19.21  -5
   0  -8  -2 3328.80   19.21  -4
  -2  -8   2 3328.80   19.21  -3
   0  -8  -2 3328.80   19.21  -2
   2  -8   0 3328.80   19.21   1
   2   8   0 3708.86   25.42  -6
  -2   8   2 3708.86   25.42  -5
   0   8  -2 3708.86   25.42  -4
  -2   8   2 3708.86   25.42  -3
   0   8  -2 3708.86   25.42  -2
   2   8   0 3708.86   25.42   1
   3  -8   0 2809.09   37.19  -6
  -3  -8   3 2809.09   37.19  -5
   0  -8  -3 2809.09   37.19  -4
  -3  -8   3 2809.09   37.19  -3
   0  -8  -3 2809.09   37.19  -2
   3  -8   0 2809.09   37.19   1
   3   8   0 3265.57   15.83  -6
  -3   8   3 3265.57   15.83  -5
   0   8  -3 3265.57   15.83  -4
  -3   8   3 3265.57   15.83  -3
   0   8  -3 3265.57   15.83  -2
   3   8   0 3265.57   15.83   1
   4  -8   0 1927.76   37.29  -6
  -4  -8   4 1927.76   37.29  -5
   0  -8  -4 1927.76   37.29  -4
  -4  -8   4 1927.76   37.29  -3
   0  -8  -4 1927.76   37.29  -2
   4  -8   0 1927.76   37.29   1
   4   8   0 1923.30   26.71  -6
  -4   8   4 1923.30   26.71  -5
   0   8  -4 1923.30   26.71  -4
  -4   8   4 1923.30   26.71  -3
   0   8  -4 1923.30   26.71  -2
   4   8   0 1923.30   26.71   1
   5  -8   0 1318.58   37.84  -6
  -5  -8   5 1318.58   37.84  -5
   0  -8  -5 1318.58   37.84  -4
  -5  -8   5 1318.58   37.84  -3
   0  -8  -5 1318.58   37.84  -2
   5  -8   0 1318.58   37.84   1
   5   8   0 1377.23   34.76  -6
  -5   8   5 1377.23   34.76  -5
   0   8  -5 1377.23   34.76  -4
  -5   8   5 1377.23   34.76  -3
   0   8  -5 1377.23   34.76  -2
   5   8   0 1377.23   34.76   1
   6  -8   0  672.56   38.07  -6
  -6  -8   6  672.56   38.07  -5
   0  -8  -6  672.56   38.07  -4
  -6  -8   6  672.56   38.07  -3
   0  -8  -6  672.56   38.07  -2
   6  -8   0  672.56   38.07   1
   6   8   0  476.83   29.96  -6
  -6   8   6  476.83   29.96  -5
   0   8  -6  476.83   29.96  -4
  -6   8   6  476.83   29.96  -3
   0   8  -6  476.83   29.96  -2
   6   8   0  476.83   29.96   1
   7  -8   0  291.34   40.07  -6
  -7  -8   7  291.34   40.07  -5
   0  -8  -7  291.34   40.07  -4
  -7  -8   7  291.34   40.07  -3
   0  -8  -7  291.34   40.07  -2
   7  -8   0  291.34   40.07   1
   7   8   0  156.90   30.73  -6
  -7   8   7  156.90   30.73  -5
   0   8  -7  156.90   30.73  -4
  -7   8   7  156.90   30.73  -3
   0   8  -7  156.90   30.73  -2
   7   8   0  156.90   30.73   1
   0  -9   0    1.78    7.11  -6
   0  -9   0    1.78    7.11  -5
   0  -9   0    1.78    7.11  -4
   0  -9   0    1.78    7.11  -3
   0  -9   0    1.78    7.11  -2
   0  -9   0    1.78    7.11   1
   0   9   0    1.64   19.30  -6
   0   9   0    1.64   19.30  -5
   0   9   0    1.64   19.30  -4
   0   9   0    1.64   19.30  -3
   0   9   0    1.64   19.30  -2
   0   9   0    1.64   19.30   1
   1  -9   0  257.65    9.64  -6
  -1  -9   1  257.65    9.64  -5
   0  -9  -1  257.65    9.64  -4
  -1  -9   1  257.65    9.64  -3
   0  -9  -1  257.65    9.64  -2
   1  -9   0  257.65    9.64   1
   1   9   0  260.75   14.82  -6
  -1   9   1  260.75   14.82  -5
   0   9  -1  260.75   14.82  -4
  -1   9   1  260.75   14.82  -3
   0   9  -1  260.75   14.82  -2
   1   9   0  260.75   14.82   1
   2  -9   0  672.81   13.49  -6
  -2  -9   2  672.81   13.49  -5
   0  -9  -2  672.81   13.49  -4
  -2  -9   2  672.81   13.49  -3
   0  -9  -2  672.81   13.49  -2
   2  -9   0  672.81   13.49   1
   2   9   0  677.48   17.01  -6
  -2   9   2  677.48   17.01  -5
   0   9  -2  677.48   17.01  -4
  -2   9   2  677.48   17.01  -3
   0   9  -2  677.48   17.01  -2
   2   9   0  677.48   17.01   1
   3  -9   0  731.12   28.58  -6
  -3  -9   3  731.12   28.58  -5
   0  -9  -3  731.12   28.58  -4
  -3  -9   3  731.12   28.58  -3
   0  -9  -3  731.12   28.58  -2
   3  -9   0  731.12   28.58   1
   3   9   0  729.98   13.87  -6
  -3   9   3  729.98   13.87  -5
   0   9  -3  729.98   13.87  -4
  -3   9   3  729.98   13.87  -3
   0   9  -3  729.98   13.87  -2
   3   9   0  729.98   13.87   1
   4  -9   0  595.90   30.37  -6
  -4  -9   4  595.90   30.37  -5
   0  -9  -4  595.90   30.37  -4
  -4  -9   4  595.90   30.37  -3
   0  -9  -4  595.90   30.37  -2
   4  -9   0  595.90   30.37   1
   4   9   0  589.48   17.65  -6
  -4   9   4  589.48   17.65  -5
   0   9  -4  589.48   17.65  -4
  -4   9   4  589.48   17.65  -3
   0   9  -4  589.48   17.65  -2
   4   9   0  589.48   17.65   1
   5  -9   0  925.55   36.71  -6
  -5  -9   5  925.55   36.71  -5
   0  -9  -5  925.55   36.71  -4
  -5  -9   5  925.55   36.71  -3
   0  -9  -5  925.55   36.71  -2
   5  -9   0  925.55   36.71   1
   5   9   0  608.26   15.81  -6
  -5   9   5  608.26   15.81  -5
   0   9  -5  608.26   15.81  -4
  -5   9   5  608.26   15.81  -3
   0   9  -5  608.26   15.81  -2
   5   9   0  608.26   15.81   1
   6  -9   0  562.50   39.41  -6
  -6  -9   6  562.50   39.41  -5
   0  -9  -6  562.50   39.41  -4
  -6  -9   6  562.50   39.41  -3
   0  -9  -6  562.50   39.41  -2
   6  -9   0  562.50   39.41   1
   6   9   0  282.12   28.73  -6
  -6   9   6  282.12   28.73  -5
   0   9  -6  282.12   28.73  -4
  -6   9   6  282.12   28.73  -3
   0   9  -6  282.12   28.73  -2
   6   9   0  282.12   28.73   1
   7  -9   0  283.14   40.57  -6
  -7  -9   7  283.14   40.57  -5
   0  -9  -7  283.14   40.57  -4
  -7  -9   7  283.14   40.57  -3
   0  -9  -7  283.14   40.57  -2
   7  -9   0  283.14   40.57   1
   7   9   0  159.09   31.78  -6
  -7   9   7  159.09   31.78  -5
   0   9  -7  159.09   31.78  -4
  -7   9   7  159.09   31.78  -3
   0   9  -7  159.09   31.78  -2
   7   9   0  159.09   31.78   1
   0 -10   0  778.70   12.78  -6
   0 -10   0  778.70   12.78  -5
   0 -10   0  778.70   12.78  -4
   0 -10   0  778.70   12.78  -3
   0 -10   0  778.70   12.78  -2
   0 -10   0  778.70   12.78   1
   1 -10   0 2364.20   13.98  -6
  -1 -10   1 2364.20   13.98  -5
   0 -10  -1 2364.20   13.98  -4
  -1 -10   1 2364.20   13.98  -3
   0 -10  -1 2364.20   13.98  -2
   1 -10   0 2364.20   13.98   1
   1  10   0 2263.53   24.23  -6
  -1  10   1 2263.53   24.23  -5
   0  10  -1 2263.53   24.23  -4
  -1  10   1 2263.53   24.23  -3
   0  10  -1 2263.53   24.23  -2
   1  10   0 2263.53   24.23   1
   2 -10   0 3165.45   20.21  -6
  -2 -10   2 3165.45   20.21  -5
   0 -10  -2 3165.45   20.21  -4
  -2 -10   2 3165.45   20.21  -3
   0 -10  -2 3165.45   20.21  -2
   2 -10   0 3165.45   20.21   1
   2  10   0 3144.23   20.78  -6
  -2  10   2 3144.23   20.78  -5
   0  10  -2 3144.23   20.78  -4
  -2  10   2 3144.23   20.78  -3
   0  10  -2 3144.23   20.78  -2
   2  10   0 3144.23   20.78   1
   3 -10   0 1862.36   27.19  -6
  -3 -10   3 1862.36   27.19  -5
   0 -10  -3 1862.36   27.19  -4
  -3 -10   3 1862.36   27.19  -3
   0 -10  -3 1862.36   27.19  -2
   3 -10   0 1862.36   27.19   1
   3  10   0 1876.42   22.03  -6
  -3  10   3 1876.42   22.03  -5
   0  10  -3 1876.42   22.03  -4
  -3  10   3 1876.42   22.03  -3
   0  10  -3 1876.42   22.03  -2
   3  10   0 1876.42   22.03   1
   4 -10   0 1653.19   37.54  -6
  -4 -10   4 1653.19   37.54  -5
   0 -10  -4 1653.19   37.54  -4
  -4 -10   4 1653.19   37.54  -3
   0 -10  -4 1653.19   37.54  -2
   4 -10   0 1653.19   37.54   1
   4  10   0 1664.21   22.80  -6
  -4  10   4 1664.21   22.80  -5
   0  10  -4 1664.21   22.80  -4
  -4  10   4 1664.21   22.80  -3
   0  10  -4 1664.21   22.80  -2
   4  10   0 1664.21   22.80   1
   5 -10   0 1179.98   39.56  -6
  -5 -10   5 1179.98   39.56  -5
   0 -10  -5 1179.98   39.56  -4
  -5 -10   5 1179.98   39.56  -3
   0 -10  -5 1179.98   39.56  -2
   5 -10   0 1179.98   39.56   1
   5  10   0  984.19   34.00  -6
  -5  10   5  984.19   34.00  -5
   0  10  -5  984.19   34.00  -4
  -5  10   5  984.19   34.00  -3
   0  10  -5  984.19   34.00  -2
   5  10   0  984.19   34.00   1
   6 -10   0  607.48   44.95  -6
  -6 -10   6  607.48   44.95  -5
   0 -10  -6  607.48   44.95  -4
  -6 -10   6  607.48   44.95  -3
   0 -10  -6  607.48   44.95  -2
   6 -10   0  607.48   44.95   1
   6  10   0  355.13   32.37  -6
  -6  10   6  355.13   32.37  -5
   0  10  -6  355.13   32.37  -4
  -6  10   6  355.13   32.37  -3
   0  10  -6  355.13   32.37  -2
   6  10   0  355.13   32.37   1
   7  10   0  141.24   23.37  -6
  -7  10   7  141.24   23.37  -5
   0  10  -7  141.24   23.37  -4
  -7  10   7  141.24   23.37  -3
   0  10  -7  141.24   23.37  -2
   7  10   0  141.24   23.37   1
   0 -11   0    1.53   10.88  -6
   0 -11   0    1.53   10.88  -5
   0 -11   0    1.53   10.88  -4
   0 -11   0    1.53   10.88  -3
   0 -11   0    1.53   10.88  -2
   0 -11   0    1.53   10.88   1
   0  11   0    0.29   23.17  -6
   0  11   0    0.29   23.17  -5
   0  11   0    0.29   23.17  -4
   0  11   0    0.29   23.17  -3
   0  11   0    0.29   23.17  -2
   0  11   0    0.29   23.17   1
   1 -11   0  208.79   15.38  -6
  -1 -11   1  208.79   15.38  -5
   0 -11  -1  208.79   15.38  -4
  -1 -11   1  208.79   15.38  -3
   0 -11  -1  208.79   15.38  -2
   1 -11   0  208.79   15.38   1
   1  11   0  227.86   12.74  -6
  -1  11   1  227.86   12.74  -5
   0  11  -1  227.86   12.74  -4
  -1  11   1  227.86   12.74  -3
   0  11  -1  227.86   12.74  -2
   1  11   0  227.86   12.74   1
   2 -11   0  624.77   19.92  -6
  -2 -11   2  624.77   19.92  -5
   0 -11  -2  624.77   19.92  -4
  -2 -11   2  624.77   19.92  -3
   0 -11  -2  624.77   19.92  -2
   2 -11   0  624.77   19.92   1
   2  11   0  628.85   15.13  -6
  -2  11   2  628.85   15.13  -5
   0  11  -2  628.85   15.13  -4
  -2  11   2  628.85   15.13  -3
   0  11  -2  628.85   15.13  -2
   2  11   0  628.85   15.13   1
   3 -11   0  533.15   22.41  -6
  -3 -11   3  533.15   22.41  -5
   0 -11  -3  533.15   22.41  -4
  -3 -11   3  533.15   22.41  -3
   0 -11  -3  533.15   22.41  -2
   3 -11   0  533.15   22.41   1
   3  11   0  489.12   14.55  -6
  -3  11   3  489.12   14.55  -5
   0  11  -3  489.12   14.55  -4
  -3  11   3  489.12   14.55  -3
   0  11  -3  489.12   14.55  -2
   3  11   0  489.12   14.55   1
   4 -11   0  952.83   27.79  -6
  -4 -11   4  952.83   27.79  -5
   0 -11  -4  952.83   27.79  -4
  -4 -11   4  952.83   27.79  -3
   0 -11  -4  952.83   27.79  -2
   4 -11   0  952.83   27.79   1
   4  11   0  877.61   20.58  -6
  -4  11   4  877.61   20.58  -5
   0  11  -4  877.61   20.58  -4
  -4  11   4  877.61   20.58  -3
   0  11  -4  877.61   20.58  -2
   4  11   0  877.61   20.58   1
   5 -11   0 1082.54   41.93  -6
  -5 -11   5 1082.54   41.93  -5
   0 -11  -5 1082.54   41.93  -4
  -5 -11   5 1082.54   41.93  -3
   0 -11  -5 1082.54   41.93  -2
   5 -11   0 1082.54   41.93   1
   5  11   0  902.57   35.39  -6
  -5  11   5  902.57   35.39  -5
   0  11  -5  902.57   35.39  -4
  -5  11   5  902.57   35.39  -3
   0  11  -5  902.57   35.39  -2
   5  11   0  902.57   35.39   1
   6 -11   0  875.90   45.40  -6
  -6 -11   6  875.90   45.40  -5
   0 -11  -6  875.90   45.40  -4
  -6 -11   6  875.90   45.40  -3
   0 -11  -6  875.90   45.40  -2
   6 -11   0  875.90   45.40   1
   6  11   0  573.86   36.16  -6
  -6  11   6  573.86   36.16  -5
   0  11  -6  573.86   36.16  -4
  -6  11   6  573.86   36.16  -3
   0  11  -6  573.86   36.16  -2
   6  11   0  573.86   36.16   1
   7  11   0  421.74   38.34  -6
  -7  11   7  421.74   38.34  -5
   0  11  -7  421.74   38.34  -4
  -7  11   7  421.74   38.34  -3
   0  11  -7  421.74   38.34  -2
   7  11   0  421.74   38.34   1
   0 -12   0 2905.25   47.55  -6
   0 -12   0 2905.25   47.55  -5
   0 -12   0 2905.25   47.55  -4
   0 -12   0 2905.25   47.55  -3
   0 -12   0 2905.25   47.55  -2
   0 -12   0 2905.25   47.55   1
   0  12   0 3174.01   44.16  -6
   0  12   0 3174.01   44.16  -5
   0  12   0 3174.01   44.16  -4
   0  12   0 3174.01   44.16  -3
   0  12   0 3174.01   44.16  -2
   0  12   0 3174.01   44.16   1
   1 -12   0 2812.34   50.36  -6
  -1 -12   1 2812.34   50.36  -5
   0 -12  -1 2812.34   50.36  -4
  -1 -12   1 2812.34   50.36  -3
   0 -12  -1 2812.34   50.36  -2
   1 -12   0 2812.34   50.36   1
   1  12   0 2798.62   30.30  -6
  -1  12   1 2798.62   30.30  -5
   0  12  -1 2798.62   30.30  -4
  -1  12   1 2798.62   30.30  -3
   0  12  -1 2798.62   30.30  -2
   1  12   0 2798.62   30.30   1
   2 -12   0 2599.35   34.60  -6
  -2 -12   2 2599.35   34.60  -5
   0 -12  -2 2599.35   34.60  -4
  -2 -12   2 2599.35   34.60  -3
   0 -12  -2 2599.35   34.60  -2
   2 -12   0 2599.35   34.60   1
   2  12   0 2652.61   21.84  -6
  -2  12   2 2652.61   21.84  -5
   0  12  -2 2652.61   21.84  -4
  -2  12   2 2652.61   21.84  -3
   0  12  -2 2652.61   21.84  -2
   2  12   0 2652.61   21.84   1
   3 -12   0 2143.91   29.73  -6
  -3 -12   3 2143.91   29.73  -5
   0 -12  -3 2143.91   29.73  -4
  -3 -12   3 2143.91   29.73  -3
   0 -12  -3 2143.91   29.73  -2
   3 -12   0 2143.91   29.73   1
   3  12   0 2245.87   21.74  -6
  -3  12   3 2245.87   21.74  -5
   0  12  -3 2245.87   21.74  -4
  -3  12   3 2245.87   21.74  -3
   0  12  -3 2245.87   21.74  -2
   3  12   0 2245.87   21.74   1
   4 -12   0 1672.91   32.23  -6
  -4 -12   4 1672.91   32.23  -5
   0 -12  -4 1672.91   32.23  -4
  -4 -12   4 1672.91   32.23  -3
   0 -12  -4 1672.91   32.23  -2
   4 -12   0 1672.91   32.23   1
   4  12   0 1599.93   24.80  -6
  -4  12   4 1599.93   24.80  -5
   0  12  -4 1599.93   24.80  -4
  -4  12   4 1599.93   24.80  -3
   0  12  -4 1599.93   24.80  -2
   4  12   0 1599.93   24.80   1
   5 -12   0  763.36   46.95  -6
  -5 -12   5  763.36   46.95  -5
   0 -12  -5  763.36   46.95  -4
  -5 -12   5  763.36   46.95  -3
   0 -12  -5  763.36   46.95  -2
   5 -12   0  763.36   46.95   1
   5  12   0  710.55   32.22  -6
  -5  12   5  710.55   32.22  -5
   0  12  -5  710.55   32.22  -4
  -5  12   5  710.55   32.22  -3
   0  12  -5  710.55   32.22  -2
   5  12   0  710.55   32.22   1
   6 -12   0  371.86   43.01  -6
  -6 -12   6  371.86   43.01  -5
   0 -12  -6  371.86   43.01  -4
  -6 -12   6  371.86   43.01  -3
   0 -12  -6  371.86   43.01  -2
   6 -12   0  371.86   43.01   1
   6  12   0  223.20   32.57  -6
  -6  12   6  223.20   32.57  -5
   0  12  -6  223.20   32.57  -4
  -6  12   6  223.20   32.57  -3
   0  12  -6  223.20   32.57  -2
   6  12   0  223.20   32.57   1
   0 -13   0    3.78   31.99  -6
   0 -13   0    3.78   31.99  -5
   0 -13   0    3.78   31.99  -4
   0 -13   0    3.78   31.99  -3
   0 -13   0    3.78   31.99  -2
   0 -13   0    3.78   31.99   1
   0  13   0    4.66   28.53  -6
   0  13   0    4.66   28.53  -5
   0  13   0    4.66   28.53  -4
   0  13   0    4.66   28.53  -3
   0  13   0    4.66   28.53  -2
   0  13   0    4.66   28.53   1
   1 -13   0  174.31   35.88  -6
  -1 -13   1  174.31   35.88  -5
   0 -13  -1  174.31   35.88  -4
  -1 -13   1  174.31   35.88  -3
   0 -13  -1  174.31   35.88  -2
   1 -13   0  174.31   35.88   1
   1  13   0  167.96   21.51  -6
  -1  13   1  167.96   21.51  -5
   0  13  -1  167.96   21.51  -4
  -1  13   1  167.96   21.51  -3
   0  13  -1  167.96   21.51  -2
   1  13   0  167.96   21.51   1
   2 -13   0  370.69   22.98  -6
  -2 -13   2  370.69   22.98  -5
   0 -13  -2  370.69   22.98  -4
  -2 -13   2  370.69   22.98  -3
   0 -13  -2  370.69   22.98  -2
   2 -13   0  370.69   22.98   1
   2  13   0  354.13   15.66  -6
  -2  13   2  354.13   15.66  -5
   0  13  -2  354.13   15.66  -4
  -2  13   2  354.13   15.66  -3
   0  13  -2  354.13   15.66  -2
   2  13   0  354.13   15.66   1
   3 -13   0  468.97   25.60  -6
  -3 -13   3  468.97   25.60  -5
   0 -13  -3  468.97   25.60  -4
  -3 -13   3  468.97   25.60  -3
   0 -13  -3  468.97   25.60  -2
   3 -13   0  468.97   25.60   1
   3  13   0  472.91   16.88  -6
  -3  13   3  472.91   16.88  -5
   0  13  -3  472.91   16.88  -4
  -3  13   3  472.91   16.88  -3
   0  13  -3  472.91   16.88  -2
   3  13   0  472.91   16.88   1
   4 -13   0  569.69   27.49  -6
  -4 -13   4  569.69   27.49  -5
   0 -13  -4  569.69   27.49  -4
  -4 -13   4  569.69   27.49  -3
   0 -13  -4  569.69   27.49  -2
   4 -13   0  569.69   27.49   1
   4  13   0  639.40   21.82  -6
  -4  13   4  639.40   21.82  -5
   0  13  -4  639.40   21.82  -4
  -4  13   4  639.40   21.82  -3
   0  13  -4  639.40   21.82  -2
   4  13   0  639.40   21.82   1
   5 -13   0  668.40   30.51  -6
  -5 -13   5  668.40   30.51  -5
   0 -13  -5  668.40   30.51  -4
  -5 -13   5  668.40   30.51  -3
   0 -13  -5  668.40   30.51  -2
   5 -13   0  668.40   30.51   1
   5  13   0  544.72   31.67  -6
  -5  13   5  544.72   31.67  -5
   0  13  -5  544.72   31.67  -4
  -5  13   5  544.72   31.67  -3
   0  13  -5  544.72   31.67  -2
   5  13   0  544.72   31.67   1
   0 -14   0 1719.50   47.52  -6
   0 -14   0 1719.50   47.52  -5
   0 -14   0 1719.50   47.52  -4
   0 -14   0 1719.50   47.52  -3
   0 -14   0 1719.50   47.52  -2
   0 -14   0 1719.50   47.52   1
   0  14   0 2234.51   45.60  -6
   0  14   0 2234.51   45.60  -5
   0  14   0 2234.51   45.60  -4
   0  14   0 2234.51   45.60  -3
   0  14   0 2234.51   45.60  -2
   0  14   0 2234.51   45.60   1
   1 -14   0 1803.40   48.68  -6
  -1 -14   1 1803.40   48.68  -5
   0 -14  -1 1803.40   48.68  -4
  -1 -14   1 1803.40   48.68  -3
   0 -14  -1 1803.40   48.68  -2
   1 -14   0 1803.40   48.68   1
   1  14   0 1925.86   30.83  -6
  -1  14   1 1925.86   30.83  -5
   0  14  -1 1925.86   30.83  -4
  -1  14   1 1925.86   30.83  -3
   0  14  -1 1925.86   30.83  -2
   1  14   0 1925.86   30.83   1
   2 -14   0 1385.99   47.80  -6
  -2 -14   2 1385.99   47.80  -5
   0 -14  -2 1385.99   47.80  -4
  -2 -14   2 1385.99   47.80  -3
   0 -14  -2 1385.99   47.80  -2
   2 -14   0 1385.99   47.80   1
   2  14   0 1413.90   40.14  -6
  -2  14   2 1413.90   40.14  -5
   0  14  -2 1413.90   40.14  -4
  -2  14   2 1413.90   40.14  -3
   0  14  -2 1413.90   40.14  -2
   2  14   0 1413.90   40.14   1
   3 -14   0  967.82   45.16  -6
  -3 -14   3  967.82   45.16  -5
   0 -14  -3  967.82   45.16  -4
  -3 -14   3  967.82   45.16  -3
   0 -14  -3  967.82   45.16  -2
   3 -14   0  967.82   45.16   1
   3  14   0 1000.23   26.09  -6
  -3  14   3 1000.23   26.09  -5
   0  14  -3 1000.23   26.09  -4
  -3  14   3 1000.23   26.09  -3
   0  14  -3 1000.23   26.09  -2
   3  14   0 1000.23   26.09   1
   4 -14   0  885.65   46.44  -6
  -4 -14   4  885.65   46.44  -5
   0 -14  -4  885.65   46.44  -4
  -4 -14   4  885.65   46.44  -3
   0 -14  -4  885.65   46.44  -2
   4 -14   0  885.65   46.44   1
   5 -14   0  447.69   40.25  -6
  -5 -14   5  447.69   40.25  -5
   0 -14  -5  447.69   40.25  -4
  -5 -14   5  447.69   40.25  -3
   0 -14  -5  447.69   40.25  -2
   5 -14   0  447.69   40.25   1
   0  15   0    7.20   31.93  -6
   0  15   0    7.20   31.93  -5
   0  15   0    7.20   31.93  -4
   0  15   0    7.20   31.93  -3
   0  15   0    7.20   31.93  -2
   0  15   0    7.20   31.93   1
   1 -15   0   90.34   35.85  -6
  -1 -15   1   90.34   35.85  -5
   0 -15  -1   90.34   35.85  -4
  -1 -15   1   90.34   35.85  -3
   0 -15  -1   90.34   35.85  -2
   1 -15   0   90.34   35.85   1
   1  15   0   86.05   23.48  -6
  -1  15   1   86.05   23.48  -5
   0  15  -1   86.05   23.48  -4
  -1  15   1   86.05   23.48  -3
   0  15  -1   86.05   23.48  -2
   1  15   0   86.05   23.48   1
   2 -15   0  122.67   40.24  -6
  -2 -15   2  122.67   40.24  -5
   0 -15  -2  122.67   40.24  -4
  -2 -15   2  122.67   40.24  -3
   0 -15  -2  122.67   40.24  -2
   2 -15   0  122.67   40.24   1
   2  15   0   90.42   23.22  -6
  -2  15   2   90.42   23.22  -5
   0  15  -2   90.42   23.22  -4
  -2  15   2   90.42   23.22  -3
   0  15  -2   90.42   23.22  -2
   2  15   0   90.42   23.22   1
   3 -15   0  218.58   43.44  -6
  -3 -15   3  218.58   43.44  -5
   0 -15  -3  218.58   43.44  -4
  -3 -15   3  218.58   43.44  -3
   0 -15  -3  218.58   43.44  -2
   3 -15   0  218.58   43.44   1
   3  15   0  210.47   33.66  -6
  -3  15   3  210.47   33.66  -5
   0  15  -3  210.47   33.66  -4
  -3  15   3  210.47   33.66  -3
   0  15  -3  210.47   33.66  -2
   3  15   0  210.47   33.66   1
   0  16   0 1273.22   43.51  -6
   0  16   0 1273.22   43.51  -5
   0  16   0 1273.22   43.51  -4
   0  16   0 1273.22   43.51  -3
   0  16   0 1273.22   43.51  -2
   0  16   0 1273.22   43.51   1
   1  16   0 1337.65   44.41  -6
  -1  16   1 1337.65   44.41  -5
   0  16  -1 1337.65   44.41  -4
  -1  16   1 1337.65   44.41  -3
   0  16  -1 1337.65   44.41  -2
   1  16   0 1337.65   44.41   1
   2  16   0  876.24   41.09  -6
  -2  16   2  876.24   41.09  -5
   0  16  -2  876.24   41.09  -4
  -2  16   2  876.24   41.09  -3
   0  16  -2  876.24   41.09  -2
   2  16   0  876.24   41.09   1
   3  16   0  890.89   40.97  -6
  -3  16   3  890.89   40.97  -5
   0  16  -3  890.89   40.97  -4
  -3  16   3  890.89   40.97  -3
   0  16  -3  890.89   40.97  -2
   3  16   0  890.89   40.97   1
  -8   0  -1  182.21   39.39  -6
   9   0  -8  182.21   39.39  -5
  -1   0   9  182.21   39.39  -4
   8   0  -9  182.21   39.39  -3
   1   0   8  182.21   39.39  -2
  -9   0   1  182.21   39.39   1
  -7   0  -1  315.71   23.48  -6
   8   0  -7  315.71   23.48  -5
  -1   0   8  315.71   23.48  -4
   7   0  -8  315.71   23.48  -3
   1   0   7  315.71   23.48  -2
  -8   0   1  315.71   23.48   1
  -6   0  -1 1221.17   26.59  -6
   7   0  -6 1221.17   26.59  -5
  -1   0   7 1221.17   26.59  -4
   6   0  -7 1221.17   26.59  -3
   1   0   6 1221.17   26.59  -2
  -7   0   1 1221.17   26.59   1
  -5   0  -1 1069.50   30.97  -6
   6   0  -5 1069.50   30.97  -5
  -1   0   6 1069.50   30.97  -4
   5   0  -6 1069.50   30.97  -3
   1   0   5 1069.50   30.97  -2
  -6   0   1 1069.50   30.97   1
  -4   0  -1 2405.96   34.63  -6
   5   0  -4 2405.96   34.63  -5
  -1   0   5 2405.96   34.63  -4
   4   0  -5 2405.96   34.63  -3
   1   0   4 2405.96   34.63  -2
  -5   0   1 2405.96   34.63   1
  -3   0  -1 4027.23   25.88  -6
   4   0  -3 4027.23   25.88  -5
  -1   0   4 4027.23   25.88  -4
   3   0  -4 4027.23   25.88  -3
   1   0   3 4027.23   25.88  -2
  -4   0   1 4027.23   25.88   1
  -2   0  -1 4014.22    8.89  -6
   3   0  -2 4014.22    8.89  -5
  -1   0   3 4014.22    8.89  -4
   2   0  -3 4014.22    8.89  -3
   1   0   2 4014.22    8.89  -2
  -3   0   1 4014.22    8.89   1
  -1   0  -1 8785.84   28.61  -6
   2   0  -1 8785.84   28.61  -5
  -1   0   2 8785.84   28.61  -4
   1   0  -2 8785.84   28.61  -3
   1   0   1 8785.84   28.61  -2
  -2   0   1 8785.84   28.61   1
   2   0  -1 8150.14   22.10  -6
  -1   0   2 8150.14   22.10  -5
  -1   0  -1 8150.14   22.10  -4
  -2   0   1 8150.14   22.10  -3
   1   0  -2 8150.14   22.10  -2
   1   0   1 8150.14   22.10   1
   3   0  -1 4146.52   20.50  -6
  -2   0   3 4146.52   20.50  -5
  -1   0  -2 4146.52   20.50  -4
  -3   0   2 4146.52   20.50  -3
   1   0  -3 4146.52   20.50  -2
   2   0   1 4146.52   20.50   1
   4   0  -1 3301.37   29.63  -6
  -3   0   4 3301.37   29.63  -5
  -1   0  -3 3301.37   29.63  -4
  -4   0   3 3301.37   29.63  -3
   1   0  -4 3301.37   29.63  -2
   3   0   1 3301.37   29.63   1
   5   0  -1 2414.08   26.32  -6
  -4   0   5 2414.08   26.32  -5
  -1   0  -4 2414.08   26.32  -4
  -5   0   4 2414.08   26.32  -3
   1   0  -5 2414.08   26.32  -2
   4   0   1 2414.08   26.32   1
   6   0  -1  787.19   15.60  -6
  -5   0   6  787.19   15.60  -5
  -1   0  -5  787.19   15.60  -4
  -6   0   5  787.19   15.60  -3
   1   0  -6  787.19   15.60  -2
   5   0   1  787.19   15.60   1
   7   0  -1 1202.97   36.12  -6
  -6   0   7 1202.97   36.12  -5
  -1   0  -6 1202.97   36.12  -4
  -7   0   6 1202.97   36.12  -3
   1   0  -7 1202.97   36.12  -2
   6   0   1 1202.97   36.12   1
   8   0  -1  247.54   24.30  -6
  -7   0   8  247.54   24.30  -5
  -1   0  -7  247.54   24.30  -4
  -8   0   7  247.54   24.30  -3
   1   0  -8  247.54   24.30  -2
   7   0   1  247.54   24.30   1
   9   0  -1  115.57   22.45  -6
  -8   0   9  115.57   22.45  -5
  -1   0  -8  115.57   22.45  -4
  -9   0   8  115.57   22.45  -3
   1   0  -9  115.57   22.45  -2
   8   0   1  115.57   22.45   1
  -8  -1  -1  405.79   40.85  -6
   9  -1  -8  405.79   40.85  -5
  -1  -1   9  405.79   40.85  -4
   8  -1  -9  405.79   40.85  -3
   1  -1   8  405.79   40.85  -2
  -9  -1   1  405.79   40.85   1
  -8   1  -1  433.28   40.00  -6
   9   1  -8  433.28   40.00  -5
  -1   1   9  433.28   40.00  -4
   8   1  -9  433.28   40.00  -3
   1   1   8  433.28   40.00  -2
  -9   1   1  433.28   40.00   1
  -7  -1  -1  987.51   28.31  -6
   8  -1  -7  987.51   28.31  -5
  -1  -1   8  987.51   28.31  -4
   7  -1  -8  987.51   28.31  -3
   1  -1   7  987.51   28.31  -2
  -8  -1   1  987.51   28.31   1
  -7   1  -1  862.09   24.94  -6
   8   1  -7  862.09   24.94  -5
  -1   1   8  862.09   24.94  -4
   7   1  -8  862.09   24.94  -3
   1   1   7  862.09   24.94  -2
  -8   1   1  862.09   24.94   1
  -6  -1  -1 1514.97   38.81  -6
   7  -1  -6 1514.97   38.81  -5
  -1  -1   7 1514.97   38.81  -4
   6  -1  -7 1514.97   38.81  -3
   1  -1   6 1514.97   38.81  -2
  -7  -1   1 1514.97   38.81   1
  -6   1  -1 1461.05   38.22  -6
   7   1  -6 1461.05   38.22  -5
  -1   1   7 1461.05   38.22  -4
   6   1  -7 1461.05   38.22  -3
   1   1   6 1461.05   38.22  -2
  -7   1   1 1461.05   38.22   1
  -5  -1  -1 1124.66   16.51  -6
   6  -1  -5 1124.66   16.51  -5
  -1  -1   6 1124.66   16.51  -4
   5  -1  -6 1124.66   16.51  -3
   1  -1   5 1124.66   16.51  -2
  -6  -1   1 1124.66   16.51   1
  -5   1  -1 1183.59   20.93  -6
   6   1  -5 1183.59   20.93  -5
  -1   1   6 1183.59   20.93  -4
   5   1  -6 1183.59   20.93  -3
   1   1   5 1183.59   20.93  -2
  -6   1   1 1183.59   20.93   1
  -4  -1  -1 1840.91   16.91  -6
   5  -1  -4 1840.91   16.91  -5
  -1  -1   5 1840.91   16.91  -4
   4  -1  -5 1840.91   16.91  -3
   1  -1   4 1840.91   16.91  -2
  -5  -1   1 1840.91   16.91   1
  -4   1  -1 1891.54   21.32  -6
   5   1  -4 1891.54   21.32  -5
  -1   1   5 1891.54   21.32  -4
   4   1  -5 1891.54   21.32  -3
   1   1   4 1891.54   21.32  -2
  -5   1   1 1891.54   21.32   1
  -3  -1  -1 1883.77   13.83  -6
   4  -1  -3 1883.77   13.83  -5
  -1  -1   4 1883.77   13.83  -4
   3  -1  -4 1883.77   13.83  -3
   1  -1   3 1883.77   13.83  -2
  -4  -1   1 1883.77   13.83   1
  -2  -1  -1 1146.49    8.65  -6
   3  -1  -2 1146.49    8.65  -5
  -1  -1   3 1146.49    8.65  -4
   2  -1  -3 1146.49    8.65  -3
   1  -1   2 1146.49    8.65  -2
  -3  -1   1 1146.49    8.65   1
  -2   1  -1 1248.49    8.38  -6
   3   1  -2 1248.49    8.38  -5
  -1   1   3 1248.49    8.38  -4
   2   1  -3 1248.49    8.38  -3
   1   1   2 1248.49    8.38  -2
  -3   1   1 1248.49    8.38   1
  -1  -1  -1  736.01    8.96  -6
   2  -1  -1  736.01    8.96  -5
  -1  -1   2  736.01    8.96  -4
   1  -1  -2  736.01    8.96  -3
   1  -1   1  736.01    8.96  -2
  -2  -1   1  736.01    8.96   1
  -1   1  -1  789.02   13.49  -6
   2   1  -1  789.02   13.49  -5
  -1   1   2  789.02   13.49  -4
   1   1  -2  789.02   13.49  -3
   1   1   1  789.02   13.49  -2
  -2   1   1  789.02   13.49   1
   0  -1  -1  729.64    6.16  -6
   1  -1   0  729.64    6.16  -5
  -1  -1   1  729.64    6.16  -4
   0  -1  -1  729.64    6.16  -3
   1  -1   0  729.64    6.16  -2
  -1  -1   1  729.64    6.16   1
   0   1  -1  706.08    9.18  -6
   1   1   0  706.08    9.18  -5
  -1   1   1  706.08    9.18  -4
   0   1  -1  706.08    9.18  -3
   1   1   0  706.08    9.18  -2
  -1   1   1  706.08    9.18   1
   1  -1  -1  684.55    5.96  -6
   0  -1   1  684.55    5.96  -5
  -1  -1   0  684.55    5.96  -4
  -1  -1   0  684.55    5.96  -3
   1  -1  -1  684.55    5.96  -2
   0  -1   1  684.55    5.96   1
   2  -1  -1  810.62   16.69  -6
  -1  -1   2  810.62   16.69  -5
  -1  -1  -1  810.62   16.69  -4
  -2  -1   1  810.62   16.69  -3
   1  -1  -2  810.62   16.69  -2
   1  -1   1  810.62   16.69   1
   2   1  -1  812.05   15.42  -6
  -1   1   2  812.05   15.42  -5
  -1   1  -1  812.05   15.42  -4
  -2   1   1  812.05   15.42  -3
   1   1  -2  812.05   15.42  -2
   1   1   1  812.05   15.42   1
   3  -1  -1 1141.53   19.86  -6
  -2  -1   3 1141.53   19.86  -5
  -1  -1  -2 1141.53   19.86  -4
  -3  -1   2 1141.53   19.86  -3
   1  -1  -3 1141.53   19.86  -2
   2  -1   1 1141.53   19.86   1
   3   1  -1 1156.63   20.26  -6
  -2   1   3 1156.63   20.26  -5
  -1   1  -2 1156.63   20.26  -4
  -3   1   2 1156.63   20.26  -3
   1   1  -3 1156.63   20.26  -2
   2   1   1 1156.63   20.26   1
   4   1  -1 1673.80   15.24  -6
  -3   1   4 1673.80   15.24  -5
  -1   1  -3 1673.80   15.24  -4
  -4   1   3 1673.80   15.24  -3
   1   1  -4 1673.80   15.24  -2
   3   1   1 1673.80   15.24   1
   5  -1  -1 2046.35   25.35  -6
  -4  -1   5 2046.35   25.35  -5
  -1  -1  -4 2046.35   25.35  -4
  -5  -1   4 2046.35   25.35  -3
   1  -1  -5 2046.35   25.35  -2
   4  -1   1 2046.35   25.35   1
   6  -1  -1  766.48    6.68  -6
  -5  -1   6  766.48    6.68  -5
  -1  -1  -5  766.48    6.68  -4
  -6  -1   5  766.48    6.68  -3
   1  -1  -6  766.48    6.68  -2
   5  -1   1  766.48    6.68   1
   6   1  -1 1228.90   16.70  -6
  -5   1   6 1228.90   16.70  -5
  -1   1  -5 1228.90   16.70  -4
  -6   1   5 1228.90   16.70  -3
   1   1  -6 1228.90   16.70  -2
   5   1   1 1228.90   16.70   1
   7  -1  -1 1548.94   38.02  -6
  -6  -1   7 1548.94   38.02  -5
  -1  -1  -6 1548.94   38.02  -4
  -7  -1   6 1548.94   38.02  -3
   1  -1  -7 1548.94   38.02  -2
   6  -1   1 1548.94   38.02   1
   7   1  -1 1516.31   36.54  -6
  -6   1   7 1516.31   36.54  -5
  -1   1  -6 1516.31   36.54  -4
  -7   1   6 1516.31   36.54  -3
   1   1  -7 1516.31   36.54  -2
   6   1   1 1516.31   36.54   1
   8  -1  -1 1377.53   42.73  -6
  -7  -1   8 1377.53   42.73  -5
  -1  -1  -7 1377.53   42.73  -4
  -8  -1   7 1377.53   42.73  -3
   1  -1  -8 1377.53   42.73  -2
   7  -1   1 1377.53   42.73   1
   8   1  -1 1324.99   40.23  -6
  -7   1   8 1324.99   40.23  -5
  -1   1  -7 1324.99   40.23  -4
  -8   1   7 1324.99   40.23  -3
   1   1  -8 1324.99   40.23  -2
   7   1   1 1324.99   40.23   1
   9  -1  -1  410.04   27.12  -6
  -8  -1   9  410.04   27.12  -5
  -1  -1  -8  410.04   27.12  -4
  -9  -1   8  410.04   27.12  -3
   1  -1  -9  410.04   27.12  -2
   8  -1   1  410.04   27.12   1
   9   1  -1  365.82   23.23  -6
  -8   1   9  365.82   23.23  -5
  -1   1  -8  365.82   23.23  -4
  -9   1   8  365.82   23.23  -3
   1   1  -9  365.82   23.23  -2
   8   1   1  365.82   23.23   1
  -8  -2  -1  204.63   40.87  -6
   9  -2  -8  204.63   40.87  -5
  -1  -2   9  204.63   40.87  -4
   8  -2  -9  204.63   40.87  -3
   1  -2   8  204.63   40.87  -2
  -9  -2   1  204.63   40.87   1
  -8   2  -1  222.42   37.44  -6
   9   2  -8  222.42   37.44  -5
  -1   2   9  222.42   37.44  -4
   8   2  -9  222.42   37.44  -3
   1   2   8  222.42   37.44  -2
  -9   2   1  222.42   37.44   1
  -7  -2  -1  490.52   38.45  -6
   8  -2  -7  490.52   38.45  -5
  -1  -2   8  490.52   38.45  -4
   7  -2  -8  490.52   38.45  -3
   1  -2   7  490.52   38.45  -2
  -8  -2   1  490.52   38.45   1
  -7   2  -1  419.66   24.23  -6
   8   2  -7  419.66   24.23  -5
  -1   2   8  419.66   24.23  -4
   7   2  -8  419.66   24.23  -3
   1   2   7  419.66   24.23  -2
  -8   2   1  419.66   24.23   1
  -6  -2  -1 1162.61   40.40  -6
   7  -2  -6 1162.61   40.40  -5
  -1  -2   7 1162.61   40.40  -4
   6  -2  -7 1162.61   40.40  -3
   1  -2   6 1162.61   40.40  -2
  -7  -2   1 1162.61   40.40   1
  -6   2  -1  978.80   34.65  -6
   7   2  -6  978.80   34.65  -5
  -1   2   7  978.80   34.65  -4
   6   2  -7  978.80   34.65  -3
   1   2   6  978.80   34.65  -2
  -7   2   1  978.80   34.65   1
  -5  -2  -1  884.36   16.11  -6
   6  -2  -5  884.36   16.11  -5
  -1  -2   6  884.36   16.11  -4
   5  -2  -6  884.36   16.11  -3
   1  -2   5  884.36   16.11  -2
  -6  -2   1  884.36   16.11   1
  -5   2  -1  989.10   20.86  -6
   6   2  -5  989.10   20.86  -5
  -1   2   6  989.10   20.86  -4
   5   2  -6  989.10   20.86  -3
   1   2   5  989.10   20.86  -2
  -6   2   1  989.10   20.86   1
  -4  -2  -1 1086.20   11.36  -6
   5  -2  -4 1086.20   11.36  -5
  -1  -2   5 1086.20   11.36  -4
   4  -2  -5 1086.20   11.36  -3
   1  -2   4 1086.20   11.36  -2
  -5  -2   1 1086.20   11.36   1
  -3  -2  -1 3535.99   17.34  -6
   4  -2  -3 3535.99   17.34  -5
  -1  -2   4 3535.99   17.34  -4
   3  -2  -4 3535.99   17.34  -3
   1  -2   3 3535.99   17.34  -2
  -4  -2   1 3535.99   17.34   1
  -3   2  -1 3457.37   17.09  -6
   4   2  -3 3457.37   17.09  -5
  -1   2   4 3457.37   17.09  -4
   3   2  -4 3457.37   17.09  -3
   1   2   3 3457.37   17.09  -2
  -4   2   1 3457.37   17.09   1
  -2  -2  -1 3940.53   25.91  -6
   3  -2  -2 3940.53   25.91  -5
  -1  -2   3 3940.53   25.91  -4
   2  -2  -3 3940.53   25.91  -3
   1  -2   2 3940.53   25.91  -2
  -3  -2   1 3940.53   25.91   1
  -2   2  -1 3996.46   12.51  -6
   3   2  -2 3996.46   12.51  -5
  -1   2   3 3996.46   12.51  -4
   2   2  -3 3996.46   12.51  -3
   1   2   2 3996.46   12.51  -2
  -3   2   1 3996.46   12.51   1
  -1  -2  -1 4185.48   11.40  -6
   2  -2  -1 4185.48   11.40  -5
  -1  -2   2 4185.48   11.40  -4
   1  -2  -2 4185.48   11.40  -3
   1  -2   1 4185.48   11.40  -2
  -2  -2   1 4185.48   11.40   1
  -1   2  -1 4046.70   21.40  -6
   2   2  -1 4046.70   21.40  -5
  -1   2   2 4046.70   21.40  -4
   1   2  -2 4046.70   21.40  -3
   1   2   1 4046.70   21.40  -2
  -2   2   1 4046.70   21.40   1
   2  -2  -1 4332.64   18.64  -6
  -1  -2   2 4332.64   18.64  -5
  -1  -2  -1 4332.64   18.64  -4
  -2  -2   1 4332.64   18.64  -3
   1  -2  -2 4332.64   18.64  -2
   1  -2   1 4332.64   18.64   1
   2   2  -1 4300.20   24.76  -6
  -1   2   2 4300.20   24.76  -5
  -1   2  -1 4300.20   24.76  -4
  -2   2   1 4300.20   24.76  -3
   1   2  -2 4300.20   24.76  -2
   1   2   1 4300.20   24.76   1
   3  -2  -1 3514.55   15.53  -6
  -2  -2   3 3514.55   15.53  -5
  -1  -2  -2 3514.55   15.53  -4
  -3  -2   2 3514.55   15.53  -3
   1  -2  -3 3514.55   15.53  -2
   2  -2   1 3514.55   15.53   1
   3   2  -1 3954.49   15.60  -6
  -2   2   3 3954.49   15.60  -5
  -1   2  -2 3954.49   15.60  -4
  -3   2   2 3954.49   15.60  -3
   1   2  -3 3954.49   15.60  -2
   2   2   1 3954.49   15.60   1
   4  -2  -1 3528.49   22.31  -6
  -3  -2   4 3528.49   22.31  -5
  -1  -2  -3 3528.49   22.31  -4
  -4  -2   3 3528.49   22.31  -3
   1  -2  -4 3528.49   22.31  -2
   3  -2   1 3528.49   22.31   1
   4   2  -1 3704.34   32.03  -6
  -3   2   4 3704.34   32.03  -5
  -1   2  -3 3704.34   32.03  -4
  -4   2   3 3704.34   32.03  -3
   1   2  -4 3704.34   32.03  -2
   3   2   1 3704.34   32.03   1
   5  -2  -1 1198.74   15.29  -6
  -4  -2   5 1198.74   15.29  -5
  -1  -2  -4 1198.74   15.29  -4
  -5  -2   4 1198.74   15.29  -3
   1  -2  -5 1198.74   15.29  -2
   4  -2   1 1198.74   15.29   1
   5   2  -1 1290.23   19.33  -6
  -4   2   5 1290.23   19.33  -5
  -1   2  -4 1290.23   19.33  -4
  -5   2   4 1290.23   19.33  -3
   1   2  -5 1290.23   19.33  -2
   4   2   1 1290.23   19.33   1
   6  -2  -1  768.43   10.48  -6
  -5  -2   6  768.43   10.48  -5
  -1  -2  -5  768.43   10.48  -4
  -6  -2   5  768.43   10.48  -3
   1  -2  -6  768.43   10.48  -2
   5  -2   1  768.43   10.48   1
   6   2  -1  906.04   18.92  -6
  -5   2   6  906.04   18.92  -5
  -1   2  -5  906.04   18.92  -4
  -6   2   5  906.04   18.92  -3
   1   2  -6  906.04   18.92  -2
   5   2   1  906.04   18.92   1
   7  -2  -1  928.25   35.39  -6
  -6  -2   7  928.25   35.39  -5
  -1  -2  -6  928.25   35.39  -4
  -7  -2   6  928.25   35.39  -3
   1  -2  -7  928.25   35.39  -2
   6  -2   1  928.25   35.39   1
   7   2  -1 1105.63   37.14  -6
  -6   2   7 1105.63   37.14  -5
  -1   2  -6 1105.63   37.14  -4
  -7   2   6 1105.63   37.14  -3
   1   2  -7 1105.63   37.14  -2
   6   2   1 1105.63   37.14   1
   8  -2  -1  361.97   36.86  -6
  -7  -2   8  361.97   36.86  -5
  -1  -2  -7  361.97   36.86  -4
  -8  -2   7  361.97   36.86  -3
   1  -2  -8  361.97   36.86  -2
   7  -2   1  361.97   36.86   1
   8   2  -1  431.07   34.61  -6
  -7   2   8  431.07   34.61  -5
  -1   2  -7  431.07   34.61  -4
  -8   2   7  431.07   34.61  -3
   1   2  -8  431.07   34.61  -2
   7   2   1  431.07   34.61   1
   9  -2  -1  171.30   40.73  -6
  -8  -2   9  171.30   40.73  -5
  -1  -2  -8  171.30   40.73  -4
  -9  -2   8  171.30   40.73  -3
   1  -2  -9  171.30   40.73  -2
   8  -2   1  171.30   40.73   1
   9   2  -1  159.09   23.36  -6
  -8   2   9  159.09   23.36  -5
  -1   2  -8  159.09   23.36  -4
  -9   2   8  159.09   23.36  -3
   1   2  -9  159.09   23.36  -2
   8   2   1  159.09   23.36   1
  -8   3  -1  435.41   38.67  -6
   9   3  -8  435.41   38.67  -5
  -1   3   9  435.41   38.67  -4
   8   3  -9  435.41   38.67  -3
   1   3   8  435.41   38.67  -2
  -9   3   1  435.41   38.67   1
  -7  -3  -1  864.49   40.82  -6
   8  -3  -7  864.49   40.82  -5
  -1  -3   8  864.49   40.82  -4
   7  -3  -8  864.49   40.82  -3
   1  -3   7  864.49   40.82  -2
  -8  -3   1  864.49   40.82   1
  -7   3  -1  768.57   37.24  -6
   8   3  -7  768.57   37.24  -5
  -1   3   8  768.57   37.24  -4
   7   3  -8  768.57   37.24  -3
   1   3   7  768.57   37.24  -2
  -8   3   1  768.57   37.24   1
  -6  -3  -1 1159.31   39.42  -6
   7  -3  -6 1159.31   39.42  -5
  -1  -3   7 1159.31   39.42  -4
   6  -3  -7 1159.31   39.42  -3
   1  -3   6 1159.31   39.42  -2
  -7  -3   1 1159.31   39.42   1
  -6   3  -1 1011.42   33.52  -6
   7   3  -6 1011.42   33.52  -5
  -1   3   7 1011.42   33.52  -4
   6   3  -7 1011.42   33.52  -3
   1   3   6 1011.42   33.52  -2
  -7   3   1 1011.42   33.52   1
  -5  -3  -1  967.38   32.80  -6
   6  -3  -5  967.38   32.80  -5
  -1  -3   6  967.38   32.80  -4
   5  -3  -6  967.38   32.80  -3
   1  -3   5  967.38   32.80  -2
  -6  -3   1  967.38   32.80   1
  -5   3  -1  956.19   29.11  -6
   6   3  -5  956.19   29.11  -5
  -1   3   6  956.19   29.11  -4
   5   3  -6  956.19   29.11  -3
   1   3   5  956.19   29.11  -2
  -6   3   1  956.19   29.11   1
  -4  -3  -1 1129.33   14.89  -6
   5  -3  -4 1129.33   14.89  -5
  -1  -3   5 1129.33   14.89  -4
   4  -3  -5 1129.33   14.89  -3
   1  -3   4 1129.33   14.89  -2
  -5  -3   1 1129.33   14.89   1
  -4   3  -1 1138.30   27.38  -6
   5   3  -4 1138.30   27.38  -5
  -1   3   5 1138.30   27.38  -4
   4   3  -5 1138.30   27.38  -3
   1   3   4 1138.30   27.38  -2
  -5   3   1 1138.30   27.38   1
  -3  -3  -1 1110.01   19.18  -6
   4  -3  -3 1110.01   19.18  -5
  -1  -3   4 1110.01   19.18  -4
   3  -3  -4 1110.01   19.18  -3
   1  -3   3 1110.01   19.18  -2
  -4  -3   1 1110.01   19.18   1
  -3   3  -1 1037.90   12.69  -6
   4   3  -3 1037.90   12.69  -5
  -1   3   4 1037.90   12.69  -4
   3   3  -4 1037.90   12.69  -3
   1   3   3 1037.90   12.69  -2
  -4   3   1 1037.90   12.69   1
  -2  -3  -1  792.20   11.06  -6
   3  -3  -2  792.20   11.06  -5
  -1  -3   3  792.20   11.06  -4
   2  -3  -3  792.20   11.06  -3
   1  -3   2  792.20   11.06  -2
  -3  -3   1  792.20   11.06   1
  -2   3  -1  925.61    9.83  -6
   3   3  -2  925.61    9.83  -5
  -1   3   3  925.61    9.83  -4
   2   3  -3  925.61    9.83  -3
   1   3   2  925.61    9.83  -2
  -3   3   1  925.61    9.83   1
  -1  -3  -1  463.77    4.44  -6
   2  -3  -1  463.77    4.44  -5
  -1  -3   2  463.77    4.44  -4
   1  -3  -2  463.77    4.44  -3
   1  -3   1  463.77    4.44  -2
  -2  -3   1  463.77    4.44   1
  -1   3  -1  489.80    9.30  -6
   2   3  -1  489.80    9.30  -5
  -1   3   2  489.80    9.30  -4
   1   3  -2  489.80    9.30  -3
   1   3   1  489.80    9.30  -2
  -2   3   1  489.80    9.30   1
   0  -3  -1  343.85    5.11  -6
   1  -3   0  343.85    5.11  -5
  -1  -3   1  343.85    5.11  -4
   0  -3  -1  343.85    5.11  -3
   1  -3   0  343.85    5.11  -2
  -1  -3   1  343.85    5.11   1
   0   3  -1  360.38    7.49  -6
   1   3   0  360.38    7.49  -5
  -1   3   1  360.38    7.49  -4
   0   3  -1  360.38    7.49  -3
   1   3   0  360.38    7.49  -2
  -1   3   1  360.38    7.49   1
   1  -3  -1  342.85    5.00  -6
   0  -3   1  342.85    5.00  -5
  -1  -3   0  342.85    5.00  -4
  -1  -3   0  342.85    5.00  -3
   1  -3  -1  342.85    5.00  -2
   0  -3   1  342.85    5.00   1
   1   3  -1  349.57    6.63  -6
   0   3   1  349.57    6.63  -5
  -1   3   0  349.57    6.63  -4
  -1   3   0  349.57    6.63  -3
   1   3  -1  349.57    6.63  -2
   0   3   1  349.57    6.63   1
   2  -3  -1  521.92    6.12  -6
  -1  -3   2  521.92    6.12  -5
  -1  -3  -1  521.92    6.12  -4
  -2  -3   1  521.92    6.12  -3
   1  -3  -2  521.92    6.12  -2
   1  -3   1  521.92    6.12   1
   2   3  -1  500.16    6.81  -6
  -1   3   2  500.16    6.81  -5
  -1   3  -1  500.16    6.81  -4
  -2   3   1  500.16    6.81  -3
   1   3  -2  500.16    6.81  -2
   1   3   1  500.16    6.81   1
   3  -3  -1  789.80    8.04  -6
  -2  -3   3  789.80    8.04  -5
  -1  -3  -2  789.80    8.04  -4
  -3  -3   2  789.80    8.04  -3
   1  -3  -3  789.80    8.04  -2
   2  -3   1  789.80    8.04   1
   3   3  -1  954.26    9.19  -6
  -2   3   3  954.26    9.19  -5
  -1   3  -2  954.26    9.19  -4
  -3   3   2  954.26    9.19  -3
   1   3  -3  954.26    9.19  -2
   2   3   1  954.26    9.19   1
   4  -3  -1 1052.60   27.84  -6
  -3  -3   4 1052.60   27.84  -5
  -1  -3  -3 1052.60   27.84  -4
  -4  -3   3 1052.60   27.84  -3
   1  -3  -4 1052.60   27.84  -2
   3  -3   1 1052.60   27.84   1
   4   3  -1 1039.61   19.20  -6
  -3   3   4 1039.61   19.20  -5
  -1   3  -3 1039.61   19.20  -4
  -4   3   3 1039.61   19.20  -3
   1   3  -4 1039.61   19.20  -2
   3   3   1 1039.61   19.20   1
   5  -3  -1 1118.64   17.74  -6
  -4  -3   5 1118.64   17.74  -5
  -1  -3  -4 1118.64   17.74  -4
  -5  -3   4 1118.64   17.74  -3
   1  -3  -5 1118.64   17.74  -2
   4  -3   1 1118.64   17.74   1
   5   3  -1 1177.70   24.90  -6
  -4   3   5 1177.70   24.90  -5
  -1   3  -4 1177.70   24.90  -4
  -5   3   4 1177.70   24.90  -3
   1   3  -5 1177.70   24.90  -2
   4   3   1 1177.70   24.90   1
   6  -3  -1  960.31   33.54  -6
  -5  -3   6  960.31   33.54  -5
  -1  -3  -5  960.31   33.54  -4
  -6  -3   5  960.31   33.54  -3
   1  -3  -6  960.31   33.54  -2
   5  -3   1  960.31   33.54   1
   6   3  -1 1077.49   28.18  -6
  -5   3   6 1077.49   28.18  -5
  -1   3  -5 1077.49   28.18  -4
  -6   3   5 1077.49   28.18  -3
   1   3  -6 1077.49   28.18  -2
   5   3   1 1077.49   28.18   1
   7  -3  -1 1220.65   37.10  -6
  -6  -3   7 1220.65   37.10  -5
  -1  -3  -6 1220.65   37.10  -4
  -7  -3   6 1220.65   37.10  -3
   1  -3  -7 1220.65   37.10  -2
   6  -3   1 1220.65   37.10   1
   7   3  -1 1170.78   33.64  -6
  -6   3   7 1170.78   33.64  -5
  -1   3  -6 1170.78   33.64  -4
  -7   3   6 1170.78   33.64  -3
   1   3  -7 1170.78   33.64  -2
   6   3   1 1170.78   33.64   1
   8  -3  -1  957.40   40.72  -6
  -7  -3   8  957.40   40.72  -5
  -1  -3  -7  957.40   40.72  -4
  -8  -3   7  957.40   40.72  -3
   1  -3  -8  957.40   40.72  -2
   7  -3   1  957.40   40.72   1
   8   3  -1  883.84   35.57  -6
  -7   3   8  883.84   35.57  -5
  -1   3  -7  883.84   35.57  -4
  -8   3   7  883.84   35.57  -3
   1   3  -8  883.84   35.57  -2
   7   3   1  883.84   35.57   1
   9   3  -1  452.00   24.85  -6
  -8   3   9  452.00   24.85  -5
  -1   3  -8  452.00   24.85  -4
  -9   3   8  452.00   24.85  -3
   1   3  -9  452.00   24.85  -2
   8   3   1  452.00   24.85   1
  -8   4  -1  191.22   37.16  -6
   9   4  -8  191.22   37.16  -5
  -1   4   9  191.22   37.16  -4
   8   4  -9  191.22   37.16  -3
   1   4   8  191.22   37.16  -2
  -9   4   1  191.22   37.16   1
  -7  -4  -1  364.11   39.35  -6
   8  -4  -7  364.11   39.35  -5
  -1  -4   8  364.11   39.35  -4
   7  -4  -8  364.11   39.35  -3
   1  -4   7  364.11   39.35  -2
  -8  -4   1  364.11   39.35   1
  -7   4  -1  414.42   35.36  -6
   8   4  -7  414.42   35.36  -5
  -1   4   8  414.42   35.36  -4
   7   4  -8  414.42   35.36  -3
   1   4   7  414.42   35.36  -2
  -8   4   1  414.42   35.36   1
  -6  -4  -1  907.92   39.44  -6
   7  -4  -6  907.92   39.44  -5
  -1  -4   7  907.92   39.44  -4
   6  -4  -7  907.92   39.44  -3
   1  -4   6  907.92   39.44  -2
  -7  -4   1  907.92   39.44   1
  -6   4  -1  785.50   31.52  -6
   7   4  -6  785.50   31.52  -5
  -1   4   7  785.50   31.52  -4
   6   4  -7  785.50   31.52  -3
   1   4   6  785.50   31.52  -2
  -7   4   1  785.50   31.52   1
  -5  -4  -1  960.31   34.67  -6
   6  -4  -5  960.31   34.67  -5
  -1  -4   6  960.31   34.67  -4
   5  -4  -6  960.31   34.67  -3
   1  -4   5  960.31   34.67  -2
  -6  -4   1  960.31   34.67   1
  -5   4  -1  983.72   28.18  -6
   6   4  -5  983.72   28.18  -5
  -1   4   6  983.72   28.18  -4
   5   4  -6  983.72   28.18  -3
   1   4   5  983.72   28.18  -2
  -6   4   1  983.72   28.18   1
  -4  -4  -1 2070.38   35.23  -6
   5  -4  -4 2070.38   35.23  -5
  -1  -4   5 2070.38   35.23  -4
   4  -4  -5 2070.38   35.23  -3
   1  -4   4 2070.38   35.23  -2
  -5  -4   1 2070.38   35.23   1
  -4   4  -1 2082.68   33.18  -6
   5   4  -4 2082.68   33.18  -5
  -1   4   5 2082.68   33.18  -4
   4   4  -5 2082.68   33.18  -3
   1   4   4 2082.68   33.18  -2
  -5   4   1 2082.68   33.18   1
  -3  -4  -1 2469.25   23.77  -6
   4  -4  -3 2469.25   23.77  -5
  -1  -4   4 2469.25   23.77  -4
   3  -4  -4 2469.25   23.77  -3
   1  -4   3 2469.25   23.77  -2
  -4  -4   1 2469.25   23.77   1
  -3   4  -1 2361.15   16.97  -6
   4   4  -3 2361.15   16.97  -5
  -1   4   4 2361.15   16.97  -4
   3   4  -4 2361.15   16.97  -3
   1   4   3 2361.15   16.97  -2
  -4   4   1 2361.15   16.97   1
  -2  -4  -1 3369.52   15.54  -6
   3  -4  -2 3369.52   15.54  -5
  -1  -4   3 3369.52   15.54  -4
   2  -4  -3 3369.52   15.54  -3
   1  -4   2 3369.52   15.54  -2
  -3  -4   1 3369.52   15.54   1
  -2   4  -1 3335.77   15.06  -6
   3   4  -2 3335.77   15.06  -5
  -1   4   3 3335.77   15.06  -4
   2   4  -3 3335.77   15.06  -3
   1   4   2 3335.77   15.06  -2
  -3   4   1 3335.77   15.06   1
  -1  -4  -1 4824.84   18.34  -6
   2  -4  -1 4824.84   18.34  -5
  -1  -4   2 4824.84   18.34  -4
   1  -4  -2 4824.84   18.34  -3
   1  -4   1 4824.84   18.34  -2
  -2  -4   1 4824.84   18.34   1
  -1   4  -1 4746.07   15.81  -6
   2   4  -1 4746.07   15.81  -5
  -1   4   2 4746.07   15.81  -4
   1   4  -2 4746.07   15.81  -3
   1   4   1 4746.07   15.81  -2
  -2   4   1 4746.07   15.81   1
   0  -4  -1 5499.76   16.36  -6
   1  -4   0 5499.76   16.36  -5
  -1  -4   1 5499.76   16.36  -4
   0  -4  -1 5499.76   16.36  -3
   1  -4   0 5499.76   16.36  -2
  -1  -4   1 5499.76   16.36   1
   0   4  -1 5501.66   15.47  -6
   1   4   0 5501.66   15.47  -5
  -1   4   1 5501.66   15.47  -4
   0   4  -1 5501.66   15.47  -3
   1   4   0 5501.66   15.47  -2
  -1   4   1 5501.66   15.47   1
   1  -4  -1 5350.86   11.89  -6
   0  -4   1 5350.86   11.89  -5
  -1  -4   0 5350.86   11.89  -4
  -1  -4   0 5350.86   11.89  -3
   1  -4  -1 5350.86   11.89  -2
   0  -4   1 5350.86   11.89   1
   1   4  -1 5027.52   10.54  -6
   0   4   1 5027.52   10.54  -5
  -1   4   0 5027.52   10.54  -4
  -1   4   0 5027.52   10.54  -3
   1   4  -1 5027.52   10.54  -2
   0   4   1 5027.52   10.54   1
   2  -4  -1 4458.13   12.81  -6
  -1  -4   2 4458.13   12.81  -5
  -1  -4  -1 4458.13   12.81  -4
  -2  -4   1 4458.13   12.81  -3
   1  -4  -2 4458.13   12.81  -2
   1  -4   1 4458.13   12.81   1
   2   4  -1 4373.59   10.38  -6
  -1   4   2 4373.59   10.38  -5
  -1   4  -1 4373.59   10.38  -4
  -2   4   1 4373.59   10.38  -3
   1   4  -2 4373.59   10.38  -2
   1   4   1 4373.59   10.38   1
   3  -4  -1 3226.59   12.43  -6
  -2  -4   3 3226.59   12.43  -5
  -1  -4  -2 3226.59   12.43  -4
  -3  -4   2 3226.59   12.43  -3
   1  -4  -3 3226.59   12.43  -2
   2  -4   1 3226.59   12.43   1
   3   4  -1 3272.81   12.41  -6
  -2   4   3 3272.81   12.41  -5
  -1   4  -2 3272.81   12.41  -4
  -3   4   2 3272.81   12.41  -3
   1   4  -3 3272.81   12.41  -2
   2   4   1 3272.81   12.41   1
   4  -4  -1 2576.96   33.12  -6
  -3  -4   4 2576.96   33.12  -5
  -1  -4  -3 2576.96   33.12  -4
  -4  -4   3 2576.96   33.12  -3
   1  -4  -4 2576.96   33.12  -2
   3  -4   1 2576.96   33.12   1
   4   4  -1 2298.41   21.75  -6
  -3   4   4 2298.41   21.75  -5
  -1   4  -3 2298.41   21.75  -4
  -4   4   3 2298.41   21.75  -3
   1   4  -4 2298.41   21.75  -2
   3   4   1 2298.41   21.75   1
   5  -4  -1 2036.25   25.96  -6
  -4  -4   5 2036.25   25.96  -5
  -1  -4  -4 2036.25   25.96  -4
  -5  -4   4 2036.25   25.96  -3
   1  -4  -5 2036.25   25.96  -2
   4  -4   1 2036.25   25.96   1
   5   4  -1 1985.10   29.35  -6
  -4   4   5 1985.10   29.35  -5
  -1   4  -4 1985.10   29.35  -4
  -5   4   4 1985.10   29.35  -3
   1   4  -5 1985.10   29.35  -2
   4   4   1 1985.10   29.35   1
   6  -4  -1  871.52   34.52  -6
  -5  -4   6  871.52   34.52  -5
  -1  -4  -5  871.52   34.52  -4
  -6  -4   5  871.52   34.52  -3
   1  -4  -6  871.52   34.52  -2
   5  -4   1  871.52   34.52   1
   6   4  -1  985.46   27.29  -6
  -5   4   6  985.46   27.29  -5
  -1   4  -5  985.46   27.29  -4
  -6   4   5  985.46   27.29  -3
   1   4  -6  985.46   27.29  -2
   5   4   1  985.46   27.29   1
   7  -4  -1  789.23   36.20  -6
  -6  -4   7  789.23   36.20  -5
  -1  -4  -6  789.23   36.20  -4
  -7  -4   6  789.23   36.20  -3
   1  -4  -7  789.23   36.20  -2
   6  -4   1  789.23   36.20   1
   7   4  -1  776.98   29.73  -6
  -6   4   7  776.98   29.73  -5
  -1   4  -6  776.98   29.73  -4
  -7   4   6  776.98   29.73  -3
   1   4  -7  776.98   29.73  -2
   6   4   1  776.98   29.73   1
   8  -4  -1  356.49   37.77  -6
  -7  -4   8  356.49   37.77  -5
  -1  -4  -7  356.49   37.77  -4
  -8  -4   7  356.49   37.77  -3
   1  -4  -8  356.49   37.77  -2
   7  -4   1  356.49   37.77   1
   8   4  -1  398.66   30.68  -6
  -7   4   8  398.66   30.68  -5
  -1   4  -7  398.66   30.68  -4
  -8   4   7  398.66   30.68  -3
   1   4  -8  398.66   30.68  -2
   7   4   1  398.66   30.68   1
   9   4  -1  111.23   29.92  -6
  -8   4   9  111.23   29.92  -5
  -1   4  -8  111.23   29.92  -4
  -9   4   8  111.23   29.92  -3
   1   4  -9  111.23   29.92  -2
   8   4   1  111.23   29.92   1
  -7   5  -1  406.30   23.09  -6
   8   5  -7  406.30   23.09  -5
  -1   5   8  406.30   23.09  -4
   7   5  -8  406.30   23.09  -3
   1   5   7  406.30   23.09  -2
  -8   5   1  406.30   23.09   1
  -6  -5  -1  690.80   23.66  -6
   7  -5  -6  690.80   23.66  -5
  -1  -5   7  690.80   23.66  -4
   6  -5  -7  690.80   23.66  -3
   1  -5   6  690.80   23.66  -2
  -7  -5   1  690.80   23.66   1
  -6   5  -1  652.98   31.03  -6
   7   5  -6  652.98   31.03  -5
  -1   5   7  652.98   31.03  -4
   6   5  -7  652.98   31.03  -3
   1   5   6  652.98   31.03  -2
  -7   5   1  652.98   31.03   1
  -5   5  -1 1378.19   22.14  -6
   6   5  -5 1378.19   22.14  -5
  -1   5   6 1378.19   22.14  -4
   5   5  -6 1378.19   22.14  -3
   1   5   5 1378.19   22.14  -2
  -6   5   1 1378.19   22.14   1
  -4  -5  -1 1635.16   34.97  -6
   5  -5  -4 1635.16   34.97  -5
  -1  -5   5 1635.16   34.97  -4
   4  -5  -5 1635.16   34.97  -3
   1  -5   4 1635.16   34.97  -2
  -5  -5   1 1635.16   34.97   1
  -4   5  -1 1497.68   30.57  -6
   5   5  -4 1497.68   30.57  -5
  -1   5   5 1497.68   30.57  -4
   4   5  -5 1497.68   30.57  -3
   1   5   4 1497.68   30.57  -2
  -5   5   1 1497.68   30.57   1
  -3  -5  -1 1294.71   16.35  -6
   4  -5  -3 1294.71   16.35  -5
  -1  -5   4 1294.71   16.35  -4
   3  -5  -4 1294.71   16.35  -3
   1  -5   3 1294.71   16.35  -2
  -4  -5   1 1294.71   16.35   1
  -3   5  -1 1256.96   16.18  -6
   4   5  -3 1256.96   16.18  -5
  -1   5   4 1256.96   16.18  -4
   3   5  -4 1256.96   16.18  -3
   1   5   3 1256.96   16.18  -2
  -4   5   1 1256.96   16.18   1
  -2  -5  -1 1315.96   13.45  -6
   3  -5  -2 1315.96   13.45  -5
  -1  -5   3 1315.96   13.45  -4
   2  -5  -3 1315.96   13.45  -3
   1  -5   2 1315.96   13.45  -2
  -3  -5   1 1315.96   13.45   1
  -2   5  -1 1291.08   12.41  -6
   3   5  -2 1291.08   12.41  -5
  -1   5   3 1291.08   12.41  -4
   2   5  -3 1291.08   12.41  -3
   1   5   2 1291.08   12.41  -2
  -3   5   1 1291.08   12.41   1
  -1  -5  -1  508.10    8.74  -6
   2  -5  -1  508.10    8.74  -5
  -1  -5   2  508.10    8.74  -4
   1  -5  -2  508.10    8.74  -3
   1  -5   1  508.10    8.74  -2
  -2  -5   1  508.10    8.74   1
  -1   5  -1  544.20    6.68  -6
   2   5  -1  544.20    6.68  -5
  -1   5   2  544.20    6.68  -4
   1   5  -2  544.20    6.68  -3
   1   5   1  544.20    6.68  -2
  -2   5   1  544.20    6.68   1
   0  -5  -1  311.81    5.11  -6
   1  -5   0  311.81    5.11  -5
  -1  -5   1  311.81    5.11  -4
   0  -5  -1  311.81    5.11  -3
   1  -5   0  311.81    5.11  -2
  -1  -5   1  311.81    5.11   1
   0   5  -1  321.67    6.99  -6
   1   5   0  321.67    6.99  -5
  -1   5   1  321.67    6.99  -4
   0   5  -1  321.67    6.99  -3
   1   5   0  321.67    6.99  -2
  -1   5   1  321.67    6.99   1
   1  -5  -1  382.69    7.88  -6
   0  -5   1  382.69    7.88  -5
  -1  -5   0  382.69    7.88  -4
  -1  -5   0  382.69    7.88  -3
   1  -5  -1  382.69    7.88  -2
   0  -5   1  382.69    7.88   1
   2  -5  -1  523.47    6.79  -6
  -1  -5   2  523.47    6.79  -5
  -1  -5  -1  523.47    6.79  -4
  -2  -5   1  523.47    6.79  -3
   1  -5  -2  523.47    6.79  -2
   1  -5   1  523.47    6.79   1
   2   5  -1  505.28   16.37  -6
  -1   5   2  505.28   16.37  -5
  -1   5  -1  505.28   16.37  -4
  -2   5   1  505.28   16.37  -3
   1   5  -2  505.28   16.37  -2
   1   5   1  505.28   16.37   1
   3  -5  -1 1202.89   10.61  -6
  -2  -5   3 1202.89   10.61  -5
  -1  -5  -2 1202.89   10.61  -4
  -3  -5   2 1202.89   10.61  -3
   1  -5  -3 1202.89   10.61  -2
   2  -5   1 1202.89   10.61   1
   3   5  -1 1147.56    8.42  -6
  -2   5   3 1147.56    8.42  -5
  -1   5  -2 1147.56    8.42  -4
  -3   5   2 1147.56    8.42  -3
   1   5  -3 1147.56    8.42  -2
   2   5   1 1147.56    8.42   1
   4  -5  -1 1168.79   27.79  -6
  -3  -5   4 1168.79   27.79  -5
  -1  -5  -3 1168.79   27.79  -4
  -4  -5   3 1168.79   27.79  -3
   1  -5  -4 1168.79   27.79  -2
   3  -5   1 1168.79   27.79   1
   4   5  -1 1189.41   17.88  -6
  -3   5   4 1189.41   17.88  -5
  -1   5  -3 1189.41   17.88  -4
  -4   5   3 1189.41   17.88  -3
   1   5  -4 1189.41   17.88  -2
   3   5   1 1189.41   17.88   1
   5  -5  -1 1516.97   35.80  -6
  -4  -5   5 1516.97   35.80  -5
  -1  -5  -4 1516.97   35.80  -4
  -5  -5   4 1516.97   35.80  -3
   1  -5  -5 1516.97   35.80  -2
   4  -5   1 1516.97   35.80   1
   5   5  -1 1343.07   26.08  -6
  -4   5   5 1343.07   26.08  -5
  -1   5  -4 1343.07   26.08  -4
  -5   5   4 1343.07   26.08  -3
   1   5  -5 1343.07   26.08  -2
   4   5   1 1343.07   26.08   1
   6  -5  -1 1776.37   40.50  -6
  -5  -5   6 1776.37   40.50  -5
  -1  -5  -5 1776.37   40.50  -4
  -6  -5   5 1776.37   40.50  -3
   1  -5  -6 1776.37   40.50  -2
   5  -5   1 1776.37   40.50   1
   6   5  -1 1836.67   30.93  -6
  -5   5   6 1836.67   30.93  -5
  -1   5  -5 1836.67   30.93  -4
  -6   5   5 1836.67   30.93  -3
   1   5  -6 1836.67   30.93  -2
   5   5   1 1836.67   30.93   1
   7  -5  -1 1196.50   39.26  -6
  -6  -5   7 1196.50   39.26  -5
  -1  -5  -6 1196.50   39.26  -4
  -7  -5   6 1196.50   39.26  -3
   1  -5  -7 1196.50   39.26  -2
   6  -5   1 1196.50   39.26   1
   7   5  -1 1164.52   29.74  -6
  -6   5   7 1164.52   29.74  -5
  -1   5  -6 1164.52   29.74  -4
  -7   5   6 1164.52   29.74  -3
   1   5  -7 1164.52   29.74  -2
   6   5   1 1164.52   29.74   1
   8   5  -1  629.27   24.47  -6
  -7   5   8  629.27   24.47  -5
  -1   5  -7  629.27   24.47  -4
  -8   5   7  629.27   24.47  -3
   1   5  -8  629.27   24.47  -2
   7   5   1  629.27   24.47   1
   9   5  -1  282.57   32.87  -6
  -8   5   9  282.57   32.87  -5
  -1   5  -8  282.57   32.87  -4
  -9   5   8  282.57   32.87  -3
   1   5  -9  282.57   32.87  -2
   8   5   1  282.57   32.87   1
  -7  -6  -1  322.25   41.11  -6
   8  -6  -7  322.25   41.11  -5
  -1  -6   8  322.25   41.11  -4
   7  -6  -8  322.25   41.11  -3
   1  -6   7  322.25   41.11  -2
  -8  -6   1  322.25   41.11   1
  -7   6  -1  227.03   32.88  -6
   8   6  -7  227.03   32.88  -5
  -1   6   8  227.03   32.88  -4
   7   6  -8  227.03   32.88  -3
   1   6   7  227.03   32.88  -2
  -8   6   1  227.03   32.88   1
  -6  -6  -1  454.55   25.13  -6
   7  -6  -6  454.55   25.13  -5
  -1  -6   7  454.55   25.13  -4
   6  -6  -7  454.55   25.13  -3
   1  -6   6  454.55   25.13  -2
  -7  -6   1  454.55   25.13   1
  -6   6  -1  425.21   31.10  -6
   7   6  -6  425.21   31.10  -5
  -1   6   7  425.21   31.10  -4
   6   6  -7  425.21   31.10  -3
   1   6   6  425.21   31.10  -2
  -7   6   1  425.21   31.10   1
  -5  -6  -1 1361.13   40.53  -6
   6  -6  -5 1361.13   40.53  -5
  -1  -6   6 1361.13   40.53  -4
   5  -6  -6 1361.13   40.53  -3
   1  -6   5 1361.13   40.53  -2
  -6  -6   1 1361.13   40.53   1
  -5   6  -1 1084.83   32.52  -6
   6   6  -5 1084.83   32.52  -5
  -1   6   6 1084.83   32.52  -4
   5   6  -6 1084.83   32.52  -3
   1   6   5 1084.83   32.52  -2
  -6   6   1 1084.83   32.52   1
  -4  -6  -1 1603.31   36.17  -6
   5  -6  -4 1603.31   36.17  -5
  -1  -6   5 1603.31   36.17  -4
   4  -6  -5 1603.31   36.17  -3
   1  -6   4 1603.31   36.17  -2
  -5  -6   1 1603.31   36.17   1
  -4   6  -1 1681.48   34.53  -6
   5   6  -4 1681.48   34.53  -5
  -1   6   5 1681.48   34.53  -4
   4   6  -5 1681.48   34.53  -3
   1   6   4 1681.48   34.53  -2
  -5   6   1 1681.48   34.53   1
  -3  -6  -1 2900.47   24.14  -6
   4  -6  -3 2900.47   24.14  -5
  -1  -6   4 2900.47   24.14  -4
   3  -6  -4 2900.47   24.14  -3
   1  -6   3 2900.47   24.14  -2
  -4  -6   1 2900.47   24.14   1
  -3   6  -1 2833.85   26.60  -6
   4   6  -3 2833.85   26.60  -5
  -1   6   4 2833.85   26.60  -4
   3   6  -4 2833.85   26.60  -3
   1   6   3 2833.85   26.60  -2
  -4   6   1 2833.85   26.60   1
  -2  -6  -1 4937.77   20.71  -6
   3  -6  -2 4937.77   20.71  -5
  -1  -6   3 4937.77   20.71  -4
   2  -6  -3 4937.77   20.71  -3
   1  -6   2 4937.77   20.71  -2
  -3  -6   1 4937.77   20.71   1
  -2   6  -1 5000.55   20.57  -6
   3   6  -2 5000.55   20.57  -5
  -1   6   3 5000.55   20.57  -4
   2   6  -3 5000.55   20.57  -3
   1   6   2 5000.55   20.57  -2
  -3   6   1 5000.55   20.57   1
  -1  -6  -1 6043.43   23.73  -6
   2  -6  -1 6043.43   23.73  -5
  -1  -6   2 6043.43   23.73  -4
   1  -6  -2 6043.43   23.73  -3
   1  -6   1 6043.43   23.73  -2
  -2  -6   1 6043.43   23.73   1
  -1   6  -1 6090.51   14.75  -6
   2   6  -1 6090.51   14.75  -5
  -1   6   2 6090.51   14.75  -4
   1   6  -2 6090.51   14.75  -3
   1   6   1 6090.51   14.75  -2
  -2   6   1 6090.51   14.75   1
   0  -6  -1 6014.63   13.75  -6
   1  -6   0 6014.63   13.75  -5
  -1  -6   1 6014.63   13.75  -4
   0  -6  -1 6014.63   13.75  -3
   1  -6   0 6014.63   13.75  -2
  -1  -6   1 6014.63   13.75   1
   0   6  -1 5971.14   21.11  -6
   1   6   0 5971.14   21.11  -5
  -1   6   1 5971.14   21.11  -4
   0   6  -1 5971.14   21.11  -3
   1   6   0 5971.14   21.11  -2
  -1   6   1 5971.14   21.11   1
   1  -6  -1 6019.08   24.73  -6
   0  -6   1 6019.08   24.73  -5
  -1  -6   0 6019.08   24.73  -4
  -1  -6   0 6019.08   24.73  -3
   1  -6  -1 6019.08   24.73  -2
   0  -6   1 6019.08   24.73   1
   1   6  -1 5920.84   20.41  -6
   0   6   1 5920.84   20.41  -5
  -1   6   0 5920.84   20.41  -4
  -1   6   0 5920.84   20.41  -3
   1   6  -1 5920.84   20.41  -2
   0   6   1 5920.84   20.41   1
   2  -6  -1 6589.25   17.67  -6
  -1  -6   2 6589.25   17.67  -5
  -1  -6  -1 6589.25   17.67  -4
  -2  -6   1 6589.25   17.67  -3
   1  -6  -2 6589.25   17.67  -2
   1  -6   1 6589.25   17.67   1
   2   6  -1 6422.97   24.04  -6
  -1   6   2 6422.97   24.04  -5
  -1   6  -1 6422.97   24.04  -4
  -2   6   1 6422.97   24.04  -3
   1   6  -2 6422.97   24.04  -2
   1   6   1 6422.97   24.04   1
   3  -6  -1 4738.26   17.32  -6
  -2  -6   3 4738.26   17.32  -5
  -1  -6  -2 4738.26   17.32  -4
  -3  -6   2 4738.26   17.32  -3
   1  -6  -3 4738.26   17.32  -2
   2  -6   1 4738.26   17.32   1
   3   6  -1 5106.92   31.86  -6
  -2   6   3 5106.92   31.86  -5
  -1   6  -2 5106.92   31.86  -4
  -3   6   2 5106.92   31.86  -3
   1   6  -3 5106.92   31.86  -2
   2   6   1 5106.92   31.86   1
   4  -6  -1 3038.44   26.52  -6
  -3  -6   4 3038.44   26.52  -5
  -1  -6  -3 3038.44   26.52  -4
  -4  -6   3 3038.44   26.52  -3
   1  -6  -4 3038.44   26.52  -2
   3  -6   1 3038.44   26.52   1
   4   6  -1 2972.73   21.20  -6
  -3   6   4 2972.73   21.20  -5
  -1   6  -3 2972.73   21.20  -4
  -4   6   3 2972.73   21.20  -3
   1   6  -4 2972.73   21.20  -2
   3   6   1 2972.73   21.20   1
   5  -6  -1 1598.04   25.91  -6
  -4  -6   5 1598.04   25.91  -5
  -1  -6  -4 1598.04   25.91  -4
  -5  -6   4 1598.04   25.91  -3
   1  -6  -5 1598.04   25.91  -2
   4  -6   1 1598.04   25.91   1
   5   6  -1 1478.10   17.02  -6
  -4   6   5 1478.10   17.02  -5
  -1   6  -4 1478.10   17.02  -4
  -5   6   4 1478.10   17.02  -3
   1   6  -5 1478.10   17.02  -2
   4   6   1 1478.10   17.02   1
   6  -6  -1 1211.30   40.16  -6
  -5  -6   6 1211.30   40.16  -5
  -1  -6  -5 1211.30   40.16  -4
  -6  -6   5 1211.30   40.16  -3
   1  -6  -6 1211.30   40.16  -2
   5  -6   1 1211.30   40.16   1
   6   6  -1 1053.67   30.56  -6
  -5   6   6 1053.67   30.56  -5
  -1   6  -5 1053.67   30.56  -4
  -6   6   5 1053.67   30.56  -3
   1   6  -6 1053.67   30.56  -2
   5   6   1 1053.67   30.56   1
   7  -6  -1  576.14   36.77  -6
  -6  -6   7  576.14   36.77  -5
  -1  -6  -6  576.14   36.77  -4
  -7  -6   6  576.14   36.77  -3
   1  -6  -7  576.14   36.77  -2
   6  -6   1  576.14   36.77   1
   7   6  -1  538.74   26.75  -6
  -6   6   7  538.74   26.75  -5
  -1   6  -6  538.74   26.75  -4
  -7   6   6  538.74   26.75  -3
   1   6  -7  538.74   26.75  -2
   6   6   1  538.74   26.75   1
   8  -6  -1  262.76   39.13  -6
  -7  -6   8  262.76   39.13  -5
  -1  -6  -7  262.76   39.13  -4
  -8  -6   7  262.76   39.13  -3
   1  -6  -8  262.76   39.13  -2
   7  -6   1  262.76   39.13   1
   8   6  -1  203.48   28.99  -6
  -7   6   8  203.48   28.99  -5
  -1   6  -7  203.48   28.99  -4
  -8   6   7  203.48   28.99  -3
   1   6  -8  203.48   28.99  -2
   7   6   1  203.48   28.99   1
  -7  -7  -1  532.46   43.08  -6
   8  -7  -7  532.46   43.08  -5
  -1  -7   8  532.46   43.08  -4
   7  -7  -8  532.46   43.08  -3
   1  -7   7  532.46   43.08  -2
  -8  -7   1  532.46   43.08   1
  -7   7  -1  224.44   34.36  -6
   8   7  -7  224.44   34.36  -5
  -1   7   8  224.44   34.36  -4
   7   7  -8  224.44   34.36  -3
   1   7   7  224.44   34.36  -2
  -8   7   1  224.44   34.36   1
  -6  -7  -1  469.05   26.20  -6
   7  -7  -6  469.05   26.20  -5
  -1  -7   7  469.05   26.20  -4
   6  -7  -7  469.05   26.20  -3
   1  -7   6  469.05   26.20  -2
  -7  -7   1  469.05   26.20   1
  -6   7  -1  556.88   34.48  -6
   7   7  -6  556.88   34.48  -5
  -1   7   7  556.88   34.48  -4
   6   7  -7  556.88   34.48  -3
   1   7   6  556.88   34.48  -2
  -7   7   1  556.88   34.48   1
  -5  -7  -1 1543.72   41.91  -6
   6  -7  -5 1543.72   41.91  -5
  -1  -7   6 1543.72   41.91  -4
   5  -7  -6 1543.72   41.91  -3
   1  -7   5 1543.72   41.91  -2
  -6  -7   1 1543.72   41.91   1
  -5   7  -1 1182.70   35.88  -6
   6   7  -5 1182.70   35.88  -5
  -1   7   6 1182.70   35.88  -4
   5   7  -6 1182.70   35.88  -3
   1   7   5 1182.70   35.88  -2
  -6   7   1 1182.70   35.88   1
  -4  -7  -1 1183.81   19.88  -6
   5  -7  -4 1183.81   19.88  -5
  -1  -7   5 1183.81   19.88  -4
   4  -7  -5 1183.81   19.88  -3
   1  -7   4 1183.81   19.88  -2
  -5  -7   1 1183.81   19.88   1
  -4   7  -1 1123.12   19.83  -6
   5   7  -4 1123.12   19.83  -5
  -1   7   5 1123.12   19.83  -4
   4   7  -5 1123.12   19.83  -3
   1   7   4 1123.12   19.83  -2
  -5   7   1 1123.12   19.83   1
  -3  -7  -1 1118.29   15.28  -6
   4  -7  -3 1118.29   15.28  -5
  -1  -7   4 1118.29   15.28  -4
   3  -7  -4 1118.29   15.28  -3
   1  -7   3 1118.29   15.28  -2
  -4  -7   1 1118.29   15.28   1
  -3   7  -1 1149.78   10.47  -6
   4   7  -3 1149.78   10.47  -5
  -1   7   4 1149.78   10.47  -4
   3   7  -4 1149.78   10.47  -3
   1   7   3 1149.78   10.47  -2
  -4   7   1 1149.78   10.47   1
  -2  -7  -1 1068.87   12.25  -6
   3  -7  -2 1068.87   12.25  -5
  -1  -7   3 1068.87   12.25  -4
   2  -7  -3 1068.87   12.25  -3
   1  -7   2 1068.87   12.25  -2
  -3  -7   1 1068.87   12.25   1
  -2   7  -1 1210.30   11.41  -6
   3   7  -2 1210.30   11.41  -5
  -1   7   3 1210.30   11.41  -4
   2   7  -3 1210.30   11.41  -3
   1   7   2 1210.30   11.41  -2
  -3   7   1 1210.30   11.41   1
  -1  -7  -1  661.19   19.39  -6
   2  -7  -1  661.19   19.39  -5
  -1  -7   2  661.19   19.39  -4
   1  -7  -2  661.19   19.39  -3
   1  -7   1  661.19   19.39  -2
  -2  -7   1  661.19   19.39   1
  -1   7  -1  836.82   21.36  -6
   2   7  -1  836.82   21.36  -5
  -1   7   2  836.82   21.36  -4
   1   7  -2  836.82   21.36  -3
   1   7   1  836.82   21.36  -2
  -2   7   1  836.82   21.36   1
   0  -7  -1  240.78    6.18  -6
   1  -7   0  240.78    6.18  -5
  -1  -7   1  240.78    6.18  -4
   0  -7  -1  240.78    6.18  -3
   1  -7   0  240.78    6.18  -2
  -1  -7   1  240.78    6.18   1
   0   7  -1  279.02   20.91  -6
   1   7   0  279.02   20.91  -5
  -1   7   1  279.02   20.91  -4
   0   7  -1  279.02   20.91  -3
   1   7   0  279.02   20.91  -2
  -1   7   1  279.02   20.91   1
   1  -7  -1  250.51   10.06  -6
   0  -7   1  250.51   10.06  -5
  -1  -7   0  250.51   10.06  -4
  -1  -7   0  250.51   10.06  -3
   1  -7  -1  250.51   10.06  -2
   0  -7   1  250.51   10.06   1
   1   7  -1  264.37    9.73  -6
   0   7   1  264.37    9.73  -5
  -1   7   0  264.37    9.73  -4
  -1   7   0  264.37    9.73  -3
   1   7  -1  264.37    9.73  -2
   0   7   1  264.37    9.73   1
   2  -7  -1  669.77    9.31  -6
  -1  -7   2  669.77    9.31  -5
  -1  -7  -1  669.77    9.31  -4
  -2  -7   1  669.77    9.31  -3
   1  -7  -2  669.77    9.31  -2
   1  -7   1  669.77    9.31   1
   2   7  -1  671.58   11.73  -6
  -1   7   2  671.58   11.73  -5
  -1   7  -1  671.58   11.73  -4
  -2   7   1  671.58   11.73  -3
   1   7  -2  671.58   11.73  -2
   1   7   1  671.58   11.73   1
   3  -7  -1 1006.80   12.98  -6
  -2  -7   3 1006.80   12.98  -5
  -1  -7  -2 1006.80   12.98  -4
  -3  -7   2 1006.80   12.98  -3
   1  -7  -3 1006.80   12.98  -2
   2  -7   1 1006.80   12.98   1
   4  -7  -1 1105.31   21.23  -6
  -3  -7   4 1105.31   21.23  -5
  -1  -7  -3 1105.31   21.23  -4
  -4  -7   3 1105.31   21.23  -3
   1  -7  -4 1105.31   21.23  -2
   3  -7   1 1105.31   21.23   1
   5   7  -1 1044.33   16.13  -6
  -4   7   5 1044.33   16.13  -5
  -1   7  -4 1044.33   16.13  -4
  -5   7   4 1044.33   16.13  -3
   1   7  -5 1044.33   16.13  -2
   4   7   1 1044.33   16.13   1
   6   7  -1 1169.04   19.23  -6
  -5   7   6 1169.04   19.23  -5
  -1   7  -5 1169.04   19.23  -4
  -6   7   5 1169.04   19.23  -3
   1   7  -6 1169.04   19.23  -2
   5   7   1 1169.04   19.23   1
   7  -7  -1  994.70   39.63  -6
  -6  -7   7  994.70   39.63  -5
  -1  -7  -6  994.70   39.63  -4
  -7  -7   6  994.70   39.63  -3
   1  -7  -7  994.70   39.63  -2
   6  -7   1  994.70   39.63   1
   7   7  -1  818.91   33.35  -6
  -6   7   7  818.91   33.35  -5
  -1   7  -6  818.91   33.35  -4
  -7   7   6  818.91   33.35  -3
   1   7  -7  818.91   33.35  -2
   6   7   1  818.91   33.35   1
   8  -7  -1  607.99   41.64  -6
  -7  -7   8  607.99   41.64  -5
  -1  -7  -7  607.99   41.64  -4
  -8  -7   7  607.99   41.64  -3
   1  -7  -8  607.99   41.64  -2
   7  -7   1  607.99   41.64   1
   8   7  -1  323.65   30.52  -6
  -7   7   8  323.65   30.52  -5
  -1   7  -7  323.65   30.52  -4
  -8   7   7  323.65   30.52  -3
   1   7  -8  323.65   30.52  -2
   7   7   1  323.65   30.52   1
  -7   8  -1  218.50   34.47  -6
   8   8  -7  218.50   34.47  -5
  -1   8   8  218.50   34.47  -4
   7   8  -8  218.50   34.47  -3
   1   8   7  218.50   34.47  -2
  -8   8   1  218.50   34.47   1
  -6  -8  -1  422.46   40.12  -6
   7  -8  -6  422.46   40.12  -5
  -1  -8   7  422.46   40.12  -4
   6  -8  -7  422.46   40.12  -3
   1  -8   6  422.46   40.12  -2
  -7  -8   1  422.46   40.12   1
  -6   8  -1  278.38   30.45  -6
   7   8  -6  278.38   30.45  -5
  -1   8   7  278.38   30.45  -4
   6   8  -7  278.38   30.45  -3
   1   8   6  278.38   30.45  -2
  -7   8   1  278.38   30.45   1
  -5  -8  -1  996.50   39.72  -6
   6  -8  -5  996.50   39.72  -5
  -1  -8   6  996.50   39.72  -4
   5  -8  -6  996.50   39.72  -3
   1  -8   5  996.50   39.72  -2
  -6  -8   1  996.50   39.72   1
  -5   8  -1  908.70   34.99  -6
   6   8  -5  908.70   34.99  -5
  -1   8   6  908.70   34.99  -4
   5   8  -6  908.70   34.99  -3
   1   8   5  908.70   34.99  -2
  -6   8   1  908.70   34.99   1
  -4  -8  -1 1691.12   39.39  -6
   5  -8  -4 1691.12   39.39  -5
  -1  -8   5 1691.12   39.39  -4
   4  -8  -5 1691.12   39.39  -3
   1  -8   4 1691.12   39.39  -2
  -5  -8   1 1691.12   39.39   1
  -4   8  -1 1731.35   25.20  -6
   5   8  -4 1731.35   25.20  -5
  -1   8   5 1731.35   25.20  -4
   4   8  -5 1731.35   25.20  -3
   1   8   4 1731.35   25.20  -2
  -5   8   1 1731.35   25.20   1
  -3  -8  -1 1549.46   16.65  -6
   4  -8  -3 1549.46   16.65  -5
  -1  -8   4 1549.46   16.65  -4
   3  -8  -4 1549.46   16.65  -3
   1  -8   3 1549.46   16.65  -2
  -4  -8   1 1549.46   16.65   1
  -3   8  -1 1729.26   13.43  -6
   4   8  -3 1729.26   13.43  -5
  -1   8   4 1729.26   13.43  -4
   3   8  -4 1729.26   13.43  -3
   1   8   3 1729.26   13.43  -2
  -4   8   1 1729.26   13.43   1
  -2  -8  -1 2861.03   18.32  -6
   3  -8  -2 2861.03   18.32  -5
  -1  -8   3 2861.03   18.32  -4
   2  -8  -3 2861.03   18.32  -3
   1  -8   2 2861.03   18.32  -2
  -3  -8   1 2861.03   18.32   1
  -2   8  -1 2960.45   13.10  -6
   3   8  -2 2960.45   13.10  -5
  -1   8   3 2960.45   13.10  -4
   2   8  -3 2960.45   13.10  -3
   1   8   2 2960.45   13.10  -2
  -3   8   1 2960.45   13.10   1
  -1  -8  -1 3948.75   20.39  -6
   2  -8  -1 3948.75   20.39  -5
  -1  -8   2 3948.75   20.39  -4
   1  -8  -2 3948.75   20.39  -3
   1  -8   1 3948.75   20.39  -2
  -2  -8   1 3948.75   20.39   1
  -1   8  -1 4439.32   27.32  -6
   2   8  -1 4439.32   27.32  -5
  -1   8   2 4439.32   27.32  -4
   1   8  -2 4439.32   27.32  -3
   1   8   1 4439.32   27.32  -2
  -2   8   1 4439.32   27.32   1
   0  -8  -1 2405.28   13.13  -6
   1  -8   0 2405.28   13.13  -5
  -1  -8   1 2405.28   13.13  -4
   0  -8  -1 2405.28   13.13  -3
   1  -8   0 2405.28   13.13  -2
  -1  -8   1 2405.28   13.13   1
   1  -8  -1 2731.04   36.95  -6
   0  -8   1 2731.04   36.95  -5
  -1  -8   0 2731.04   36.95  -4
  -1  -8   0 2731.04   36.95  -3
   1  -8  -1 2731.04   36.95  -2
   0  -8   1 2731.04   36.95   1
   1   8  -1 2846.48   24.18  -6
   0   8   1 2846.48   24.18  -5
  -1   8   0 2846.48   24.18  -4
  -1   8   0 2846.48   24.18  -3
   1   8  -1 2846.48   24.18  -2
   0   8   1 2846.48   24.18   1
   2  -8  -1 3912.64   14.66  -6
  -1  -8   2 3912.64   14.66  -5
  -1  -8  -1 3912.64   14.66  -4
  -2  -8   1 3912.64   14.66  -3
   1  -8  -2 3912.64   14.66  -2
   1  -8   1 3912.64   14.66   1
   2   8  -1 4111.01   18.78  -6
  -1   8   2 4111.01   18.78  -5
  -1   8  -1 4111.01   18.78  -4
  -2   8   1 4111.01   18.78  -3
   1   8  -2 4111.01   18.78  -2
   1   8   1 4111.01   18.78   1
   3  -8  -1 2817.91   16.23  -6
  -2  -8   3 2817.91   16.23  -5
  -1  -8  -2 2817.91   16.23  -4
  -3  -8   2 2817.91   16.23  -3
   1  -8  -3 2817.91   16.23  -2
   2  -8   1 2817.91   16.23   1
   3   8  -1 2903.96   34.88  -6
  -2   8   3 2903.96   34.88  -5
  -1   8  -2 2903.96   34.88  -4
  -3   8   2 2903.96   34.88  -3
   1   8  -3 2903.96   34.88  -2
   2   8   1 2903.96   34.88   1
   4  -8  -1 1494.87   22.35  -6
  -3  -8   4 1494.87   22.35  -5
  -1  -8  -3 1494.87   22.35  -4
  -4  -8   3 1494.87   22.35  -3
   1  -8  -4 1494.87   22.35  -2
   3  -8   1 1494.87   22.35   1
   4   8  -1 1574.35   28.79  -6
  -3   8   4 1574.35   28.79  -5
  -1   8  -3 1574.35   28.79  -4
  -4   8   3 1574.35   28.79  -3
   1   8  -4 1574.35   28.79  -2
   3   8   1 1574.35   28.79   1
   5   8  -1 1549.06   20.94  -6
  -4   8   5 1549.06   20.94  -5
  -1   8  -4 1549.06   20.94  -4
  -5   8   4 1549.06   20.94  -3
   1   8  -5 1549.06   20.94  -2
   4   8   1 1549.06   20.94   1
   6  -8  -1  844.03   39.67  -6
  -5  -8   6  844.03   39.67  -5
  -1  -8  -5  844.03   39.67  -4
  -6  -8   5  844.03   39.67  -3
   1  -8  -6  844.03   39.67  -2
   5  -8   1  844.03   39.67   1
   6   8  -1  749.81   30.98  -6
  -5   8   6  749.81   30.98  -5
  -1   8  -5  749.81   30.98  -4
  -6   8   5  749.81   30.98  -3
   1   8  -6  749.81   30.98  -2
   5   8   1  749.81   30.98   1
   7  -8  -1  361.61   37.17  -6
  -6  -8   7  361.61   37.17  -5
  -1  -8  -6  361.61   37.17  -4
  -7  -8   6  361.61   37.17  -3
   1  -8  -7  361.61   37.17  -2
   6  -8   1  361.61   37.17   1
   7   8  -1  251.04   27.68  -6
  -6   8   7  251.04   27.68  -5
  -1   8  -6  251.04   27.68  -4
  -7   8   6  251.04   27.68  -3
   1   8  -7  251.04   27.68  -2
   6   8   1  251.04   27.68   1
   8   8  -1  258.96   32.27  -6
  -7   8   8  258.96   32.27  -5
  -1   8  -7  258.96   32.27  -4
  -8   8   7  258.96   32.27  -3
   1   8  -8  258.96   32.27  -2
   7   8   1  258.96   32.27   1
  -6   9  -1  322.47   24.18  -6
   7   9  -6  322.47   24.18  -5
  -1   9   7  322.47   24.18  -4
   6   9  -7  322.47   24.18  -3
   1   9   6  322.47   24.18  -2
  -7   9   1  322.47   24.18   1
  -5   9  -1  667.01   23.72  -6
   6   9  -5  667.01   23.72  -5
  -1   9   6  667.01   23.72  -4
   5   9  -6  667.01   23.72  -3
   1   9   5  667.01   23.72  -2
  -6   9   1  667.01   23.72   1
  -4  -9  -1  717.30   35.19  -6
   5  -9  -4  717.30   35.19  -5
  -1  -9   5  717.30   35.19  -4
   4  -9  -5  717.30   35.19  -3
   1  -9   4  717.30   35.19  -2
  -5  -9   1  717.30   35.19   1
  -4   9  -1  708.88   19.97  -6
   5   9  -4  708.88   19.97  -5
  -1   9   5  708.88   19.97  -4
   4   9  -5  708.88   19.97  -3
   1   9   4  708.88   19.97  -2
  -5   9   1  708.88   19.97   1
  -3   9  -1  565.62   13.85  -6
   4   9  -3  565.62   13.85  -5
  -1   9   4  565.62   13.85  -4
   3   9  -4  565.62   13.85  -3
   1   9   3  565.62   13.85  -2
  -4   9   1  565.62   13.85   1
  -2  -9  -1  613.79   10.29  -6
   3  -9  -2  613.79   10.29  -5
  -1  -9   3  613.79   10.29  -4
   2  -9  -3  613.79   10.29  -3
   1  -9   2  613.79   10.29  -2
  -3  -9   1  613.79   10.29   1
  -2   9  -1  608.89   15.82  -6
   3   9  -2  608.89   15.82  -5
  -1   9   3  608.89   15.82  -4
   2   9  -3  608.89   15.82  -3
   1   9   2  608.89   15.82  -2
  -3   9   1  608.89   15.82   1
  -1  -9  -1  213.59    9.68  -6
   2  -9  -1  213.59    9.68  -5
  -1  -9   2  213.59    9.68  -4
   1  -9  -2  213.59    9.68  -3
   1  -9   1  213.59    9.68  -2
  -2  -9   1  213.59    9.68   1
  -1   9  -1  217.30   11.52  -6
   2   9  -1  217.30   11.52  -5
  -1   9   2  217.30   11.52  -4
   1   9  -2  217.30   11.52  -3
   1   9   1  217.30   11.52  -2
  -2   9   1  217.30   11.52   1
   0  -9  -1  228.17    7.46  -6
   1  -9   0  228.17    7.46  -5
  -1  -9   1  228.17    7.46  -4
   0  -9  -1  228.17    7.46  -3
   1  -9   0  228.17    7.46  -2
  -1  -9   1  228.17    7.46   1
   0   9  -1  279.70   16.69  -6
   1   9   0  279.70   16.69  -5
  -1   9   1  279.70   16.69  -4
   0   9  -1  279.70   16.69  -3
   1   9   0  279.70   16.69  -2
  -1   9   1  279.70   16.69   1
   1  -9  -1  260.09    8.36  -6
   0  -9   1  260.09    8.36  -5
  -1  -9   0  260.09    8.36  -4
  -1  -9   0  260.09    8.36  -3
   1  -9  -1  260.09    8.36  -2
   0  -9   1  260.09    8.36   1
   1   9  -1  266.86   15.69  -6
   0   9   1  266.86   15.69  -5
  -1   9   0  266.86   15.69  -4
  -1   9   0  266.86   15.69  -3
   1   9  -1  266.86   15.69  -2
   0   9   1  266.86   15.69   1
   2  -9  -1  210.19    7.98  -6
  -1  -9   2  210.19    7.98  -5
  -1  -9  -1  210.19    7.98  -4
  -2  -9   1  210.19    7.98  -3
   1  -9  -2  210.19    7.98  -2
   1  -9   1  210.19    7.98   1
   2   9  -1  200.21   10.44  -6
  -1   9   2  200.21   10.44  -5
  -1   9  -1  200.21   10.44  -4
  -2   9   1  200.21   10.44  -3
   1   9  -2  200.21   10.44  -2
   1   9   1  200.21   10.44   1
   3  -9  -1  624.25   12.05  -6
  -2  -9   3  624.25   12.05  -5
  -1  -9  -2  624.25   12.05  -4
  -3  -9   2  624.25   12.05  -3
   1  -9  -3  624.25   12.05  -2
   2  -9   1  624.25   12.05   1
   3   9  -1  654.32   26.14  -6
  -2   9   3  654.32   26.14  -5
  -1   9  -2  654.32   26.14  -4
  -3   9   2  654.32   26.14  -3
   1   9  -3  654.32   26.14  -2
   2   9   1  654.32   26.14   1
   4  -9  -1  553.02   32.45  -6
  -3  -9   4  553.02   32.45  -5
  -1  -9  -3  553.02   32.45  -4
  -4  -9   3  553.02   32.45  -3
   1  -9  -4  553.02   32.45  -2
   3  -9   1  553.02   32.45   1
   4   9  -1  562.69   17.17  -6
  -3   9   4  562.69   17.17  -5
  -1   9  -3  562.69   17.17  -4
  -4   9   3  562.69   17.17  -3
   1   9  -4  562.69   17.17  -2
   3   9   1  562.69   17.17   1
   5  -9  -1  797.09   38.15  -6
  -4  -9   5  797.09   38.15  -5
  -1  -9  -4  797.09   38.15  -4
  -5  -9   4  797.09   38.15  -3
   1  -9  -5  797.09   38.15  -2
   4  -9   1  797.09   38.15   1
   5   9  -1  543.17   24.31  -6
  -4   9   5  543.17   24.31  -5
  -1   9  -4  543.17   24.31  -4
  -5   9   4  543.17   24.31  -3
   1   9  -5  543.17   24.31  -2
   4   9   1  543.17   24.31   1
   6  -9  -1  971.72   40.81  -6
  -5  -9   6  971.72   40.81  -5
  -1  -9  -5  971.72   40.81  -4
  -6  -9   5  971.72   40.81  -3
   1  -9  -6  971.72   40.81  -2
   5  -9   1  971.72   40.81   1
   6   9  -1  712.38   30.60  -6
  -5   9   6  712.38   30.60  -5
  -1   9  -5  712.38   30.60  -4
  -6   9   5  712.38   30.60  -3
   1   9  -6  712.38   30.60  -2
   5   9   1  712.38   30.60   1
   7  -9  -1  629.42   40.39  -6
  -6  -9   7  629.42   40.39  -5
  -1  -9  -6  629.42   40.39  -4
  -7  -9   6  629.42   40.39  -3
   1  -9  -7  629.42   40.39  -2
   6  -9   1  629.42   40.39   1
   7   9  -1  460.33   30.13  -6
  -6   9   7  460.33   30.13  -5
  -1   9  -6  460.33   30.13  -4
  -7   9   6  460.33   30.13  -3
   1   9  -7  460.33   30.13  -2
   6   9   1  460.33   30.13   1
   8   9  -1  312.05   33.66  -6
  -7   9   8  312.05   33.66  -5
  -1   9  -7  312.05   33.66  -4
  -8   9   7  312.05   33.66  -3
   1   9  -8  312.05   33.66  -2
   7   9   1  312.05   33.66   1
  -6  10  -1  224.53   24.15  -6
   7  10  -6  224.53   24.15  -5
  -1  10   7  224.53   24.15  -4
   6  10  -7  224.53   24.15  -3
   1  10   6  224.53   24.15  -2
  -7  10   1  224.53   24.15   1
  -5 -10  -1  754.86   40.20  -6
   6 -10  -5  754.86   40.20  -5
  -1 -10   6  754.86   40.20  -4
   5 -10  -6  754.86   40.20  -3
   1 -10   5  754.86   40.20  -2
  -6 -10   1  754.86   40.20   1
  -5  10  -1  648.54   34.91  -6
   6  10  -5  648.54   34.91  -5
  -1  10   6  648.54   34.91  -4
   5  10  -6  648.54   34.91  -3
   1  10   5  648.54   34.91  -2
  -6  10   1  648.54   34.91   1
  -4 -10  -1 1157.94   38.33  -6
   5 -10  -4 1157.94   38.33  -5
  -1 -10   5 1157.94   38.33  -4
   4 -10  -5 1157.94   38.33  -3
   1 -10   4 1157.94   38.33  -2
  -5 -10   1 1157.94   38.33   1
  -4  10  -1 1082.10   33.15  -6
   5  10  -4 1082.10   33.15  -5
  -1  10   5 1082.10   33.15  -4
   4  10  -5 1082.10   33.15  -3
   1  10   4 1082.10   33.15  -2
  -5  10   1 1082.10   33.15   1
  -3 -10  -1 1351.90   34.86  -6
   4 -10  -3 1351.90   34.86  -5
  -1 -10   4 1351.90   34.86  -4
   3 -10  -4 1351.90   34.86  -3
   1 -10   3 1351.90   34.86  -2
  -4 -10   1 1351.90   34.86   1
  -3  10  -1 1314.75   17.50  -6
   4  10  -3 1314.75   17.50  -5
  -1  10   4 1314.75   17.50  -4
   3  10  -4 1314.75   17.50  -3
   1  10   3 1314.75   17.50  -2
  -4  10   1 1314.75   17.50   1
  -2 -10  -1 2152.99   26.94  -6
   3 -10  -2 2152.99   26.94  -5
  -1 -10   3 2152.99   26.94  -4
   2 -10  -3 2152.99   26.94  -3
   1 -10   2 2152.99   26.94  -2
  -3 -10   1 2152.99   26.94   1
  -2  10  -1 2144.38   22.72  -6
   3  10  -2 2144.38   22.72  -5
  -1  10   3 2144.38   22.72  -4
   2  10  -3 2144.38   22.72  -3
   1  10   2 2144.38   22.72  -2
  -3  10   1 2144.38   22.72   1
  -1 -10  -1 2244.90   16.27  -6
   2 -10  -1 2244.90   16.27  -5
  -1 -10   2 2244.90   16.27  -4
   1 -10  -2 2244.90   16.27  -3
   1 -10   1 2244.90   16.27  -2
  -2 -10   1 2244.90   16.27   1
  -1  10  -1 2292.38   30.59  -6
   2  10  -1 2292.38   30.59  -5
  -1  10   2 2292.38   30.59  -4
   1  10  -2 2292.38   30.59  -3
   1  10   1 2292.38   30.59  -2
  -2  10   1 2292.38   30.59   1
   0 -10  -1 2323.91   13.84  -6
   1 -10   0 2323.91   13.84  -5
  -1 -10   1 2323.91   13.84  -4
   0 -10  -1 2323.91   13.84  -3
   1 -10   0 2323.91   13.84  -2
  -1 -10   1 2323.91   13.84   1
   0  10  -1 2420.28   25.69  -6
   1  10   0 2420.28   25.69  -5
  -1  10   1 2420.28   25.69  -4
   0  10  -1 2420.28   25.69  -3
   1  10   0 2420.28   25.69  -2
  -1  10   1 2420.28   25.69   1
   1 -10  -1 2251.92   11.86  -6
   0 -10   1 2251.92   11.86  -5
  -1 -10   0 2251.92   11.86  -4
  -1 -10   0 2251.92   11.86  -3
   1 -10  -1 2251.92   11.86  -2
   0 -10   1 2251.92   11.86   1
   1  10  -1 2324.69   25.50  -6
   0  10   1 2324.69   25.50  -5
  -1  10   0 2324.69   25.50  -4
  -1  10   0 2324.69   25.50  -3
   1  10  -1 2324.69   25.50  -2
   0  10   1 2324.69   25.50   1
   2 -10  -1 2199.54   10.98  -6
  -1 -10   2 2199.54   10.98  -5
  -1 -10  -1 2199.54   10.98  -4
  -2 -10   1 2199.54   10.98  -3
   1 -10  -2 2199.54   10.98  -2
   1 -10   1 2199.54   10.98   1
   2  10  -1 2047.60   24.79  -6
  -1  10   2 2047.60   24.79  -5
  -1  10  -1 2047.60   24.79  -4
  -2  10   1 2047.60   24.79  -3
   1  10  -2 2047.60   24.79  -2
   1  10   1 2047.60   24.79   1
   3 -10  -1 2181.97   19.99  -6
  -2 -10   3 2181.97   19.99  -5
  -1 -10  -2 2181.97   19.99  -4
  -3 -10   2 2181.97   19.99  -3
   1 -10  -3 2181.97   19.99  -2
   2 -10   1 2181.97   19.99   1
   3  10  -1 2055.87   34.62  -6
  -2  10   3 2055.87   34.62  -5
  -1  10  -2 2055.87   34.62  -4
  -3  10   2 2055.87   34.62  -3
   1  10  -3 2055.87   34.62  -2
   2  10   1 2055.87   34.62   1
   4 -10  -1 1342.20   41.06  -6
  -3 -10   4 1342.20   41.06  -5
  -1 -10  -3 1342.20   41.06  -4
  -4 -10   3 1342.20   41.06  -3
   1 -10  -4 1342.20   41.06  -2
   3 -10   1 1342.20   41.06   1
   4  10  -1 1298.02   20.56  -6
  -3  10   4 1298.02   20.56  -5
  -1  10  -3 1298.02   20.56  -4
  -4  10   3 1298.02   20.56  -3
   1  10  -4 1298.02   20.56  -2
   3  10   1 1298.02   20.56   1
   5 -10  -1 1100.63   39.33  -6
  -4 -10   5 1100.63   39.33  -5
  -1 -10  -4 1100.63   39.33  -4
  -5 -10   4 1100.63   39.33  -3
   1 -10  -5 1100.63   39.33  -2
   4 -10   1 1100.63   39.33   1
   5  10  -1 1072.66   31.30  -6
  -4  10   5 1072.66   31.30  -5
  -1  10  -4 1072.66   31.30  -4
  -5  10   4 1072.66   31.30  -3
   1  10  -5 1072.66   31.30  -2
   4  10   1 1072.66   31.30   1
   6 -10  -1  726.35   39.94  -6
  -5 -10   6  726.35   39.94  -5
  -1 -10  -5  726.35   39.94  -4
  -6 -10   5  726.35   39.94  -3
   1 -10  -6  726.35   39.94  -2
   5 -10   1  726.35   39.94   1
   6  10  -1  519.47   31.91  -6
  -5  10   6  519.47   31.91  -5
  -1  10  -5  519.47   31.91  -4
  -6  10   5  519.47   31.91  -3
   1  10  -6  519.47   31.91  -2
   5  10   1  519.47   31.91   1
   7 -10  -1  261.68   38.94  -6
  -6 -10   7  261.68   38.94  -5
  -1 -10  -6  261.68   38.94  -4
  -7 -10   6  261.68   38.94  -3
   1 -10  -7  261.68   38.94  -2
   6 -10   1  261.68   38.94   1
   7  10  -1  201.39   29.04  -6
  -6  10   7  201.39   29.04  -5
  -1  10  -6  201.39   29.04  -4
  -7  10   6  201.39   29.04  -3
   1  10  -7  201.39   29.04  -2
   6  10   1  201.39   29.04   1
   8  10  -1  182.28   32.84  -6
  -7  10   8  182.28   32.84  -5
  -1  10  -7  182.28   32.84  -4
  -8  10   7  182.28   32.84  -3
   1  10  -8  182.28   32.84  -2
   7  10   1  182.28   32.84   1
  -6 -11  -1  649.28   43.98  -6
   7 -11  -6  649.28   43.98  -5
  -1 -11   7  649.28   43.98  -4
   6 -11  -7  649.28   43.98  -3
   1 -11   6  649.28   43.98  -2
  -7 -11   1  649.28   43.98   1
  -6  11  -1  362.08   36.39  -6
   7  11  -6  362.08   36.39  -5
  -1  11   7  362.08   36.39  -4
   6  11  -7  362.08   36.39  -3
   1  11   6  362.08   36.39  -2
  -7  11   1  362.08   36.39   1
  -5 -11  -1 1046.43   43.39  -6
   6 -11  -5 1046.43   43.39  -5
  -1 -11   6 1046.43   43.39  -4
   5 -11  -6 1046.43   43.39  -3
   1 -11   5 1046.43   43.39  -2
  -6 -11   1 1046.43   43.39   1
  -5  11  -1  719.32   36.08  -6
   6  11  -5  719.32   36.08  -5
  -1  11   6  719.32   36.08  -4
   5  11  -6  719.32   36.08  -3
   1  11   5  719.32   36.08  -2
  -6  11   1  719.32   36.08   1
  -4 -11  -1  719.59   36.81  -6
   5 -11  -4  719.59   36.81  -5
  -1 -11   5  719.59   36.81  -4
   4 -11  -5  719.59   36.81  -3
   1 -11   4  719.59   36.81  -2
  -5 -11   1  719.59   36.81   1
  -4  11  -1  697.72   21.47  -6
   5  11  -4  697.72   21.47  -5
  -1  11   5  697.72   21.47  -4
   4  11  -5  697.72   21.47  -3
   1  11   4  697.72   21.47  -2
  -5  11   1  697.72   21.47   1
  -3 -11  -1  630.20   31.21  -6
   4 -11  -3  630.20   31.21  -5
  -1 -11   4  630.20   31.21  -4
   3 -11  -4  630.20   31.21  -3
   1 -11   3  630.20   31.21  -2
  -4 -11   1  630.20   31.21   1
  -3  11  -1  686.90   19.74  -6
   4  11  -3  686.90   19.74  -5
  -1  11   4  686.90   19.74  -4
   3  11  -4  686.90   19.74  -3
   1  11   3  686.90   19.74  -2
  -4  11   1  686.90   19.74   1
  -2 -11  -1  618.75   21.70  -6
   3 -11  -2  618.75   21.70  -5
  -1 -11   3  618.75   21.70  -4
   2 -11  -3  618.75   21.70  -3
   1 -11   2  618.75   21.70  -2
  -3 -11   1  618.75   21.70   1
  -2  11  -1  638.65   15.40  -6
   3  11  -2  638.65   15.40  -5
  -1  11   3  638.65   15.40  -4
   2  11  -3  638.65   15.40  -3
   1  11   2  638.65   15.40  -2
  -3  11   1  638.65   15.40   1
  -1 -11  -1  311.59   17.03  -6
   2 -11  -1  311.59   17.03  -5
  -1 -11   2  311.59   17.03  -4
   1 -11  -2  311.59   17.03  -3
   1 -11   1  311.59   17.03  -2
  -2 -11   1  311.59   17.03   1
  -1  11  -1  323.44   13.37  -6
   2  11  -1  323.44   13.37  -5
  -1  11   2  323.44   13.37  -4
   1  11  -2  323.44   13.37  -3
   1  11   1  323.44   13.37  -2
  -2  11   1  323.44   13.37   1
   0 -11  -1  219.79    7.90  -6
   1 -11   0  219.79    7.90  -5
  -1 -11   1  219.79    7.90  -4
   0 -11  -1  219.79    7.90  -3
   1 -11   0  219.79    7.90  -2
  -1 -11   1  219.79    7.90   1
   0  11  -1  216.41   18.31  -6
   1  11   0  216.41   18.31  -5
  -1  11   1  216.41   18.31  -4
   0  11  -1  216.41   18.31  -3
   1  11   0  216.41   18.31  -2
  -1  11   1  216.41   18.31   1
   1 -11  -1  221.13   14.66  -6
   0 -11   1  221.13   14.66  -5
  -1 -11   0  221.13   14.66  -4
  -1 -11   0  221.13   14.66  -3
   1 -11  -1  221.13   14.66  -2
   0 -11   1  221.13   14.66   1
   1  11  -1  190.62   18.38  -6
   0  11   1  190.62   18.38  -5
  -1  11   0  190.62   18.38  -4
  -1  11   0  190.62   18.38  -3
   1  11  -1  190.62   18.38  -2
   0  11   1  190.62   18.38   1
   2 -11  -1  346.13   20.66  -6
  -1 -11   2  346.13   20.66  -5
  -1 -11  -1  346.13   20.66  -4
  -2 -11   1  346.13   20.66  -3
   1 -11  -2  346.13   20.66  -2
   1 -11   1  346.13   20.66   1
   2  11  -1  298.55   20.04  -6
  -1  11   2  298.55   20.04  -5
  -1  11  -1  298.55   20.04  -4
  -2  11   1  298.55   20.04  -3
   1  11  -2  298.55   20.04  -2
   1  11   1  298.55   20.04   1
   3 -11  -1  716.04   23.89  -6
  -2 -11   3  716.04   23.89  -5
  -1 -11  -2  716.04   23.89  -4
  -3 -11   2  716.04   23.89  -3
   1 -11  -3  716.04   23.89  -2
   2 -11   1  716.04   23.89   1
   3  11  -1  645.35   17.03  -6
  -2  11   3  645.35   17.03  -5
  -1  11  -2  645.35   17.03  -4
  -3  11   2  645.35   17.03  -3
   1  11  -3  645.35   17.03  -2
   2  11   1  645.35   17.03   1
   4 -11  -1  757.58   25.55  -6
  -3 -11   4  757.58   25.55  -5
  -1 -11  -3  757.58   25.55  -4
  -4 -11   3  757.58   25.55  -3
   1 -11  -4  757.58   25.55  -2
   3 -11   1  757.58   25.55   1
   4  11  -1  745.85   19.89  -6
  -3  11   4  745.85   19.89  -5
  -1  11  -3  745.85   19.89  -4
  -4  11   3  745.85   19.89  -3
   1  11  -4  745.85   19.89  -2
   3  11   1  745.85   19.89   1
   5 -11  -1  841.92   28.36  -6
  -4 -11   5  841.92   28.36  -5
  -1 -11  -4  841.92   28.36  -4
  -5 -11   4  841.92   28.36  -3
   1 -11  -5  841.92   28.36  -2
   4 -11   1  841.92   28.36   1
   5  11  -1  636.62   21.09  -6
  -4  11   5  636.62   21.09  -5
  -1  11  -4  636.62   21.09  -4
  -5  11   4  636.62   21.09  -3
   1  11  -5  636.62   21.09  -2
   4  11   1  636.62   21.09   1
   6 -11  -1  974.16   40.82  -6
  -5 -11   6  974.16   40.82  -5
  -1 -11  -5  974.16   40.82  -4
  -6 -11   5  974.16   40.82  -3
   1 -11  -6  974.16   40.82  -2
   5 -11   1  974.16   40.82   1
   6  11  -1  672.77   33.49  -6
  -5  11   6  672.77   33.49  -5
  -1  11  -5  672.77   33.49  -4
  -6  11   5  672.77   33.49  -3
   1  11  -6  672.77   33.49  -2
   5  11   1  672.77   33.49   1
   7 -11  -1  627.53   43.14  -6
  -6 -11   7  627.53   43.14  -5
  -1 -11  -6  627.53   43.14  -4
  -7 -11   6  627.53   43.14  -3
   1 -11  -7  627.53   43.14  -2
   6 -11   1  627.53   43.14   1
   7  11  -1  459.50   35.21  -6
  -6  11   7  459.50   35.21  -5
  -1  11  -6  459.50   35.21  -4
  -7  11   6  459.50   35.21  -3
   1  11  -7  459.50   35.21  -2
   6  11   1  459.50   35.21   1
  -5 -12  -1  656.00   41.53  -6
   6 -12  -5  656.00   41.53  -5
  -1 -12   6  656.00   41.53  -4
   5 -12  -6  656.00   41.53  -3
   1 -12   5  656.00   41.53  -2
  -6 -12   1  656.00   41.53   1
  -5  12  -1  444.84   33.30  -6
   6  12  -5  444.84   33.30  -5
  -1  12   6  444.84   33.30  -4
   5  12  -6  444.84   33.30  -3
   1  12   5  444.84   33.30  -2
  -6  12   1  444.84   33.30   1
  -4  12  -1 1064.63   24.80  -6
   5  12  -4 1064.63   24.80  -5
  -1  12   5 1064.63   24.80  -4
   4  12  -5 1064.63   24.80  -3
   1  12   4 1064.63   24.80  -2
  -5  12   1 1064.63   24.80   1
  -3 -12  -1 1381.45   29.50  -6
   4 -12  -3 1381.45   29.50  -5
  -1 -12   4 1381.45   29.50  -4
   3 -12  -4 1381.45   29.50  -3
   1 -12   3 1381.45   29.50  -2
  -4 -12   1 1381.45   29.50   1
  -3  12  -1 1496.79   21.01  -6
   4  12  -3 1496.79   21.01  -5
  -1  12   4 1496.79   21.01  -4
   3  12  -4 1496.79   21.01  -3
   1  12   3 1496.79   21.01  -2
  -4  12   1 1496.79   21.01   1
  -2 -12  -1 2194.79   29.43  -6
   3 -12  -2 2194.79   29.43  -5
  -1 -12   3 2194.79   29.43  -4
   2 -12  -3 2194.79   29.43  -3
   1 -12   2 2194.79   29.43  -2
  -3 -12   1 2194.79   29.43   1
  -2  12  -1 2176.23   21.91  -6
   3  12  -2 2176.23   21.91  -5
  -1  12   3 2176.23   21.91  -4
   2  12  -3 2176.23   21.91  -3
   1  12   2 2176.23   21.91  -2
  -3  12   1 2176.23   21.91   1
  -1 -12  -1 2887.79   26.57  -6
   2 -12  -1 2887.79   26.57  -5
  -1 -12   2 2887.79   26.57  -4
   1 -12  -2 2887.79   26.57  -3
   1 -12   1 2887.79   26.57  -2
  -2 -12   1 2887.79   26.57   1
  -1  12  -1 3078.33   23.80  -6
   2  12  -1 3078.33   23.80  -5
  -1  12   2 3078.33   23.80  -4
   1  12  -2 3078.33   23.80  -3
   1  12   1 3078.33   23.80  -2
  -2  12   1 3078.33   23.80   1
   0 -12  -1 2791.07   48.77  -6
   1 -12   0 2791.07   48.77  -5
  -1 -12   1 2791.07   48.77  -4
   0 -12  -1 2791.07   48.77  -3
   1 -12   0 2791.07   48.77  -2
  -1 -12   1 2791.07   48.77   1
   0  12  -1 2799.67   30.72  -6
   1  12   0 2799.67   30.72  -5
  -1  12   1 2799.67   30.72  -4
   0  12  -1 2799.67   30.72  -3
   1  12   0 2799.67   30.72  -2
  -1  12   1 2799.67   30.72   1
   1 -12  -1 2880.76   23.79  -6
   0 -12   1 2880.76   23.79  -5
  -1 -12   0 2880.76   23.79  -4
  -1 -12   0 2880.76   23.79  -3
   1 -12  -1 2880.76   23.79  -2
   0 -12   1 2880.76   23.79   1
   1  12  -1 2833.18   30.94  -6
   0  12   1 2833.18   30.94  -5
  -1  12   0 2833.18   30.94  -4
  -1  12   0 2833.18   30.94  -3
   1  12  -1 2833.18   30.94  -2
   0  12   1 2833.18   30.94   1
   2 -12  -1 3155.11   39.60  -6
  -1 -12   2 3155.11   39.60  -5
  -1 -12  -1 3155.11   39.60  -4
  -2 -12   1 3155.11   39.60  -3
   1 -12  -2 3155.11   39.60  -2
   1 -12   1 3155.11   39.60   1
   2  12  -1 3278.12   47.65  -6
  -1  12   2 3278.12   47.65  -5
  -1  12  -1 3278.12   47.65  -4
  -2  12   1 3278.12   47.65  -3
   1  12  -2 3278.12   47.65  -2
   1  12   1 3278.12   47.65   1
   3 -12  -1 2389.99   32.15  -6
  -2 -12   3 2389.99   32.15  -5
  -1 -12  -2 2389.99   32.15  -4
  -3 -12   2 2389.99   32.15  -3
   1 -12  -3 2389.99   32.15  -2
   2 -12   1 2389.99   32.15   1
   3  12  -1 2338.42   25.22  -6
  -2  12   3 2338.42   25.22  -5
  -1  12  -2 2338.42   25.22  -4
  -3  12   2 2338.42   25.22  -3
   1  12  -3 2338.42   25.22  -2
   2  12   1 2338.42   25.22   1
   4 -12  -1 1435.06   29.32  -6
  -3 -12   4 1435.06   29.32  -5
  -1 -12  -3 1435.06   29.32  -4
  -4 -12   3 1435.06   29.32  -3
   1 -12  -4 1435.06   29.32  -2
   3 -12   1 1435.06   29.32   1
   4  12  -1 1412.47   22.85  -6
  -3  12   4 1412.47   22.85  -5
  -1  12  -3 1412.47   22.85  -4
  -4  12   3 1412.47   22.85  -3
   1  12  -4 1412.47   22.85  -2
   3  12   1 1412.47   22.85   1
   5 -12  -1 1163.24   30.40  -6
  -4 -12   5 1163.24   30.40  -5
  -1 -12  -4 1163.24   30.40  -4
  -5 -12   4 1163.24   30.40  -3
   1 -12  -5 1163.24   30.40  -2
   4 -12   1 1163.24   30.40   1
   5  12  -1 1069.55   34.45  -6
  -4  12   5 1069.55   34.45  -5
  -1  12  -4 1069.55   34.45  -4
  -5  12   4 1069.55   34.45  -3
   1  12  -5 1069.55   34.45  -2
   4  12   1 1069.55   34.45   1
   6 -12  -1  574.22   29.60  -6
  -5 -12   6  574.22   29.60  -5
  -1 -12  -5  574.22   29.60  -4
  -6 -12   5  574.22   29.60  -3
   1 -12  -6  574.22   29.60  -2
   5 -12   1  574.22   29.60   1
  -5 -13  -1  687.99   41.91  -6
   6 -13  -5  687.99   41.91  -5
  -1 -13   6  687.99   41.91  -4
   5 -13  -6  687.99   41.91  -3
   1 -13   5  687.99   41.91  -2
  -6 -13   1  687.99   41.91   1
  -5  13  -1  599.27   35.53  -6
   6  13  -5  599.27   35.53  -5
  -1  13   6  599.27   35.53  -4
   5  13  -6  599.27   35.53  -3
   1  13   5  599.27   35.53  -2
  -6  13   1  599.27   35.53   1
  -4 -13  -1  689.55   30.00  -6
   5 -13  -4  689.55   30.00  -5
  -1 -13   5  689.55   30.00  -4
   4 -13  -5  689.55   30.00  -3
   1 -13   4  689.55   30.00  -2
  -5 -13   1  689.55   30.00   1
  -4  13  -1  753.61   23.43  -6
   5  13  -4  753.61   23.43  -5
  -1  13   5  753.61   23.43  -4
   4  13  -5  753.61   23.43  -3
   1  13   4  753.61   23.43  -2
  -5  13   1  753.61   23.43   1
  -3 -13  -1  616.97   25.98  -6
   4 -13  -3  616.97   25.98  -5
  -1 -13   4  616.97   25.98  -4
   3 -13  -4  616.97   25.98  -3
   1 -13   3  616.97   25.98  -2
  -4 -13   1  616.97   25.98   1
  -3  13  -1  790.82   23.22  -6
   4  13  -3  790.82   23.22  -5
  -1  13   4  790.82   23.22  -4
   3  13  -4  790.82   23.22  -3
   1  13   3  790.82   23.22  -2
  -4  13   1  790.82   23.22   1
  -2 -13  -1  352.79   21.73  -6
   3 -13  -2  352.79   21.73  -5
  -1 -13   3  352.79   21.73  -4
   2 -13  -3  352.79   21.73  -3
   1 -13   2  352.79   21.73  -2
  -3 -13   1  352.79   21.73   1
  -2  13  -1  412.73   16.24  -6
   3  13  -2  412.73   16.24  -5
  -1  13   3  412.73   16.24  -4
   2  13  -3  412.73   16.24  -3
   1  13   2  412.73   16.24  -2
  -3  13   1  412.73   16.24   1
  -1 -13  -1  197.34   33.46  -6
   2 -13  -1  197.34   33.46  -5
  -1 -13   2  197.34   33.46  -4
   1 -13  -2  197.34   33.46  -3
   1 -13   1  197.34   33.46  -2
  -2 -13   1  197.34   33.46   1
  -1  13  -1  218.57   15.79  -6
   2  13  -1  218.57   15.79  -5
  -1  13   2  218.57   15.79  -4
   1  13  -2  218.57   15.79  -3
   1  13   1  218.57   15.79  -2
  -2  13   1  218.57   15.79   1
   0 -13  -1  177.55   34.62  -6
   1 -13   0  177.55   34.62  -5
  -1 -13   1  177.55   34.62  -4
   0 -13  -1  177.55   34.62  -3
   1 -13   0  177.55   34.62  -2
  -1 -13   1  177.55   34.62   1
   0  13  -1  166.31   20.30  -6
   1  13   0  166.31   20.30  -5
  -1  13   1  166.31   20.30  -4
   0  13  -1  166.31   20.30  -3
   1  13   0  166.31   20.30  -2
  -1  13   1  166.31   20.30   1
   1 -13  -1  170.36   23.88  -6
   0 -13   1  170.36   23.88  -5
  -1 -13   0  170.36   23.88  -4
  -1 -13   0  170.36   23.88  -3
   1 -13  -1  170.36   23.88  -2
   0 -13   1  170.36   23.88   1
   1  13  -1  145.06   20.69  -6
   0  13   1  145.06   20.69  -5
  -1  13   0  145.06   20.69  -4
  -1  13   0  145.06   20.69  -3
   1  13  -1  145.06   20.69  -2
   0  13   1  145.06   20.69   1
   2 -13  -1  214.83   20.85  -6
  -1 -13   2  214.83   20.85  -5
  -1 -13  -1  214.83   20.85  -4
  -2 -13   1  214.83   20.85  -3
   1 -13  -2  214.83   20.85  -2
   1 -13   1  214.83   20.85   1
   2  13  -1  188.41   29.57  -6
  -1  13   2  188.41   29.57  -5
  -1  13  -1  188.41   29.57  -4
  -2  13   1  188.41   29.57  -3
   1  13  -2  188.41   29.57  -2
   1  13   1  188.41   29.57   1
   3 -13  -1  439.20   23.93  -6
  -2 -13   3  439.20   23.93  -5
  -1 -13  -2  439.20   23.93  -4
  -3 -13   2  439.20   23.93  -3
   1 -13  -3  439.20   23.93  -2
   2 -13   1  439.20   23.93   1
   3  13  -1  439.34   31.93  -6
  -2  13   3  439.34   31.93  -5
  -1  13  -2  439.34   31.93  -4
  -3  13   2  439.34   31.93  -3
   1  13  -3  439.34   31.93  -2
   2  13   1  439.34   31.93   1
   4 -13  -1  716.70   26.91  -6
  -3 -13   4  716.70   26.91  -5
  -1 -13  -3  716.70   26.91  -4
  -4 -13   3  716.70   26.91  -3
   1 -13  -4  716.70   26.91  -2
   3 -13   1  716.70   26.91   1
   4  13  -1  745.64   34.10  -6
  -3  13   4  745.64   34.10  -5
  -1  13  -3  745.64   34.10  -4
  -4  13   3  745.64   34.10  -3
   1  13  -4  745.64   34.10  -2
   3  13   1  745.64   34.10   1
   5 -13  -1  689.44   28.00  -6
  -4 -13   5  689.44   28.00  -5
  -1 -13  -4  689.44   28.00  -4
  -5 -13   4  689.44   28.00  -3
   1 -13  -5  689.44   28.00  -2
   4 -13   1  689.44   28.00   1
   6 -13  -1  722.93   31.17  -6
  -5 -13   6  722.93   31.17  -5
  -1 -13  -5  722.93   31.17  -4
  -6 -13   5  722.93   31.17  -3
   1 -13  -6  722.93   31.17  -2
   5 -13   1  722.93   31.17   1
  -4  14  -1  534.46   32.34  -6
   5  14  -4  534.46   32.34  -5
  -1  14   5  534.46   32.34  -4
   4  14  -5  534.46   32.34  -3
   1  14   4  534.46   32.34  -2
  -5  14   1  534.46   32.34   1
  -3  14  -1 1037.46   25.18  -6
   4  14  -3 1037.46   25.18  -5
  -1  14   4 1037.46   25.18  -4
   3  14  -4 1037.46   25.18  -3
   1  14   3 1037.46   25.18  -2
  -4  14   1 1037.46   25.18   1
  -2  14  -1 1178.46   20.51  -6
   3  14  -2 1178.46   20.51  -5
  -1  14   3 1178.46   20.51  -4
   2  14  -3 1178.46   20.51  -3
   1  14   2 1178.46   20.51  -2
  -3  14   1 1178.46   20.51   1
  -1 -14  -1 1391.68   45.53  -6
   2 -14  -1 1391.68   45.53  -5
  -1 -14   2 1391.68   45.53  -4
   1 -14  -2 1391.68   45.53  -3
   1 -14   1 1391.68   45.53  -2
  -2 -14   1 1391.68   45.53   1
  -1  14  -1 1431.45   28.21  -6
   2  14  -1 1431.45   28.21  -5
  -1  14   2 1431.45   28.21  -4
   1  14  -2 1431.45   28.21  -3
   1  14   1 1431.45   28.21  -2
  -2  14   1 1431.45   28.21   1
   0 -14  -1 1695.48   46.69  -6
   1 -14   0 1695.48   46.69  -5
  -1 -14   1 1695.48   46.69  -4
   0 -14  -1 1695.48   46.69  -3
   1 -14   0 1695.48   46.69  -2
  -1 -14   1 1695.48   46.69   1
   0  14  -1 1804.94   29.79  -6
   1  14   0 1804.94   29.79  -5
  -1  14   1 1804.94   29.79  -4
   0  14  -1 1804.94   29.79  -3
   1  14   0 1804.94   29.79  -2
  -1  14   1 1804.94   29.79   1
   1 -14  -1 1687.16   33.17  -6
   0 -14   1 1687.16   33.17  -5
  -1 -14   0 1687.16   33.17  -4
  -1 -14   0 1687.16   33.17  -3
   1 -14  -1 1687.16   33.17  -2
   0 -14   1 1687.16   33.17   1
   1  14  -1 1780.80   42.48  -6
   0  14   1 1780.80   42.48  -5
  -1  14   0 1780.80   42.48  -4
  -1  14   0 1780.80   42.48  -3
   1  14  -1 1780.80   42.48  -2
   0  14   1 1780.80   42.48   1
   2 -14  -1 1588.62   47.82  -6
  -1 -14   2 1588.62   47.82  -5
  -1 -14  -1 1588.62   47.82  -4
  -2 -14   1 1588.62   47.82  -3
   1 -14  -2 1588.62   47.82  -2
   1 -14   1 1588.62   47.82   1
   2  14  -1 1608.94   41.34  -6
  -1  14   2 1608.94   41.34  -5
  -1  14  -1 1608.94   41.34  -4
  -2  14   1 1608.94   41.34  -3
   1  14  -2 1608.94   41.34  -2
   1  14   1 1608.94   41.34   1
   3 -14  -1 1200.33   47.80  -6
  -2 -14   3 1200.33   47.80  -5
  -1 -14  -2 1200.33   47.80  -4
  -3 -14   2 1200.33   47.80  -3
   1 -14  -3 1200.33   47.80  -2
   2 -14   1 1200.33   47.80   1
   3  14  -1 1282.71   39.21  -6
  -2  14   3 1282.71   39.21  -5
  -1  14  -2 1282.71   39.21  -4
  -3  14   2 1282.71   39.21  -3
   1  14  -3 1282.71   39.21  -2
   2  14   1 1282.71   39.21   1
   4 -14  -1 1014.65   44.72  -6
  -3 -14   4 1014.65   44.72  -5
  -1 -14  -3 1014.65   44.72  -4
  -4 -14   3 1014.65   44.72  -3
   1 -14  -4 1014.65   44.72  -2
   3 -14   1 1014.65   44.72   1
   4  14  -1 1083.47   36.95  -6
  -3  14   4 1083.47   36.95  -5
  -1  14  -3 1083.47   36.95  -4
  -4  14   3 1083.47   36.95  -3
   1  14  -4 1083.47   36.95  -2
   3  14   1 1083.47   36.95   1
   5 -14  -1  576.52   29.12  -6
  -4 -14   5  576.52   29.12  -5
  -1 -14  -4  576.52   29.12  -4
  -5 -14   4  576.52   29.12  -3
   1 -14  -5  576.52   29.12  -2
   4 -14   1  576.52   29.12   1
   6 -14  -1  477.04   43.48  -6
  -5 -14   6  477.04   43.48  -5
  -1 -14  -5  477.04   43.48  -4
  -6 -14   5  477.04   43.48  -3
   1 -14  -6  477.04   43.48  -2
   5 -14   1  477.04   43.48   1
  -2 -15  -1  208.22   39.60  -6
   3 -15  -2  208.22   39.60  -5
  -1 -15   3  208.22   39.60  -4
   2 -15  -3  208.22   39.60  -3
   1 -15   2  208.22   39.60  -2
  -3 -15   1  208.22   39.60   1
  -2  15  -1  233.24   33.21  -6
   3  15  -2  233.24   33.21  -5
  -1  15   3  233.24   33.21  -4
   2  15  -3  233.24   33.21  -3
   1  15   2  233.24   33.21  -2
  -3  15   1  233.24   33.21   1
  -1 -15  -1   77.40   38.74  -6
   2 -15  -1   77.40   38.74  -5
  -1 -15   2   77.40   38.74  -4
   1 -15  -2   77.40   38.74  -3
   1 -15   1   77.40   38.74  -2
  -2 -15   1   77.40   38.74   1
  -1  15  -1   71.83   31.79  -6
   2  15  -1   71.83   31.79  -5
  -1  15   2   71.83   31.79  -4
   1  15  -2   71.83   31.79  -3
   1  15   1   71.83   31.79  -2
  -2  15   1   71.83   31.79   1
   0 -15  -1   84.59   34.22  -6
   1 -15   0   84.59   34.22  -5
  -1 -15   1   84.59   34.22  -4
   0 -15  -1   84.59   34.22  -3
   1 -15   0   84.59   34.22  -2
  -1 -15   1   84.59   34.22   1
   0  15  -1   82.60   30.82  -6
   1  15   0   82.60   30.82  -5
  -1  15   1   82.60   30.82  -4
   0  15  -1   82.60   30.82  -3
   1  15   0   82.60   30.82  -2
  -1  15   1   82.60   30.82   1
   1  15  -1   64.84   31.06  -6
   0  15   1   64.84   31.06  -5
  -1  15   0   64.84   31.06  -4
  -1  15   0   64.84   31.06  -3
   1  15  -1   64.84   31.06  -2
   0  15   1   64.84   31.06   1
   2 -15  -1   84.00   37.43  -6
  -1 -15   2   84.00   37.43  -5
  -1 -15  -1   84.00   37.43  -4
  -2 -15   1   84.00   37.43  -3
   1 -15  -2   84.00   37.43  -2
   1 -15   1   84.00   37.43   1
   2  15  -1   71.92   31.09  -6
  -1  15   2   71.92   31.09  -5
  -1  15  -1   71.92   31.09  -4
  -2  15   1   71.92   31.09  -3
   1  15  -2   71.92   31.09  -2
   1  15   1   71.92   31.09   1
   3 -15  -1  297.77   42.59  -6
  -2 -15   3  297.77   42.59  -5
  -1 -15  -2  297.77   42.59  -4
  -3 -15   2  297.77   42.59  -3
   1 -15  -3  297.77   42.59  -2
   2 -15   1  297.77   42.59   1
   3  15  -1  279.04   33.24  -6
  -2  15   3  279.04   33.24  -5
  -1  15  -2  279.04   33.24  -4
  -3  15   2  279.04   33.24  -3
   1  15  -3  279.04   33.24  -2
   2  15   1  279.04   33.24   1
   4  15  -1  333.90   34.35  -6
  -3  15   4  333.90   34.35  -5
  -1  15  -3  333.90   34.35  -4
  -4  15   3  333.90   34.35  -3
   1  15  -4  333.90   34.35  -2
   3  15   1  333.90   34.35   1
   1  16  -1 1243.66   43.63  -6
   0  16   1 1243.66   43.63  -5
  -1  16   0 1243.66   43.63  -4
  -1  16   0 1243.66   43.63  -3
   1  16  -1 1243.66   43.63  -2
   0  16   1 1243.66   43.63   1
   2  16  -1 1027.79   40.90  -6
  -1  16   2 1027.79   40.90  -5
  -1  16  -1 1027.79   40.90  -4
  -2  16   1 1027.79   40.90  -3
   1  16  -2 1027.79   40.90  -2
   1  16   1 1027.79   40.90   1
   3  16  -1  785.81   39.57  -6
  -2  16   3  785.81   39.57  -5
  -1  16  -2  785.81   39.57  -4
  -3  16   2  785.81   39.57  -3
   1  16  -3  785.81   39.57  -2
   2  16   1  785.81   39.57   1
   4  16  -1  619.40   39.25  -6
  -3  16   4  619.40   39.25  -5
  -1  16  -3  619.40   39.25  -4
  -4  16   3  619.40   39.25  -3
   1  16  -4  619.40   39.25  -2
   3  16   1  619.40   39.25   1
  -7   0  -2  127.81   23.22  -6
   9   0  -7  127.81   23.22  -5
  -2   0   9  127.81   23.22  -4
   7   0  -9  127.81   23.22  -3
   2   0   7  127.81   23.22  -2
  -9   0   2  127.81   23.22   1
  -6   0  -2  326.64   22.74  -6
   8   0  -6  326.64   22.74  -5
  -2   0   8  326.64   22.74  -4
   6   0  -8  326.64   22.74  -3
   2   0   6  326.64   22.74  -2
  -8   0   2  326.64   22.74   1
  -5   0  -2  856.22   22.21  -6
   7   0  -5  856.22   22.21  -5
  -2   0   7  856.22   22.21  -4
   5   0  -7  856.22   22.21  -3
   2   0   5  856.22   22.21  -2
  -7   0   2  856.22   22.21   1
  -4   0  -2 1483.38   23.57  -6
   6   0  -4 1483.38   23.57  -5
  -2   0   6 1483.38   23.57  -4
   4   0  -6 1483.38   23.57  -3
   2   0   4 1483.38   23.57  -2
  -6   0   2 1483.38   23.57   1
  -3   0  -2 4113.79   28.66  -6
   5   0  -3 4113.79   28.66  -5
  -2   0   5 4113.79   28.66  -4
   3   0  -5 4113.79   28.66  -3
   2   0   3 4113.79   28.66  -2
  -5   0   2 4113.79   28.66   1
  -2   0  -2 9999.00   31.23  -6
   4   0  -2 9999.00   31.23  -5
  -2   0   4 9999.00   31.23  -4
   2   0  -4 9999.00   31.23  -3
   2   0   2 9999.00   31.23  -2
  -4   0   2 9999.00   31.23   1
  -1   0  -2 4591.88   14.14  -6
   3   0  -1 4591.88   14.14  -5
  -2   0   3 4591.88   14.14  -4
   1   0  -3 4591.88   14.14  -3
   2   0   1 4591.88   14.14  -2
  -3   0   2 4591.88   14.14   1
   0   0  -2 7255.35   18.46  -6
   2   0   0 7255.35   18.46  -5
  -2   0   2 7255.35   18.46  -4
   0   0  -2 7255.35   18.46  -3
   2   0   0 7255.35   18.46  -2
  -2   0   2 7255.35   18.46   1
   1   0  -2 8232.96   16.39  -6
   1   0   1 8232.96   16.39  -5
  -2   0   1 8232.96   16.39  -4
  -1   0  -1 8232.96   16.39  -3
   2   0  -1 8232.96   16.39  -2
  -1   0   2 8232.96   16.39   1
   2   0  -2 6579.66   27.39  -6
   0   0   2 6579.66   27.39  -5
  -2   0   0 6579.66   27.39  -4
  -2   0   0 6579.66   27.39  -3
   2   0  -2 6579.66   27.39  -2
   0   0   2 6579.66   27.39   1
   3   0  -2 4393.17   23.22  -6
  -1   0   3 4393.17   23.22  -5
  -2   0  -1 4393.17   23.22  -4
  -3   0   1 4393.17   23.22  -3
   2   0  -3 4393.17   23.22  -2
   1   0   2 4393.17   23.22   1
   4   0  -2 5932.35   37.12  -6
  -2   0   4 5932.35   37.12  -5
  -2   0  -2 5932.35   37.12  -4
  -4   0   2 5932.35   37.12  -3
   2   0  -4 5932.35   37.12  -2
   2   0   2 5932.35   37.12   1
   5   0  -2 2621.44   28.61  -6
  -3   0   5 2621.44   28.61  -5
  -2   0  -3 2621.44   28.61  -4
  -5   0   3 2621.44   28.61  -3
   2   0  -5 2621.44   28.61  -2
   3   0   2 2621.44   28.61   1
   6   0  -2 1653.83   26.17  -6
  -4   0   6 1653.83   26.17  -5
  -2   0  -4 1653.83   26.17  -4
  -6   0   4 1653.83   26.17  -3
   2   0  -6 1653.83   26.17  -2
   4   0   2 1653.83   26.17   1
   7   0  -2 1107.04   27.57  -6
  -5   0   7 1107.04   27.57  -5
  -2   0  -5 1107.04   27.57  -4
  -7   0   5 1107.04   27.57  -3
   2   0  -7 1107.04   27.57  -2
   5   0   2 1107.04   27.57   1
   8   0  -2  367.44   33.81  -6
  -6   0   8  367.44   33.81  -5
  -2   0  -6  367.44   33.81  -4
  -8   0   6  367.44   33.81  -3
   2   0  -8  367.44   33.81  -2
   6   0   2  367.44   33.81   1
   9   0  -2  103.47   22.97  -6
  -7   0   9  103.47   22.97  -5
  -2   0  -7  103.47   22.97  -4
  -9   0   7  103.47   22.97  -3
   2   0  -9  103.47   22.97  -2
   7   0   2  103.47   22.97   1
  -7  -1  -2  424.85   25.70  -6
   9  -1  -7  424.85   25.70  -5
  -2  -1   9  424.85   25.70  -4
   7  -1  -9  424.85   25.70  -3
   2  -1   7  424.85   25.70  -2
  -9  -1   2  424.85   25.70   1
  -7   1  -2  414.68   25.72  -6
   9   1  -7  414.68   25.72  -5
  -2   1   9  414.68   25.72  -4
   7   1  -9  414.68   25.72  -3
   2   1   7  414.68   25.72  -2
  -9   1   2  414.68   25.72   1
  -6  -1  -2  754.09   26.25  -6
   8  -1  -6  754.09   26.25  -5
  -2  -1   8  754.09   26.25  -4
   6  -1  -8  754.09   26.25  -3
   2  -1   6  754.09   26.25  -2
  -8  -1   2  754.09   26.25   1
  -6   1  -2  765.81   25.11  -6
   8   1  -6  765.81   25.11  -5
  -2   1   8  765.81   25.11  -4
   6   1  -8  765.81   25.11  -3
   2   1   6  765.81   25.11  -2
  -8   1   2  765.81   25.11   1
  -5  -1  -2  766.30   23.52  -6
   7  -1  -5  766.30   23.52  -5
  -2  -1   7  766.30   23.52  -4
   5  -1  -7  766.30   23.52  -3
   2  -1   5  766.30   23.52  -2
  -7  -1   2  766.30   23.52   1
  -5   1  -2  744.89   21.04  -6
   7   1  -5  744.89   21.04  -5
  -2   1   7  744.89   21.04  -4
   5   1  -7  744.89   21.04  -3
   2   1   5  744.89   21.04  -2
  -7   1   2  744.89   21.04   1
  -4  -1  -2 1446.98   33.49  -6
   6  -1  -4 1446.98   33.49  -5
  -2  -1   6 1446.98   33.49  -4
   4  -1  -6 1446.98   33.49  -3
   2  -1   4 1446.98   33.49  -2
  -6  -1   2 1446.98   33.49   1
  -4   1  -2 1530.68   33.67  -6
   6   1  -4 1530.68   33.67  -5
  -2   1   6 1530.68   33.67  -4
   4   1  -6 1530.68   33.67  -3
   2   1   4 1530.68   33.67  -2
  -6   1   2 1530.68   33.67   1
  -3  -1  -2 2581.23   17.76  -6
   5  -1  -3 2581.23   17.76  -5
  -2  -1   5 2581.23   17.76  -4
   3  -1  -5 2581.23   17.76  -3
   2  -1   3 2581.23   17.76  -2
  -5  -1   2 2581.23   17.76   1
  -2  -1  -2 3209.54   18.55  -6
   4  -1  -2 3209.54   18.55  -5
  -2  -1   4 3209.54   18.55  -4
   2  -1  -4 3209.54   18.55  -3
   2  -1   2 3209.54   18.55  -2
  -4  -1   2 3209.54   18.55   1
  -1  -1  -2 1144.95   12.20  -6
   3  -1  -1 1144.95   12.20  -5
  -2  -1   3 1144.95   12.20  -4
   1  -1  -3 1144.95   12.20  -3
   2  -1   1 1144.95   12.20  -2
  -3  -1   2 1144.95   12.20   1
  -1   1  -2 1190.49   11.88  -6
   3   1  -1 1190.49   11.88  -5
  -2   1   3 1190.49   11.88  -4
   1   1  -3 1190.49   11.88  -3
   2   1   1 1190.49   11.88  -2
  -3   1   2 1190.49   11.88   1
   0  -1  -2 2276.32   17.99  -6
   2  -1   0 2276.32   17.99  -5
  -2  -1   2 2276.32   17.99  -4
   0  -1  -2 2276.32   17.99  -3
   2  -1   0 2276.32   17.99  -2
  -2  -1   2 2276.32   17.99   1
   0   1  -2 2324.95   10.78  -6
   2   1   0 2324.95   10.78  -5
  -2   1   2 2324.95   10.78  -4
   0   1  -2 2324.95   10.78  -3
   2   1   0 2324.95   10.78  -2
  -2   1   2 2324.95   10.78   1
   1  -1  -2  632.26    7.39  -6
   1  -1   1  632.26    7.39  -5
  -2  -1   1  632.26    7.39  -4
  -1  -1  -1  632.26    7.39  -3
   2  -1  -1  632.26    7.39  -2
  -1  -1   2  632.26    7.39   1
   1   1  -2  684.19    7.80  -6
   1   1   1  684.19    7.80  -5
  -2   1   1  684.19    7.80  -4
  -1   1  -1  684.19    7.80  -3
   2   1  -1  684.19    7.80  -2
  -1   1   2  684.19    7.80   1
   2  -1  -2 2167.34   16.61  -6
   0  -1   2 2167.34   16.61  -5
  -2  -1   0 2167.34   16.61  -4
  -2  -1   0 2167.34   16.61  -3
   2  -1  -2 2167.34   16.61  -2
   0  -1   2 2167.34   16.61   1
   2   1  -2 2199.11   16.23  -6
   0   1   2 2199.11   16.23  -5
  -2   1   0 2199.11   16.23  -4
  -2   1   0 2199.11   16.23  -3
   2   1  -2 2199.11   16.23  -2
   0   1   2 2199.11   16.23   1
   3  -1  -2 1094.02   13.46  -6
  -1  -1   3 1094.02   13.46  -5
  -2  -1  -1 1094.02   13.46  -4
  -3  -1   1 1094.02   13.46  -3
   2  -1  -3 1094.02   13.46  -2
   1  -1   2 1094.02   13.46   1
   3   1  -2 1137.76   11.52  -6
  -1   1   3 1137.76   11.52  -5
  -2   1  -1 1137.76   11.52  -4
  -3   1   1 1137.76   11.52  -3
   2   1  -3 1137.76   11.52  -2
   1   1   2 1137.76   11.52   1
   4  -1  -2 2597.28   28.77  -6
  -2  -1   4 2597.28   28.77  -5
  -2  -1  -2 2597.28   28.77  -4
  -4  -1   2 2597.28   28.77  -3
   2  -1  -4 2597.28   28.77  -2
   2  -1   2 2597.28   28.77   1
   5  -1  -2 2487.83   35.55  -6
  -3  -1   5 2487.83   35.55  -5
  -2  -1  -3 2487.83   35.55  -4
  -5  -1   3 2487.83   35.55  -3
   2  -1  -5 2487.83   35.55  -2
   3  -1   2 2487.83   35.55   1
   5   1  -2 2290.06   26.90  -6
  -3   1   5 2290.06   26.90  -5
  -2   1  -3 2290.06   26.90  -4
  -5   1   3 2290.06   26.90  -3
   2   1  -5 2290.06   26.90  -2
   3   1   2 2290.06   26.90   1
   6  -1  -2 1530.71   25.74  -6
  -4  -1   6 1530.71   25.74  -5
  -2  -1  -4 1530.71   25.74  -4
  -6  -1   4 1530.71   25.74  -3
   2  -1  -6 1530.71   25.74  -2
   4  -1   2 1530.71   25.74   1
   6   1  -2 1610.39   37.54  -6
  -4   1   6 1610.39   37.54  -5
  -2   1  -4 1610.39   37.54  -4
  -6   1   4 1610.39   37.54  -3
   2   1  -6 1610.39   37.54  -2
   4   1   2 1610.39   37.54   1
   7  -1  -2 1063.59   38.07  -6
  -5  -1   7 1063.59   38.07  -5
  -2  -1  -5 1063.59   38.07  -4
  -7  -1   5 1063.59   38.07  -3
   2  -1  -7 1063.59   38.07  -2
   5  -1   2 1063.59   38.07   1
   7   1  -2 1123.13   33.26  -6
  -5   1   7 1123.13   33.26  -5
  -2   1  -5 1123.13   33.26  -4
  -7   1   5 1123.13   33.26  -3
   2   1  -7 1123.13   33.26  -2
   5   1   2 1123.13   33.26   1
   8  -1  -2 1224.73   39.81  -6
  -6  -1   8 1224.73   39.81  -5
  -2  -1  -6 1224.73   39.81  -4
  -8  -1   6 1224.73   39.81  -3
   2  -1  -8 1224.73   39.81  -2
   6  -1   2 1224.73   39.81   1
   8   1  -2 1195.71   35.60  -6
  -6   1   8 1195.71   35.60  -5
  -2   1  -6 1195.71   35.60  -4
  -8   1   6 1195.71   35.60  -3
   2   1  -8 1195.71   35.60  -2
   6   1   2 1195.71   35.60   1
   9  -1  -2  691.44   38.61  -6
  -7  -1   9  691.44   38.61  -5
  -2  -1  -7  691.44   38.61  -4
  -9  -1   7  691.44   38.61  -3
   2  -1  -9  691.44   38.61  -2
   7  -1   2  691.44   38.61   1
   9   1  -2  758.90   39.61  -6
  -7   1   9  758.90   39.61  -5
  -2   1  -7  758.90   39.61  -4
  -9   1   7  758.90   39.61  -3
   2   1  -9  758.90   39.61  -2
   7   1   2  758.90   39.61   1
  -7  -2  -2  152.12   26.10  -6
   9  -2  -7  152.12   26.10  -5
  -2  -2   9  152.12   26.10  -4
   7  -2  -9  152.12   26.10  -3
   2  -2   7  152.12   26.10  -2
  -9  -2   2  152.12   26.10   1
  -7   2  -2  176.51   24.91  -6
   9   2  -7  176.51   24.91  -5
  -2   2   9  176.51   24.91  -4
   7   2  -9  176.51   24.91  -3
   2   2   7  176.51   24.91  -2
  -9   2   2  176.51   24.91   1
  -6  -2  -2  471.38   37.67  -6
   8  -2  -6  471.38   37.67  -5
  -2  -2   8  471.38   37.67  -4
   6  -2  -8  471.38   37.67  -3
   2  -2   6  471.38   37.67  -2
  -8  -2   2  471.38   37.67   1
  -6   2  -2  443.01   24.73  -6
   8   2  -6  443.01   24.73  -5
  -2   2   8  443.01   24.73  -4
   6   2  -8  443.01   24.73  -3
   2   2   6  443.01   24.73  -2
  -8   2   2  443.01   24.73   1
  -5  -2  -2  972.97   35.44  -6
   7  -2  -5  972.97   35.44  -5
  -2  -2   7  972.97   35.44  -4
   5  -2  -7  972.97   35.44  -3
   2  -2   5  972.97   35.44  -2
  -7  -2   2  972.97   35.44   1
  -5   2  -2  936.28   33.04  -6
   7   2  -5  936.28   33.04  -5
  -2   2   7  936.28   33.04  -4
   5   2  -7  936.28   33.04  -3
   2   2   5  936.28   33.04  -2
  -7   2   2  936.28   33.04   1
  -4  -2  -2  939.21   15.45  -6
   6  -2  -4  939.21   15.45  -5
  -2  -2   6  939.21   15.45  -4
   4  -2  -6  939.21   15.45  -3
   2  -2   4  939.21   15.45  -2
  -6  -2   2  939.21   15.45   1
  -4   2  -2 1142.75   21.48  -6
   6   2  -4 1142.75   21.48  -5
  -2   2   6 1142.75   21.48  -4
   4   2  -6 1142.75   21.48  -3
   2   2   4 1142.75   21.48  -2
  -6   2   2 1142.75   21.48   1
  -3  -2  -2 3143.16   26.00  -6
   5  -2  -3 3143.16   26.00  -5
  -2  -2   5 3143.16   26.00  -4
   3  -2  -5 3143.16   26.00  -3
   2  -2   3 3143.16   26.00  -2
  -5  -2   2 3143.16   26.00   1
  -3   2  -2 2912.69   19.55  -6
   5   2  -3 2912.69   19.55  -5
  -2   2   5 2912.69   19.55  -4
   3   2  -5 2912.69   19.55  -3
   2   2   3 2912.69   19.55  -2
  -5   2   2 2912.69   19.55   1
  -2  -2  -2 3763.09   20.25  -6
   4  -2  -2 3763.09   20.25  -5
  -2  -2   4 3763.09   20.25  -4
   2  -2  -4 3763.09   20.25  -3
   2  -2   2 3763.09   20.25  -2
  -4  -2   2 3763.09   20.25   1
  -2   2  -2 3934.29   23.83  -6
   4   2  -2 3934.29   23.83  -5
  -2   2   4 3934.29   23.83  -4
   2   2  -4 3934.29   23.83  -3
   2   2   2 3934.29   23.83  -2
  -4   2   2 3934.29   23.83   1
  -1  -2  -2 3687.90   18.69  -6
   3  -2  -1 3687.90   18.69  -5
  -2  -2   3 3687.90   18.69  -4
   1  -2  -3 3687.90   18.69  -3
   2  -2   1 3687.90   18.69  -2
  -3  -2   2 3687.90   18.69   1
  -1   2  -2 3782.82   25.55  -6
   3   2  -1 3782.82   25.55  -5
  -2   2   3 3782.82   25.55  -4
   1   2  -3 3782.82   25.55  -3
   2   2   1 3782.82   25.55  -2
  -3   2   2 3782.82   25.55   1
   0   2  -2 3755.43   15.55  -6
   2   2   0 3755.43   15.55  -5
  -2   2   2 3755.43   15.55  -4
   0   2  -2 3755.43   15.55  -3
   2   2   0 3755.43   15.55  -2
  -2   2   2 3755.43   15.55   1
   1  -2  -2 3733.70   20.53  -6
   1  -2   1 3733.70   20.53  -5
  -2  -2   1 3733.70   20.53  -4
  -1  -2  -1 3733.70   20.53  -3
   2  -2  -1 3733.70   20.53  -2
  -1  -2   2 3733.70   20.53   1
   1   2  -2 3744.60   10.20  -6
   1   2   1 3744.60   10.20  -5
  -2   2   1 3744.60   10.20  -4
  -1   2  -1 3744.60   10.20  -3
   2   2  -1 3744.60   10.20  -2
  -1   2   2 3744.60   10.20   1
   2  -2  -2 2754.47    8.78  -6
   0  -2   2 2754.47    8.78  -5
  -2  -2   0 2754.47    8.78  -4
  -2  -2   0 2754.47    8.78  -3
   2  -2  -2 2754.47    8.78  -2
   0  -2   2 2754.47    8.78   1
   2   2  -2 2827.65   10.77  -6
   0   2   2 2827.65   10.77  -5
  -2   2   0 2827.65   10.77  -4
  -2   2   0 2827.65   10.77  -3
   2   2  -2 2827.65   10.77  -2
   0   2   2 2827.65   10.77   1
   3  -2  -2 3394.15   11.26  -6
  -1  -2   3 3394.15   11.26  -5
  -2  -2  -1 3394.15   11.26  -4
  -3  -2   1 3394.15   11.26  -3
   2  -2  -3 3394.15   11.26  -2
   1  -2   2 3394.15   11.26   1
   3   2  -2 3890.74   16.27  -6
  -1   2   3 3890.74   16.27  -5
  -2   2  -1 3890.74   16.27  -4
  -3   2   1 3890.74   16.27  -3
   2   2  -3 3890.74   16.27  -2
   1   2   2 3890.74   16.27   1
   4  -2  -2 3708.36   23.55  -6
  -2  -2   4 3708.36   23.55  -5
  -2  -2  -2 3708.36   23.55  -4
  -4  -2   2 3708.36   23.55  -3
   2  -2  -4 3708.36   23.55  -2
   2  -2   2 3708.36   23.55   1
   5  -2  -2 3194.99   38.06  -6
  -3  -2   5 3194.99   38.06  -5
  -2  -2  -3 3194.99   38.06  -4
  -5  -2   3 3194.99   38.06  -3
   2  -2  -5 3194.99   38.06  -2
   3  -2   2 3194.99   38.06   1
   5   2  -2 3259.97   38.83  -6
  -3   2   5 3259.97   38.83  -5
  -2   2  -3 3259.97   38.83  -4
  -5   2   3 3259.97   38.83  -3
   2   2  -5 3259.97   38.83  -2
   3   2   2 3259.97   38.83   1
   6  -2  -2 1053.98   24.55  -6
  -4  -2   6 1053.98   24.55  -5
  -2  -2  -4 1053.98   24.55  -4
  -6  -2   4 1053.98   24.55  -3
   2  -2  -6 1053.98   24.55  -2
   4  -2   2 1053.98   24.55   1
   6   2  -2 1077.98   16.66  -6
  -4   2   6 1077.98   16.66  -5
  -2   2  -4 1077.98   16.66  -4
  -6   2   4 1077.98   16.66  -3
   2   2  -6 1077.98   16.66  -2
   4   2   2 1077.98   16.66   1
   7  -2  -2  874.79   26.51  -6
  -5  -2   7  874.79   26.51  -5
  -2  -2  -5  874.79   26.51  -4
  -7  -2   5  874.79   26.51  -3
   2  -2  -7  874.79   26.51  -2
   5  -2   2  874.79   26.51   1
   7   2  -2  862.80   23.94  -6
  -5   2   7  862.80   23.94  -5
  -2   2  -5  862.80   23.94  -4
  -7   2   5  862.80   23.94  -3
   2   2  -7  862.80   23.94  -2
   5   2   2  862.80   23.94   1
   8  -2  -2  377.32   35.54  -6
  -6  -2   8  377.32   35.54  -5
  -2  -2  -6  377.32   35.54  -4
  -8  -2   6  377.32   35.54  -3
   2  -2  -8  377.32   35.54  -2
   6  -2   2  377.32   35.54   1
   8   2  -2  377.58   30.69  -6
  -6   2   8  377.58   30.69  -5
  -2   2  -6  377.58   30.69  -4
  -8   2   6  377.58   30.69  -3
   2   2  -8  377.58   30.69  -2
   6   2   2  377.58   30.69   1
   9  -2  -2  125.73   35.23  -6
  -7  -2   9  125.73   35.23  -5
  -2  -2  -7  125.73   35.23  -4
  -9  -2   7  125.73   35.23  -3
   2  -2  -9  125.73   35.23  -2
   7  -2   2  125.73   35.23   1
   9   2  -2  138.35   22.49  -6
  -7   2   9  138.35   22.49  -5
  -2   2  -7  138.35   22.49  -4
  -9   2   7  138.35   22.49  -3
   2   2  -9  138.35   22.49  -2
   7   2   2  138.35   22.49   1
  10   2  -2  155.17   37.24  -6
  -8   2  10  155.17   37.24  -5
  -2   2  -8  155.17   37.24  -4
 -10   2   8  155.17   37.24  -3
   2   2 -10  155.17   37.24  -2
   8   2   2  155.17   37.24   1
  -7  -3  -2  522.88   43.48  -6
   9  -3  -7  522.88   43.48  -5
  -2  -3   9  522.88   43.48  -4
   7  -3  -9  522.88   43.48  -3
   2  -3   7  522.88   43.48  -2
  -9  -3   2  522.88   43.48   1
  -7   3  -2  460.08   37.86  -6
   9   3  -7  460.08   37.86  -5
  -2   3   9  460.08   37.86  -4
   7   3  -9  460.08   37.86  -3
   2   3   7  460.08   37.86  -2
  -9   3   2  460.08   37.86   1
  -6  -3  -2  614.38   39.49  -6
   8  -3  -6  614.38   39.49  -5
  -2  -3   8  614.38   39.49  -4
   6  -3  -8  614.38   39.49  -3
   2  -3   6  614.38   39.49  -2
  -8  -3   2  614.38   39.49   1
  -6   3  -2  471.48   34.92  -6
   8   3  -6  471.48   34.92  -5
  -2   3   8  471.48   34.92  -4
   6   3  -8  471.48   34.92  -3
   2   3   6  471.48   34.92  -2
  -8   3   2  471.48   34.92   1
  -5  -3  -2  651.78   17.69  -6
   7  -3  -5  651.78   17.69  -5
  -2  -3   7  651.78   17.69  -4
   5  -3  -7  651.78   17.69  -3
   2  -3   5  651.78   17.69  -2
  -7  -3   2  651.78   17.69   1
  -5   3  -2  773.25   21.91  -6
   7   3  -5  773.25   21.91  -5
  -2   3   7  773.25   21.91  -4
   5   3  -7  773.25   21.91  -3
   2   3   5  773.25   21.91  -2
  -7   3   2  773.25   21.91   1
  -4  -3  -2  808.63   30.60  -6
   6  -3  -4  808.63   30.60  -5
  -2  -3   6  808.63   30.60  -4
   4  -3  -6  808.63   30.60  -3
   2  -3   4  808.63   30.60  -2
  -6  -3   2  808.63   30.60   1
  -4   3  -2  797.27   28.00  -6
   6   3  -4  797.27   28.00  -5
  -2   3   6  797.27   28.00  -4
   4   3  -6  797.27   28.00  -3
   2   3   4  797.27   28.00  -2
  -6   3   2  797.27   28.00   1
  -3  -3  -2 1621.22   17.39  -6
   5  -3  -3 1621.22   17.39  -5
  -2  -3   5 1621.22   17.39  -4
   3  -3  -5 1621.22   17.39  -3
   2  -3   3 1621.22   17.39  -2
  -5  -3   2 1621.22   17.39   1
  -3   3  -2 1573.26   15.00  -6
   5   3  -3 1573.26   15.00  -5
  -2   3   5 1573.26   15.00  -4
   3   3  -5 1573.26   15.00  -3
   2   3   3 1573.26   15.00  -2
  -5   3   2 1573.26   15.00   1
  -2  -3  -2  825.13    7.46  -6
   4  -3  -2  825.13    7.46  -5
  -2  -3   4  825.13    7.46  -4
   2  -3  -4  825.13    7.46  -3
   2  -3   2  825.13    7.46  -2
  -4  -3   2  825.13    7.46   1
  -2   3  -2  709.24    9.09  -6
   4   3  -2  709.24    9.09  -5
  -2   3   4  709.24    9.09  -4
   2   3  -4  709.24    9.09  -3
   2   3   2  709.24    9.09  -2
  -4   3   2  709.24    9.09   1
  -1  -3  -2  870.89    7.75  -6
   3  -3  -1  870.89    7.75  -5
  -2  -3   3  870.89    7.75  -4
   1  -3  -3  870.89    7.75  -3
   2  -3   1  870.89    7.75  -2
  -3  -3   2  870.89    7.75   1
  -1   3  -2 1038.24   11.90  -6
   3   3  -1 1038.24   11.90  -5
  -2   3   3 1038.24   11.90  -4
   1   3  -3 1038.24   11.90  -3
   2   3   1 1038.24   11.90  -2
  -3   3   2 1038.24   11.90   1
   0  -3  -2 1244.46    9.41  -6
   2  -3   0 1244.46    9.41  -5
  -2  -3   2 1244.46    9.41  -4
   0  -3  -2 1244.46    9.41  -3
   2  -3   0 1244.46    9.41  -2
  -2  -3   2 1244.46    9.41   1
   0   3  -2 1206.42   15.18  -6
   2   3   0 1206.42   15.18  -5
  -2   3   2 1206.42   15.18  -4
   0   3  -2 1206.42   15.18  -3
   2   3   0 1206.42   15.18  -2
  -2   3   2 1206.42   15.18   1
   1  -3  -2  441.45   11.13  -6
   1  -3   1  441.45   11.13  -5
  -2  -3   1  441.45   11.13  -4
  -1  -3  -1  441.45   11.13  -3
   2  -3  -1  441.45   11.13  -2
  -1  -3   2  441.45   11.13   1
   1   3  -2  462.48   12.58  -6
   1   3   1  462.48   12.58  -5
  -2   3   1  462.48   12.58  -4
  -1   3  -1  462.48   12.58  -3
   2   3  -1  462.48   12.58  -2
  -1   3   2  462.48   12.58   1
   2  -3  -2 1309.07    7.11  -6
   0  -3   2 1309.07    7.11  -5
  -2  -3   0 1309.07    7.11  -4
  -2  -3   0 1309.07    7.11  -3
   2  -3  -2 1309.07    7.11  -2
   0  -3   2 1309.07    7.11   1
   3  -3  -2  795.47    9.21  -6
  -1  -3   3  795.47    9.21  -5
  -2  -3  -1  795.47    9.21  -4
  -3  -3   1  795.47    9.21  -3
   2  -3  -3  795.47    9.21  -2
   1  -3   2  795.47    9.21   1
   3   3  -2  927.17    8.36  -6
  -1   3   3  927.17    8.36  -5
  -2   3  -1  927.17    8.36  -4
  -3   3   1  927.17    8.36  -3
   2   3  -3  927.17    8.36  -2
   1   3   2  927.17    8.36   1
   4  -3  -2 1171.74    9.70  -6
  -2  -3   4 1171.74    9.70  -5
  -2  -3  -2 1171.74    9.70  -4
  -4  -3   2 1171.74    9.70  -3
   2  -3  -4 1171.74    9.70  -2
   2  -3   2 1171.74    9.70   1
   4   3  -2 1085.40   13.20  -6
  -2   3   4 1085.40   13.20  -5
  -2   3  -2 1085.40   13.20  -4
  -4   3   2 1085.40   13.20  -3
   2   3  -4 1085.40   13.20  -2
   2   3   2 1085.40   13.20   1
   5  -3  -2 1705.36   32.65  -6
  -3  -3   5 1705.36   32.65  -5
  -2  -3  -3 1705.36   32.65  -4
  -5  -3   3 1705.36   32.65  -3
   2  -3  -5 1705.36   32.65  -2
   3  -3   2 1705.36   32.65   1
   5   3  -2 1664.79   33.88  -6
  -3   3   5 1664.79   33.88  -5
  -2   3  -3 1664.79   33.88  -4
  -5   3   3 1664.79   33.88  -3
   2   3  -5 1664.79   33.88  -2
   3   3   2 1664.79   33.88   1
   6  -3  -2  804.44   24.05  -6
  -4  -3   6  804.44   24.05  -5
  -2  -3  -4  804.44   24.05  -4
  -6  -3   4  804.44   24.05  -3
   2  -3  -6  804.44   24.05  -2
   4  -3   2  804.44   24.05   1
   6   3  -2  773.20   19.06  -6
  -4   3   6  773.20   19.06  -5
  -2   3  -4  773.20   19.06  -4
  -6   3   4  773.20   19.06  -3
   2   3  -6  773.20   19.06  -2
   4   3   2  773.20   19.06   1
   7  -3  -2 1009.58   38.55  -6
  -5  -3   7 1009.58   38.55  -5
  -2  -3  -5 1009.58   38.55  -4
  -7  -3   5 1009.58   38.55  -3
   2  -3  -7 1009.58   38.55  -2
   5  -3   2 1009.58   38.55   1
   7   3  -2  937.10   22.79  -6
  -5   3   7  937.10   22.79  -5
  -2   3  -5  937.10   22.79  -4
  -7   3   5  937.10   22.79  -3
   2   3  -7  937.10   22.79  -2
   5   3   2  937.10   22.79   1
   8  -3  -2  850.30   39.63  -6
  -6  -3   8  850.30   39.63  -5
  -2  -3  -6  850.30   39.63  -4
  -8  -3   6  850.30   39.63  -3
   2  -3  -8  850.30   39.63  -2
   6  -3   2  850.30   39.63   1
   8   3  -2  823.51   32.25  -6
  -6   3   8  823.51   32.25  -5
  -2   3  -6  823.51   32.25  -4
  -8   3   6  823.51   32.25  -3
   2   3  -8  823.51   32.25  -2
   6   3   2  823.51   32.25   1
   9  -3  -2  731.91   39.82  -6
  -7  -3   9  731.91   39.82  -5
  -2  -3  -7  731.91   39.82  -4
  -9  -3   7  731.91   39.82  -3
   2  -3  -9  731.91   39.82  -2
   7  -3   2  731.91   39.82   1
   9   3  -2  786.90   37.87  -6
  -7   3   9  786.90   37.87  -5
  -2   3  -7  786.90   37.87  -4
  -9   3   7  786.90   37.87  -3
   2   3  -9  786.90   37.87  -2
   7   3   2  786.90   37.87   1
  -7  -4  -2  261.09   42.09  -6
   9  -4  -7  261.09   42.09  -5
  -2  -4   9  261.09   42.09  -4
   7  -4  -9  261.09   42.09  -3
   2  -4   7  261.09   42.09  -2
  -9  -4   2  261.09   42.09   1
  -7   4  -2  270.71   39.40  -6
   9   4  -7  270.71   39.40  -5
  -2   4   9  270.71   39.40  -4
   7   4  -9  270.71   39.40  -3
   2   4   7  270.71   39.40  -2
  -9   4   2  270.71   39.40   1
  -6  -4  -2  427.34   38.59  -6
   8  -4  -6  427.34   38.59  -5
  -2  -4   8  427.34   38.59  -4
   6  -4  -8  427.34   38.59  -3
   2  -4   6  427.34   38.59  -2
  -8  -4   2  427.34   38.59   1
  -6   4  -2  370.77   32.82  -6
   8   4  -6  370.77   32.82  -5
  -2   4   8  370.77   32.82  -4
   6   4  -8  370.77   32.82  -3
   2   4   6  370.77   32.82  -2
  -8   4   2  370.77   32.82   1
  -5  -4  -2  700.42   24.01  -6
   7  -4  -5  700.42   24.01  -5
  -2  -4   7  700.42   24.01  -4
   5  -4  -7  700.42   24.01  -3
   2  -4   5  700.42   24.01  -2
  -7  -4   2  700.42   24.01   1
  -5   4  -2  746.17   32.05  -6
   7   4  -5  746.17   32.05  -5
  -2   4   7  746.17   32.05  -4
   5   4  -7  746.17   32.05  -3
   2   4   5  746.17   32.05  -2
  -7   4   2  746.17   32.05   1
  -4  -4  -2  980.30   13.75  -6
   6  -4  -4  980.30   13.75  -5
  -2  -4   6  980.30   13.75  -4
   4  -4  -6  980.30   13.75  -3
   2  -4   4  980.30   13.75  -2
  -6  -4   2  980.30   13.75   1
  -4   4  -2 1060.75   33.46  -6
   6   4  -4 1060.75   33.46  -5
  -2   4   6 1060.75   33.46  -4
   4   4  -6 1060.75   33.46  -3
   2   4   4 1060.75   33.46  -2
  -6   4   2 1060.75   33.46   1
  -3  -4  -2 2088.20   20.44  -6
   5  -4  -3 2088.20   20.44  -5
  -2  -4   5 2088.20   20.44  -4
   3  -4  -5 2088.20   20.44  -3
   2  -4   3 2088.20   20.44  -2
  -5  -4   2 2088.20   20.44   1
  -3   4  -2 1829.72   17.08  -6
   5   4  -3 1829.72   17.08  -5
  -2   4   5 1829.72   17.08  -4
   3   4  -5 1829.72   17.08  -3
   2   4   3 1829.72   17.08  -2
  -5   4   2 1829.72   17.08   1
  -2  -4  -2 4409.36   14.52  -6
   4  -4  -2 4409.36   14.52  -5
  -2  -4   4 4409.36   14.52  -4
   2  -4  -4 4409.36   14.52  -3
   2  -4   2 4409.36   14.52  -2
  -4  -4   2 4409.36   14.52   1
  -1  -4  -2 3401.31   13.64  -6
   3  -4  -1 3401.31   13.64  -5
  -2  -4   3 3401.31   13.64  -4
   1  -4  -3 3401.31   13.64  -3
   2  -4   1 3401.31   13.64  -2
  -3  -4   2 3401.31   13.64   1
  -1   4  -2 3034.80   24.36  -6
   3   4  -1 3034.80   24.36  -5
  -2   4   3 3034.80   24.36  -4
   1   4  -3 3034.80   24.36  -3
   2   4   1 3034.80   24.36  -2
  -3   4   2 3034.80   24.36   1
   0  -4  -2 3893.75   11.93  -6
   2  -4   0 3893.75   11.93  -5
  -2  -4   2 3893.75   11.93  -4
   0  -4  -2 3893.75   11.93  -3
   2  -4   0 3893.75   11.93  -2
  -2  -4   2 3893.75   11.93   1
   0   4  -2 3349.88   22.90  -6
   2   4   0 3349.88   22.90  -5
  -2   4   2 3349.88   22.90  -4
   0   4  -2 3349.88   22.90  -3
   2   4   0 3349.88   22.90  -2
  -2   4   2 3349.88   22.90   1
   1  -4  -2 4411.94   16.63  -6
   1  -4   1 4411.94   16.63  -5
  -2  -4   1 4411.94   16.63  -4
  -1  -4  -1 4411.94   16.63  -3
   2  -4  -1 4411.94   16.63  -2
  -1  -4   2 4411.94   16.63   1
   1   4  -2 4271.96   16.63  -6
   1   4   1 4271.96   16.63  -5
  -2   4   1 4271.96   16.63  -4
  -1   4  -1 4271.96   16.63  -3
   2   4  -1 4271.96   16.63  -2
  -1   4   2 4271.96   16.63   1
   2  -4  -2 4089.06   12.58  -6
   0  -4   2 4089.06   12.58  -5
  -2  -4   0 4089.06   12.58  -4
  -2  -4   0 4089.06   12.58  -3
   2  -4  -2 4089.06   12.58  -2
   0  -4   2 4089.06   12.58   1
   2   4  -2 3870.73   25.58  -6
   0   4   2 3870.73   25.58  -5
  -2   4   0 3870.73   25.58  -4
  -2   4   0 3870.73   25.58  -3
   2   4  -2 3870.73   25.58  -2
   0   4   2 3870.73   25.58   1
   3  -4  -2 3100.65   20.13  -6
  -1  -4   3 3100.65   20.13  -5
  -2  -4  -1 3100.65   20.13  -4
  -3  -4   1 3100.65   20.13  -3
   2  -4  -3 3100.65   20.13  -2
   1  -4   2 3100.65   20.13   1
   3   4  -2 3152.99   14.46  -6
  -1   4   3 3152.99   14.46  -5
  -2   4  -1 3152.99   14.46  -4
  -3   4   1 3152.99   14.46  -3
   2   4  -3 3152.99   14.46  -2
   1   4   2 3152.99   14.46   1
   4  -4  -2 3795.86   28.31  -6
  -2  -4   4 3795.86   28.31  -5
  -2  -4  -2 3795.86   28.31  -4
  -4  -4   2 3795.86   28.31  -3
   2  -4  -4 3795.86   28.31  -2
   2  -4   2 3795.86   28.31   1
   4   4  -2 3663.10   16.18  -6
  -2   4   4 3663.10   16.18  -5
  -2   4  -2 3663.10   16.18  -4
  -4   4   2 3663.10   16.18  -3
   2   4  -4 3663.10   16.18  -2
   2   4   2 3663.10   16.18   1
   5  -4  -2 1866.70   17.76  -6
  -3  -4   5 1866.70   17.76  -5
  -2  -4  -3 1866.70   17.76  -4
  -5  -4   3 1866.70   17.76  -3
   2  -4  -5 1866.70   17.76  -2
   3  -4   2 1866.70   17.76   1
   5   4  -2 1849.87   20.73  -6
  -3   4   5 1849.87   20.73  -5
  -2   4  -3 1849.87   20.73  -4
  -5   4   3 1849.87   20.73  -3
   2   4  -5 1849.87   20.73  -2
   3   4   2 1849.87   20.73   1
   6  -4  -2 1083.69   25.41  -6
  -4  -4   6 1083.69   25.41  -5
  -2  -4  -4 1083.69   25.41  -4
  -6  -4   4 1083.69   25.41  -3
   2  -4  -6 1083.69   25.41  -2
   4  -4   2 1083.69   25.41   1
   6   4  -2 1095.35   35.00  -6
  -4   4   6 1095.35   35.00  -5
  -2   4  -4 1095.35   35.00  -4
  -6   4   4 1095.35   35.00  -3
   2   4  -6 1095.35   35.00  -2
   4   4   2 1095.35   35.00   1
   7  -4  -2  843.08   27.46  -6
  -5  -4   7  843.08   27.46  -5
  -2  -4  -5  843.08   27.46  -4
  -7  -4   5  843.08   27.46  -3
   2  -4  -7  843.08   27.46  -2
   5  -4   2  843.08   27.46   1
   7   4  -2  761.92   27.32  -6
  -5   4   7  761.92   27.32  -5
  -2   4  -5  761.92   27.32  -4
  -7   4   5  761.92   27.32  -3
   2   4  -7  761.92   27.32  -2
   5   4   2  761.92   27.32   1
   8  -4  -2  345.76   37.44  -6
  -6  -4   8  345.76   37.44  -5
  -2  -4  -6  345.76   37.44  -4
  -8  -4   6  345.76   37.44  -3
   2  -4  -8  345.76   37.44  -2
   6  -4   2  345.76   37.44   1
   8   4  -2  421.20   30.99  -6
  -6   4   8  421.20   30.99  -5
  -2   4  -6  421.20   30.99  -4
  -8   4   6  421.20   30.99  -3
   2   4  -8  421.20   30.99  -2
   6   4   2  421.20   30.99   1
   9  -4  -2  232.55   37.71  -6
  -7  -4   9  232.55   37.71  -5
  -2  -4  -7  232.55   37.71  -4
  -9  -4   7  232.55   37.71  -3
   2  -4  -9  232.55   37.71  -2
   7  -4   2  232.55   37.71   1
   9   4  -2  306.44   33.31  -6
  -7   4   9  306.44   33.31  -5
  -2   4  -7  306.44   33.31  -4
  -9   4   7  306.44   33.31  -3
   2   4  -9  306.44   33.31  -2
   7   4   2  306.44   33.31   1
  -6  -5  -2  913.92   43.72  -6
   8  -5  -6  913.92   43.72  -5
  -2  -5   8  913.92   43.72  -4
   6  -5  -8  913.92   43.72  -3
   2  -5   6  913.92   43.72  -2
  -8  -5   2  913.92   43.72   1
  -6   5  -2  464.75   32.11  -6
   8   5  -6  464.75   32.11  -5
  -2   5   8  464.75   32.11  -4
   6   5  -8  464.75   32.11  -3
   2   5   6  464.75   32.11  -2
  -8   5   2  464.75   32.11   1
  -5  -5  -2  789.20   26.80  -6
   7  -5  -5  789.20   26.80  -5
  -2  -5   7  789.20   26.80  -4
   5  -5  -7  789.20   26.80  -3
   2  -5   5  789.20   26.80  -2
  -7  -5   2  789.20   26.80   1
  -5   5  -2  916.43   32.36  -6
   7   5  -5  916.43   32.36  -5
  -2   5   7  916.43   32.36  -4
   5   5  -7  916.43   32.36  -3
   2   5   5  916.43   32.36  -2
  -7   5   2  916.43   32.36   1
  -4  -5  -2 1591.63   36.89  -6
   6  -5  -4 1591.63   36.89  -5
  -2  -5   6 1591.63   36.89  -4
   4  -5  -6 1591.63   36.89  -3
   2  -5   4 1591.63   36.89  -2
  -6  -5   2 1591.63   36.89   1
  -4   5  -2 1652.72   35.24  -6
   6   5  -4 1652.72   35.24  -5
  -2   5   6 1652.72   35.24  -4
   4   5  -6 1652.72   35.24  -3
   2   5   4 1652.72   35.24  -2
  -6   5   2 1652.72   35.24   1
  -3  -5  -2 1471.31   32.26  -6
   5  -5  -3 1471.31   32.26  -5
  -2  -5   5 1471.31   32.26  -4
   3  -5  -5 1471.31   32.26  -3
   2  -5   3 1471.31   32.26  -2
  -5  -5   2 1471.31   32.26   1
  -3   5  -2 1278.44   28.78  -6
   5   5  -3 1278.44   28.78  -5
  -2   5   5 1278.44   28.78  -4
   3   5  -5 1278.44   28.78  -3
   2   5   3 1278.44   28.78  -2
  -5   5   2 1278.44   28.78   1
  -2  -5  -2 1695.43   16.84  -6
   4  -5  -2 1695.43   16.84  -5
  -2  -5   4 1695.43   16.84  -4
   2  -5  -4 1695.43   16.84  -3
   2  -5   2 1695.43   16.84  -2
  -4  -5   2 1695.43   16.84   1
  -1  -5  -2 1242.41   13.25  -6
   3  -5  -1 1242.41   13.25  -5
  -2  -5   3 1242.41   13.25  -4
   1  -5  -3 1242.41   13.25  -3
   2  -5   1 1242.41   13.25  -2
  -3  -5   2 1242.41   13.25   1
  -1   5  -2 1166.86   19.67  -6
   3   5  -1 1166.86   19.67  -5
  -2   5   3 1166.86   19.67  -4
   1   5  -3 1166.86   19.67  -3
   2   5   1 1166.86   19.67  -2
  -3   5   2 1166.86   19.67   1
   0  -5  -2 1699.07   10.47  -6
   2  -5   0 1699.07   10.47  -5
  -2  -5   2 1699.07   10.47  -4
   0  -5  -2 1699.07   10.47  -3
   2  -5   0 1699.07   10.47  -2
  -2  -5   2 1699.07   10.47   1
   0   5  -2 1624.90   14.13  -6
   2   5   0 1624.90   14.13  -5
  -2   5   2 1624.90   14.13  -4
   0   5  -2 1624.90   14.13  -3
   2   5   0 1624.90   14.13  -2
  -2   5   2 1624.90   14.13   1
   1  -5  -2  485.40    8.67  -6
   1  -5   1  485.40    8.67  -5
  -2  -5   1  485.40    8.67  -4
  -1  -5  -1  485.40    8.67  -3
   2  -5  -1  485.40    8.67  -2
  -1  -5   2  485.40    8.67   1
   1   5  -2  472.93    7.34  -6
   1   5   1  472.93    7.34  -5
  -2   5   1  472.93    7.34  -4
  -1   5  -1  472.93    7.34  -3
   2   5  -1  472.93    7.34  -2
  -1   5   2  472.93    7.34   1
   2  -5  -2 1815.52    9.58  -6
   0  -5   2 1815.52    9.58  -5
  -2  -5   0 1815.52    9.58  -4
  -2  -5   0 1815.52    9.58  -3
   2  -5  -2 1815.52    9.58  -2
   0  -5   2 1815.52    9.58   1
   2   5  -2 1674.51   19.31  -6
   0   5   2 1674.51   19.31  -5
  -2   5   0 1674.51   19.31  -4
  -2   5   0 1674.51   19.31  -3
   2   5  -2 1674.51   19.31  -2
   0   5   2 1674.51   19.31   1
   3  -5  -2 1263.85    9.94  -6
  -1  -5   3 1263.85    9.94  -5
  -2  -5  -1 1263.85    9.94  -4
  -3  -5   1 1263.85    9.94  -3
   2  -5  -3 1263.85    9.94  -2
   1  -5   2 1263.85    9.94   1
   3   5  -2 1155.47   14.95  -6
  -1   5   3 1155.47   14.95  -5
  -2   5  -1 1155.47   14.95  -4
  -3   5   1 1155.47   14.95  -3
   2   5  -3 1155.47   14.95  -2
   1   5   2 1155.47   14.95   1
   4  -5  -2 1622.46   21.35  -6
  -2  -5   4 1622.46   21.35  -5
  -2  -5  -2 1622.46   21.35  -4
  -4  -5   2 1622.46   21.35  -3
   2  -5  -4 1622.46   21.35  -2
   2  -5   2 1622.46   21.35   1
   4   5  -2 1450.62   12.27  -6
  -2   5   4 1450.62   12.27  -5
  -2   5  -2 1450.62   12.27  -4
  -4   5   2 1450.62   12.27  -3
   2   5  -4 1450.62   12.27  -2
   2   5   2 1450.62   12.27   1
   5  -5  -2 1308.36    9.94  -6
  -3  -5   5 1308.36    9.94  -5
  -2  -5  -3 1308.36    9.94  -4
  -5  -5   3 1308.36    9.94  -3
   2  -5  -5 1308.36    9.94  -2
   3  -5   2 1308.36    9.94   1
   5   5  -2 1274.34   17.34  -6
  -3   5   5 1274.34   17.34  -5
  -2   5  -3 1274.34   17.34  -4
  -5   5   3 1274.34   17.34  -3
   2   5  -5 1274.34   17.34  -2
   3   5   2 1274.34   17.34   1
   6  -5  -2 1601.43   38.50  -6
  -4  -5   6 1601.43   38.50  -5
  -2  -5  -4 1601.43   38.50  -4
  -6  -5   4 1601.43   38.50  -3
   2  -5  -6 1601.43   38.50  -2
   4  -5   2 1601.43   38.50   1
   6   5  -2 1675.33   38.62  -6
  -4   5   6 1675.33   38.62  -5
  -2   5  -4 1675.33   38.62  -4
  -6   5   4 1675.33   38.62  -3
   2   5  -6 1675.33   38.62  -2
   4   5   2 1675.33   38.62   1
   7  -5  -2 1298.09   43.81  -6
  -5  -5   7 1298.09   43.81  -5
  -2  -5  -5 1298.09   43.81  -4
  -7  -5   5 1298.09   43.81  -3
   2  -5  -7 1298.09   43.81  -2
   5  -5   2 1298.09   43.81   1
   7   5  -2 1253.04   33.80  -6
  -5   5   7 1253.04   33.80  -5
  -2   5  -5 1253.04   33.80  -4
  -7   5   5 1253.04   33.80  -3
   2   5  -7 1253.04   33.80  -2
   5   5   2 1253.04   33.80   1
   8  -5  -2 1221.30   43.93  -6
  -6  -5   8 1221.30   43.93  -5
  -2  -5  -6 1221.30   43.93  -4
  -8  -5   6 1221.30   43.93  -3
   2  -5  -8 1221.30   43.93  -2
   6  -5   2 1221.30   43.93   1
   8   5  -2 1159.90   33.46  -6
  -6   5   8 1159.90   33.46  -5
  -2   5  -6 1159.90   33.46  -4
  -8   5   6 1159.90   33.46  -3
   2   5  -8 1159.90   33.46  -2
   6   5   2 1159.90   33.46   1
   9   5  -2  491.85   34.51  -6
  -7   5   9  491.85   34.51  -5
  -2   5  -7  491.85   34.51  -4
  -9   5   7  491.85   34.51  -3
   2   5  -9  491.85   34.51  -2
   7   5   2  491.85   34.51   1
  -6  -6  -2  489.06   41.69  -6
   8  -6  -6  489.06   41.69  -5
  -2  -6   8  489.06   41.69  -4
   6  -6  -8  489.06   41.69  -3
   2  -6   6  489.06   41.69  -2
  -8  -6   2  489.06   41.69   1
  -6   6  -2  355.87   32.05  -6
   8   6  -6  355.87   32.05  -5
  -2   6   8  355.87   32.05  -4
   6   6  -8  355.87   32.05  -3
   2   6   6  355.87   32.05  -2
  -8   6   2  355.87   32.05   1
  -5  -6  -2  514.91   28.02  -6
   7  -6  -5  514.91   28.02  -5
  -2  -6   7  514.91   28.02  -4
   5  -6  -7  514.91   28.02  -3
   2  -6   5  514.91   28.02  -2
  -7  -6   2  514.91   28.02   1
  -5   6  -2  569.23   32.12  -6
   7   6  -5  569.23   32.12  -5
  -2   6   7  569.23   32.12  -4
   5   6  -7  569.23   32.12  -3
   2   6   5  569.23   32.12  -2
  -7   6   2  569.23   32.12   1
  -4  -6  -2 1257.27   23.30  -6
   6  -6  -4 1257.27   23.30  -5
  -2  -6   6 1257.27   23.30  -4
   4  -6  -6 1257.27   23.30  -3
   2  -6   4 1257.27   23.30  -2
  -6  -6   2 1257.27   23.30   1
  -4   6  -2 1302.22   26.65  -6
   6   6  -4 1302.22   26.65  -5
  -2   6   6 1302.22   26.65  -4
   4   6  -6 1302.22   26.65  -3
   2   6   4 1302.22   26.65  -2
  -6   6   2 1302.22   26.65   1
  -3  -6  -2 1926.90   35.39  -6
   5  -6  -3 1926.90   35.39  -5
  -2  -6   5 1926.90   35.39  -4
   3  -6  -5 1926.90   35.39  -3
   2  -6   3 1926.90   35.39  -2
  -5  -6   2 1926.90   35.39   1
  -3   6  -2 1807.62   17.55  -6
   5   6  -3 1807.62   17.55  -5
  -2   6   5 1807.62   17.55  -4
   3   6  -5 1807.62   17.55  -3
   2   6   3 1807.62   17.55  -2
  -5   6   2 1807.62   17.55   1
  -2  -6  -2 2833.43   19.50  -6
   4  -6  -2 2833.43   19.50  -5
  -2  -6   4 2833.43   19.50  -4
   2  -6  -4 2833.43   19.50  -3
   2  -6   2 2833.43   19.50  -2
  -4  -6   2 2833.43   19.50   1
  -2   6  -2 2791.87   24.26  -6
   4   6  -2 2791.87   24.26  -5
  -2   6   4 2791.87   24.26  -4
   2   6  -4 2791.87   24.26  -3
   2   6   2 2791.87   24.26  -2
  -4   6   2 2791.87   24.26   1
  -1  -6  -2 4710.06   17.66  -6
   3  -6  -1 4710.06   17.66  -5
  -2  -6   3 4710.06   17.66  -4
   1  -6  -3 4710.06   17.66  -3
   2  -6   1 4710.06   17.66  -2
  -3  -6   2 4710.06   17.66   1
  -1   6  -2 4798.99   33.73  -6
   3   6  -1 4798.99   33.73  -5
  -2   6   3 4798.99   33.73  -4
   1   6  -3 4798.99   33.73  -3
   2   6   1 4798.99   33.73  -2
  -3   6   2 4798.99   33.73   1
   0  -6  -2 7004.48   36.71  -6
   2  -6   0 7004.48   36.71  -5
  -2  -6   2 7004.48   36.71  -4
   0  -6  -2 7004.48   36.71  -3
   2  -6   0 7004.48   36.71  -2
  -2  -6   2 7004.48   36.71   1
   0   6  -2 6882.55   31.79  -6
   2   6   0 6882.55   31.79  -5
  -2   6   2 6882.55   31.79  -4
   0   6  -2 6882.55   31.79  -3
   2   6   0 6882.55   31.79  -2
  -2   6   2 6882.55   31.79   1
   1   6  -2 5326.13   14.67  -6
   1   6   1 5326.13   14.67  -5
  -2   6   1 5326.13   14.67  -4
  -1   6  -1 5326.13   14.67  -3
   2   6  -1 5326.13   14.67  -2
  -1   6   2 5326.13   14.67   1
   2  -6  -2 7164.64   26.25  -6
   0  -6   2 7164.64   26.25  -5
  -2  -6   0 7164.64   26.25  -4
  -2  -6   0 7164.64   26.25  -3
   2  -6  -2 7164.64   26.25  -2
   0  -6   2 7164.64   26.25   1
   2   6  -2 6495.47   12.29  -6
   0   6   2 6495.47   12.29  -5
  -2   6   0 6495.47   12.29  -4
  -2   6   0 6495.47   12.29  -3
   2   6  -2 6495.47   12.29  -2
   0   6   2 6495.47   12.29   1
   3  -6  -2 4799.02   16.31  -6
  -1  -6   3 4799.02   16.31  -5
  -2  -6  -1 4799.02   16.31  -4
  -3  -6   1 4799.02   16.31  -3
   2  -6  -3 4799.02   16.31  -2
   1  -6   2 4799.02   16.31   1
   3   6  -2 4390.40   15.01  -6
  -1   6   3 4390.40   15.01  -5
  -2   6  -1 4390.40   15.01  -4
  -3   6   1 4390.40   15.01  -3
   2   6  -3 4390.40   15.01  -2
   1   6   2 4390.40   15.01   1
   4  -6  -2 2784.13   17.74  -6
  -2  -6   4 2784.13   17.74  -5
  -2  -6  -2 2784.13   17.74  -4
  -4  -6   2 2784.13   17.74  -3
   2  -6  -4 2784.13   17.74  -2
   2  -6   2 2784.13   17.74   1
   4   6  -2 2595.21   17.99  -6
  -2   6   4 2595.21   17.99  -5
  -2   6  -2 2595.21   17.99  -4
  -4   6   2 2595.21   17.99  -3
   2   6  -4 2595.21   17.99  -2
   2   6   2 2595.21   17.99   1
   5  -6  -2 1881.08   24.84  -6
  -3  -6   5 1881.08   24.84  -5
  -2  -6  -3 1881.08   24.84  -4
  -5  -6   3 1881.08   24.84  -3
   2  -6  -5 1881.08   24.84  -2
   3  -6   2 1881.08   24.84   1
   5   6  -2 1813.55   33.79  -6
  -3   6   5 1813.55   33.79  -5
  -2   6  -3 1813.55   33.79  -4
  -5   6   3 1813.55   33.79  -3
   2   6  -5 1813.55   33.79  -2
   3   6   2 1813.55   33.79   1
   6  -6  -2 1247.30   27.57  -6
  -4  -6   6 1247.30   27.57  -5
  -2  -6  -4 1247.30   27.57  -4
  -6  -6   4 1247.30   27.57  -3
   2  -6  -6 1247.30   27.57  -2
   4  -6   2 1247.30   27.57   1
   7  -6  -2  656.53   27.98  -6
  -5  -6   7  656.53   27.98  -5
  -2  -6  -5  656.53   27.98  -4
  -7  -6   5  656.53   27.98  -3
   2  -6  -7  656.53   27.98  -2
   5  -6   2  656.53   27.98   1
   7   6  -2  622.40   25.49  -6
  -5   6   7  622.40   25.49  -5
  -2   6  -5  622.40   25.49  -4
  -7   6   5  622.40   25.49  -3
   2   6  -7  622.40   25.49  -2
   5   6   2  622.40   25.49   1
   8  -6  -2  374.81   40.26  -6
  -6  -6   8  374.81   40.26  -5
  -2  -6  -6  374.81   40.26  -4
  -8  -6   6  374.81   40.26  -3
   2  -6  -8  374.81   40.26  -2
   6  -6   2  374.81   40.26   1
   8   6  -2  284.52   28.03  -6
  -6   6   8  284.52   28.03  -5
  -2   6  -6  284.52   28.03  -4
  -8   6   6  284.52   28.03  -3
   2   6  -8  284.52   28.03  -2
   6   6   2  284.52   28.03   1
   9   6  -2  221.09   31.33  -6
  -7   6   9  221.09   31.33  -5
  -2   6  -7  221.09   31.33  -4
  -9   6   7  221.09   31.33  -3
   2   6  -9  221.09   31.33  -2
   7   6   2  221.09   31.33   1
  -6  -7  -2  857.41   44.68  -6
   8  -7  -6  857.41   44.68  -5
  -2  -7   8  857.41   44.68  -4
   6  -7  -8  857.41   44.68  -3
   2  -7   6  857.41   44.68  -2
  -8  -7   2  857.41   44.68   1
  -6   7  -2  430.40   34.84  -6
   8   7  -6  430.40   34.84  -5
  -2   7   8  430.40   34.84  -4
   6   7  -8  430.40   34.84  -3
   2   7   6  430.40   34.84  -2
  -8   7   2  430.40   34.84   1
  -5  -7  -2  952.61   32.70  -6
   7  -7  -5  952.61   32.70  -5
  -2  -7   7  952.61   32.70  -4
   5  -7  -7  952.61   32.70  -3
   2  -7   5  952.61   32.70  -2
  -7  -7   2  952.61   32.70   1
  -5   7  -2 1031.43   38.16  -6
   7   7  -5 1031.43   38.16  -5
  -2   7   7 1031.43   38.16  -4
   5   7  -7 1031.43   38.16  -3
   2   7   5 1031.43   38.16  -2
  -7   7   2 1031.43   38.16   1
  -4   7  -2 1631.41   19.53  -6
   6   7  -4 1631.41   19.53  -5
  -2   7   6 1631.41   19.53  -4
   4   7  -6 1631.41   19.53  -3
   2   7   4 1631.41   19.53  -2
  -6   7   2 1631.41   19.53   1
  -3  -7  -2  826.45   30.91  -6
   5  -7  -3  826.45   30.91  -5
  -2  -7   5  826.45   30.91  -4
   3  -7  -5  826.45   30.91  -3
   2  -7   3  826.45   30.91  -2
  -5  -7   2  826.45   30.91   1
  -3   7  -2  882.54   17.89  -6
   5   7  -3  882.54   17.89  -5
  -2   7   5  882.54   17.89  -4
   3   7  -5  882.54   17.89  -3
   2   7   3  882.54   17.89  -2
  -5   7   2  882.54   17.89   1
  -2  -7  -2  679.60   13.51  -6
   4  -7  -2  679.60   13.51  -5
  -2  -7   4  679.60   13.51  -4
   2  -7  -4  679.60   13.51  -3
   2  -7   2  679.60   13.51  -2
  -4  -7   2  679.60   13.51   1
  -2   7  -2  735.65   10.54  -6
   4   7  -2  735.65   10.54  -5
  -2   7   4  735.65   10.54  -4
   2   7  -4  735.65   10.54  -3
   2   7   2  735.65   10.54  -2
  -4   7   2  735.65   10.54   1
  -1  -7  -2 1299.42   22.54  -6
   3  -7  -1 1299.42   22.54  -5
  -2  -7   3 1299.42   22.54  -4
   1  -7  -3 1299.42   22.54  -3
   2  -7   1 1299.42   22.54  -2
  -3  -7   2 1299.42   22.54   1
  -1   7  -2 1243.11   17.34  -6
   3   7  -1 1243.11   17.34  -5
  -2   7   3 1243.11   17.34  -4
   1   7  -3 1243.11   17.34  -3
   2   7   1 1243.11   17.34  -2
  -3   7   2 1243.11   17.34   1
   0  -7  -2 1113.87   10.13  -6
   2  -7   0 1113.87   10.13  -5
  -2  -7   2 1113.87   10.13  -4
   0  -7  -2 1113.87   10.13  -3
   2  -7   0 1113.87   10.13  -2
  -2  -7   2 1113.87   10.13   1
   1   7  -2  658.68    7.05  -6
   1   7   1  658.68    7.05  -5
  -2   7   1  658.68    7.05  -4
  -1   7  -1  658.68    7.05  -3
   2   7  -1  658.68    7.05  -2
  -1   7   2  658.68    7.05   1
   2  -7  -2 1181.33   14.42  -6
   0  -7   2 1181.33   14.42  -5
  -2  -7   0 1181.33   14.42  -4
  -2  -7   0 1181.33   14.42  -3
   2  -7  -2 1181.33   14.42  -2
   0  -7   2 1181.33   14.42   1
   2   7  -2 1117.46    9.95  -6
   0   7   2 1117.46    9.95  -5
  -2   7   0 1117.46    9.95  -4
  -2   7   0 1117.46    9.95  -3
   2   7  -2 1117.46    9.95  -2
   0   7   2 1117.46    9.95   1
   3  -7  -2  971.95    9.75  -6
  -1  -7   3  971.95    9.75  -5
  -2  -7  -1  971.95    9.75  -4
  -3  -7   1  971.95    9.75  -3
   2  -7  -3  971.95    9.75  -2
   1  -7   2  971.95    9.75   1
   3   7  -2 1007.56   20.69  -6
  -1   7   3 1007.56   20.69  -5
  -2   7  -1 1007.56   20.69  -4
  -3   7   1 1007.56   20.69  -3
   2   7  -3 1007.56   20.69  -2
   1   7   2 1007.56   20.69   1
   4  -7  -2  638.72   18.15  -6
  -2  -7   4  638.72   18.15  -5
  -2  -7  -2  638.72   18.15  -4
  -4  -7   2  638.72   18.15  -3
   2  -7  -4  638.72   18.15  -2
   2  -7   2  638.72   18.15   1
   4   7  -2  628.11    8.12  -6
  -2   7   4  628.11    8.12  -5
  -2   7  -2  628.11    8.12  -4
  -4   7   2  628.11    8.12  -3
   2   7  -4  628.11    8.12  -2
   2   7   2  628.11    8.12   1
   5  -7  -2  897.17   34.85  -6
  -3  -7   5  897.17   34.85  -5
  -2  -7  -3  897.17   34.85  -4
  -5  -7   3  897.17   34.85  -3
   2  -7  -5  897.17   34.85  -2
   3  -7   2  897.17   34.85   1
   5   7  -2  874.09   15.43  -6
  -3   7   5  874.09   15.43  -5
  -2   7  -3  874.09   15.43  -4
  -5   7   3  874.09   15.43  -3
   2   7  -5  874.09   15.43  -2
   3   7   2  874.09   15.43   1
   6  -7  -2 1679.16   45.32  -6
  -4  -7   6 1679.16   45.32  -5
  -2  -7  -4 1679.16   45.32  -4
  -6  -7   4 1679.16   45.32  -3
   2  -7  -6 1679.16   45.32  -2
   4  -7   2 1679.16   45.32   1
   6   7  -2 1833.47   25.18  -6
  -4   7   6 1833.47   25.18  -5
  -2   7  -4 1833.47   25.18  -4
  -6   7   4 1833.47   25.18  -3
   2   7  -6 1833.47   25.18  -2
   4   7   2 1833.47   25.18   1
   7  -7  -2 1373.70   42.56  -6
  -5  -7   7 1373.70   42.56  -5
  -2  -7  -5 1373.70   42.56  -4
  -7  -7   5 1373.70   42.56  -3
   2  -7  -7 1373.70   42.56  -2
   5  -7   2 1373.70   42.56   1
   7   7  -2 1338.22   33.07  -6
  -5   7   7 1338.22   33.07  -5
  -2   7  -5 1338.22   33.07  -4
  -7   7   5 1338.22   33.07  -3
   2   7  -7 1338.22   33.07  -2
   5   7   2 1338.22   33.07   1
   8  -7  -2  995.71   44.79  -6
  -6  -7   8  995.71   44.79  -5
  -2  -7  -6  995.71   44.79  -4
  -8  -7   6  995.71   44.79  -3
   2  -7  -8  995.71   44.79  -2
   6  -7   2  995.71   44.79   1
   8   7  -2  797.62   34.24  -6
  -6   7   8  797.62   34.24  -5
  -2   7  -6  797.62   34.24  -4
  -8   7   6  797.62   34.24  -3
   2   7  -8  797.62   34.24  -2
   6   7   2  797.62   34.24   1
   9   7  -2  382.02   34.55  -6
  -7   7   9  382.02   34.55  -5
  -2   7  -7  382.02   34.55  -4
  -9   7   7  382.02   34.55  -3
   2   7  -9  382.02   34.55  -2
   7   7   2  382.02   34.55   1
  -6  -8  -2  416.72   42.74  -6
   8  -8  -6  416.72   42.74  -5
  -2  -8   8  416.72   42.74  -4
   6  -8  -8  416.72   42.74  -3
   2  -8   6  416.72   42.74  -2
  -8  -8   2  416.72   42.74   1
  -6   8  -2  348.67   25.24  -6
   8   8  -6  348.67   25.24  -5
  -2   8   8  348.67   25.24  -4
   6   8  -8  348.67   25.24  -3
   2   8   6  348.67   25.24  -2
  -8   8   2  348.67   25.24   1
  -5  -8  -2  596.05   39.17  -6
   7  -8  -5  596.05   39.17  -5
  -2  -8   7  596.05   39.17  -4
   5  -8  -7  596.05   39.17  -3
   2  -8   5  596.05   39.17  -2
  -7  -8   2  596.05   39.17   1
  -5   8  -2  584.60   25.42  -6
   7   8  -5  584.60   25.42  -5
  -2   8   7  584.60   25.42  -4
   5   8  -7  584.60   25.42  -3
   2   8   5  584.60   25.42  -2
  -7   8   2  584.60   25.42   1
  -4  -8  -2  771.45   35.08  -6
   6  -8  -4  771.45   35.08  -5
  -2  -8   6  771.45   35.08  -4
   4  -8  -6  771.45   35.08  -3
   2  -8   4  771.45   35.08  -2
  -6  -8   2  771.45   35.08   1
  -4   8  -2  848.29   18.11  -6
   6   8  -4  848.29   18.11  -5
  -2   8   6  848.29   18.11  -4
   4   8  -6  848.29   18.11  -3
   2   8   4  848.29   18.11  -2
  -6   8   2  848.29   18.11   1
  -3  -8  -2  809.42   31.07  -6
   5  -8  -3  809.42   31.07  -5
  -2  -8   5  809.42   31.07  -4
   3  -8  -5  809.42   31.07  -3
   2  -8   3  809.42   31.07  -2
  -5  -8   2  809.42   31.07   1
  -3   8  -2  831.52   15.55  -6
   5   8  -3  831.52   15.55  -5
  -2   8   5  831.52   15.55  -4
   3   8  -5  831.52   15.55  -3
   2   8   3  831.52   15.55  -2
  -5   8   2  831.52   15.55   1
  -2  -8  -2 1128.05   15.34  -6
   4  -8  -2 1128.05   15.34  -5
  -2  -8   4 1128.05   15.34  -4
   2  -8  -4 1128.05   15.34  -3
   2  -8   2 1128.05   15.34  -2
  -4  -8   2 1128.05   15.34   1
  -2   8  -2 1103.75   12.43  -6
   4   8  -2 1103.75   12.43  -5
  -2   8   4 1103.75   12.43  -4
   2   8  -4 1103.75   12.43  -3
   2   8   2 1103.75   12.43  -2
  -4   8   2 1103.75   12.43   1
  -1  -8  -2 2812.69   22.13  -6
   3  -8  -1 2812.69   22.13  -5
  -2  -8   3 2812.69   22.13  -4
   1  -8  -3 2812.69   22.13  -3
   2  -8   1 2812.69   22.13  -2
  -3  -8   2 2812.69   22.13   1
  -1   8  -2 2765.89   12.88  -6
   3   8  -1 2765.89   12.88  -5
  -2   8   3 2765.89   12.88  -4
   1   8  -3 2765.89   12.88  -3
   2   8   1 2765.89   12.88  -2
  -3   8   2 2765.89   12.88   1
   0  -8  -2 3160.35   13.88  -6
   2  -8   0 3160.35   13.88  -5
  -2  -8   2 3160.35   13.88  -4
   0  -8  -2 3160.35   13.88  -3
   2  -8   0 3160.35   13.88  -2
  -2  -8   2 3160.35   13.88   1
   0   8  -2 3633.54   18.34  -6
   2   8   0 3633.54   18.34  -5
  -2   8   2 3633.54   18.34  -4
   0   8  -2 3633.54   18.34  -3
   2   8   0 3633.54   18.34  -2
  -2   8   2 3633.54   18.34   1
   1  -8  -2 3820.90   38.31  -6
   1  -8   1 3820.90   38.31  -5
  -2  -8   1 3820.90   38.31  -4
  -1  -8  -1 3820.90   38.31  -3
   2  -8  -1 3820.90   38.31  -2
  -1  -8   2 3820.90   38.31   1
   1   8  -2 4336.32   42.26  -6
   1   8   1 4336.32   42.26  -5
  -2   8   1 4336.32   42.26  -4
  -1   8  -1 4336.32   42.26  -3
   2   8  -1 4336.32   42.26  -2
  -1   8   2 4336.32   42.26   1
   2  -8  -2 3397.74   27.58  -6
   0  -8   2 3397.74   27.58  -5
  -2  -8   0 3397.74   27.58  -4
  -2  -8   0 3397.74   27.58  -3
   2  -8  -2 3397.74   27.58  -2
   0  -8   2 3397.74   27.58   1
   2   8  -2 3551.88   19.37  -6
   0   8   2 3551.88   19.37  -5
  -2   8   0 3551.88   19.37  -4
  -2   8   0 3551.88   19.37  -3
   2   8  -2 3551.88   19.37  -2
   0   8   2 3551.88   19.37   1
   3  -8  -2 2901.01   37.46  -6
  -1  -8   3 2901.01   37.46  -5
  -2  -8  -1 2901.01   37.46  -4
  -3  -8   1 2901.01   37.46  -3
   2  -8  -3 2901.01   37.46  -2
   1  -8   2 2901.01   37.46   1
   3   8  -2 3056.08   23.87  -6
  -1   8   3 3056.08   23.87  -5
  -2   8  -1 3056.08   23.87  -4
  -3   8   1 3056.08   23.87  -3
   2   8  -3 3056.08   23.87  -2
   1   8   2 3056.08   23.87   1
   4  -8  -2 1142.27   17.10  -6
  -2  -8   4 1142.27   17.10  -5
  -2  -8  -2 1142.27   17.10  -4
  -4  -8   2 1142.27   17.10  -3
   2  -8  -4 1142.27   17.10  -2
   2  -8   2 1142.27   17.10   1
   5  -8  -2  797.12   22.22  -6
  -3  -8   5  797.12   22.22  -5
  -2  -8  -3  797.12   22.22  -4
  -5  -8   3  797.12   22.22  -3
   2  -8  -5  797.12   22.22  -2
   3  -8   2  797.12   22.22   1
   6  -8  -2  722.78   26.31  -6
  -4  -8   6  722.78   26.31  -5
  -2  -8  -4  722.78   26.31  -4
  -6  -8   4  722.78   26.31  -3
   2  -8  -6  722.78   26.31  -2
   4  -8   2  722.78   26.31   1
   7  -8  -2  495.32   44.02  -6
  -5  -8   7  495.32   44.02  -5
  -2  -8  -5  495.32   44.02  -4
  -7  -8   5  495.32   44.02  -3
   2  -8  -7  495.32   44.02  -2
   5  -8   2  495.32   44.02   1
   7   8  -2  345.13   28.01  -6
  -5   8   7  345.13   28.01  -5
  -2   8  -5  345.13   28.01  -4
  -7   8   5  345.13   28.01  -3
   2   8  -7  345.13   28.01  -2
   5   8   2  345.13   28.01   1
   8  -8  -2  299.21   40.86  -6
  -6  -8   8  299.21   40.86  -5
  -2  -8  -6  299.21   40.86  -4
  -8  -8   6  299.21   40.86  -3
   2  -8  -8  299.21   40.86  -2
   6  -8   2  299.21   40.86   1
   8   8  -2  208.06   28.03  -6
  -6   8   8  208.06   28.03  -5
  -2   8  -6  208.06   28.03  -4
  -8   8   6  208.06   28.03  -3
   2   8  -8  208.06   28.03  -2
   6   8   2  208.06   28.03   1
  -5  -9  -2  679.50   24.74  -6
   7  -9  -5  679.50   24.74  -5
  -2  -9   7  679.50   24.74  -4
   5  -9  -7  679.50   24.74  -3
   2  -9   5  679.50   24.74  -2
  -7  -9   2  679.50   24.74   1
  -5   9  -2  636.66   25.19  -6
   7   9  -5  636.66   25.19  -5
  -2   9   7  636.66   25.19  -4
   5   9  -7  636.66   25.19  -3
   2   9   5  636.66   25.19  -2
  -7   9   2  636.66   25.19   1
  -4  -9  -2  833.46   36.31  -6
   6  -9  -4  833.46   36.31  -5
  -2  -9   6  833.46   36.31  -4
   4  -9  -6  833.46   36.31  -3
   2  -9   4  833.46   36.31  -2
  -6  -9   2  833.46   36.31   1
  -4   9  -2  901.81   23.19  -6
   6   9  -4  901.81   23.19  -5
  -2   9   6  901.81   23.19  -4
   4   9  -6  901.81   23.19  -3
   2   9   4  901.81   23.19  -2
  -6   9   2  901.81   23.19   1
  -3   9  -2  446.93   16.64  -6
   5   9  -3  446.93   16.64  -5
  -2   9   5  446.93   16.64  -4
   3   9  -5  446.93   16.64  -3
   2   9   3  446.93   16.64  -2
  -5   9   2  446.93   16.64   1
  -2  -9  -2  234.97   11.87  -6
   4  -9  -2  234.97   11.87  -5
  -2  -9   4  234.97   11.87  -4
   2  -9  -4  234.97   11.87  -3
   2  -9   2  234.97   11.87  -2
  -4  -9   2  234.97   11.87   1
  -2   9  -2  237.34   15.49  -6
   4   9  -2  237.34   15.49  -5
  -2   9   4  237.34   15.49  -4
   2   9  -4  237.34   15.49  -3
   2   9   2  237.34   15.49  -2
  -4   9   2  237.34   15.49   1
  -1  -9  -2  575.25   12.13  -6
   3  -9  -1  575.25   12.13  -5
  -2  -9   3  575.25   12.13  -4
   1  -9  -3  575.25   12.13  -3
   2  -9   1  575.25   12.13  -2
  -3  -9   2  575.25   12.13   1
  -1   9  -2  606.58   16.39  -6
   3   9  -1  606.58   16.39  -5
  -2   9   3  606.58   16.39  -4
   1   9  -3  606.58   16.39  -3
   2   9   1  606.58   16.39  -2
  -3   9   2  606.58   16.39   1
   0  -9  -2  660.49   10.30  -6
   2  -9   0  660.49   10.30  -5
  -2  -9   2  660.49   10.30  -4
   0  -9  -2  660.49   10.30  -3
   2  -9   0  660.49   10.30  -2
  -2  -9   2  660.49   10.30   1
   0   9  -2  660.79   16.03  -6
   2   9   0  660.79   16.03  -5
  -2   9   2  660.79   16.03  -4
   0   9  -2  660.79   16.03  -3
   2   9   0  660.79   16.03  -2
  -2   9   2  660.79   16.03   1
   1  -9  -2  197.84   22.72  -6
   1  -9   1  197.84   22.72  -5
  -2  -9   1  197.84   22.72  -4
  -1  -9  -1  197.84   22.72  -3
   2  -9  -1  197.84   22.72  -2
  -1  -9   2  197.84   22.72   1
   1   9  -2  181.78   22.85  -6
   1   9   1  181.78   22.85  -5
  -2   9   1  181.78   22.85  -4
  -1   9  -1  181.78   22.85  -3
   2   9  -1  181.78   22.85  -2
  -1   9   2  181.78   22.85   1
   2  -9  -2  610.68   14.46  -6
   0  -9   2  610.68   14.46  -5
  -2  -9   0  610.68   14.46  -4
  -2  -9   0  610.68   14.46  -3
   2  -9  -2  610.68   14.46  -2
   0  -9   2  610.68   14.46   1
   2   9  -2  585.57   27.00  -6
   0   9   2  585.57   27.00  -5
  -2   9   0  585.57   27.00  -4
  -2   9   0  585.57   27.00  -3
   2   9  -2  585.57   27.00  -2
   0   9   2  585.57   27.00   1
   3  -9  -2  586.15   12.81  -6
  -1  -9   3  586.15   12.81  -5
  -2  -9  -1  586.15   12.81  -4
  -3  -9   1  586.15   12.81  -3
   2  -9  -3  586.15   12.81  -2
   1  -9   2  586.15   12.81   1
   3   9  -2  606.05   14.70  -6
  -1   9   3  606.05   14.70  -5
  -2   9  -1  606.05   14.70  -4
  -3   9   1  606.05   14.70  -3
   2   9  -3  606.05   14.70  -2
   1   9   2  606.05   14.70   1
   4  -9  -2  226.67   14.17  -6
  -2  -9   4  226.67   14.17  -5
  -2  -9  -2  226.67   14.17  -4
  -4  -9   2  226.67   14.17  -3
   2  -9  -4  226.67   14.17  -2
   2  -9   2  226.67   14.17   1
   5  -9  -2  455.26   17.92  -6
  -3  -9   5  455.26   17.92  -5
  -2  -9  -3  455.26   17.92  -4
  -5  -9   3  455.26   17.92  -3
   2  -9  -5  455.26   17.92  -2
   3  -9   2  455.26   17.92   1
   6  -9  -2  785.81   34.62  -6
  -4  -9   6  785.81   34.62  -5
  -2  -9  -4  785.81   34.62  -4
  -6  -9   4  785.81   34.62  -3
   2  -9  -6  785.81   34.62  -2
   4  -9   2  785.81   34.62   1
   6   9  -2  700.21   28.77  -6
  -4   9   6  700.21   28.77  -5
  -2   9  -4  700.21   28.77  -4
  -6   9   4  700.21   28.77  -3
   2   9  -6  700.21   28.77  -2
   4   9   2  700.21   28.77   1
   7  -9  -2 1161.55   47.00  -6
  -5  -9   7 1161.55   47.00  -5
  -2  -9  -5 1161.55   47.00  -4
  -7  -9   5 1161.55   47.00  -3
   2  -9  -7 1161.55   47.00  -2
   5  -9   2 1161.55   47.00   1
   7   9  -2  807.28   31.53  -6
  -5   9   7  807.28   31.53  -5
  -2   9  -5  807.28   31.53  -4
  -7   9   5  807.28   31.53  -3
   2   9  -7  807.28   31.53  -2
   5   9   2  807.28   31.53   1
   8   9  -2  391.37   30.47  -6
  -6   9   8  391.37   30.47  -5
  -2   9  -6  391.37   30.47  -4
  -8   9   6  391.37   30.47  -3
   2   9  -8  391.37   30.47  -2
   6   9   2  391.37   30.47   1
  -5 -10  -2  516.93   41.68  -6
   7 -10  -5  516.93   41.68  -5
  -2 -10   7  516.93   41.68  -4
   5 -10  -7  516.93   41.68  -3
   2 -10   5  516.93   41.68  -2
  -7 -10   2  516.93   41.68   1
  -5  10  -2  430.76   35.95  -6
   7  10  -5  430.76   35.95  -5
  -2  10   7  430.76   35.95  -4
   5  10  -7  430.76   35.95  -3
   2  10   5  430.76   35.95  -2
  -7  10   2  430.76   35.95   1
  -4 -10  -2  717.18   37.27  -6
   6 -10  -4  717.18   37.27  -5
  -2 -10   6  717.18   37.27  -4
   4 -10  -6  717.18   37.27  -3
   2 -10   4  717.18   37.27  -2
  -6 -10   2  717.18   37.27   1
  -4  10  -2  713.92   22.07  -6
   6  10  -4  713.92   22.07  -5
  -2  10   6  713.92   22.07  -4
   4  10  -6  713.92   22.07  -3
   2  10   4  713.92   22.07  -2
  -6  10   2  713.92   22.07   1
  -3 -10  -2  663.76   31.75  -6
   5 -10  -3  663.76   31.75  -5
  -2 -10   5  663.76   31.75  -4
   3 -10  -5  663.76   31.75  -3
   2 -10   3  663.76   31.75  -2
  -5 -10   2  663.76   31.75   1
  -3  10  -2  683.13   19.55  -6
   5  10  -3  683.13   19.55  -5
  -2  10   5  683.13   19.55  -4
   3  10  -5  683.13   19.55  -3
   2  10   3  683.13   19.55  -2
  -5  10   2  683.13   19.55   1
  -2  10  -2  801.73   18.76  -6
   4  10  -2  801.73   18.76  -5
  -2  10   4  801.73   18.76  -4
   2  10  -4  801.73   18.76  -3
   2  10   2  801.73   18.76  -2
  -4  10   2  801.73   18.76   1
  -1 -10  -2 2102.49   16.55  -6
   3 -10  -1 2102.49   16.55  -5
  -2 -10   3 2102.49   16.55  -4
   1 -10  -3 2102.49   16.55  -3
   2 -10   1 2102.49   16.55  -2
  -3 -10   2 2102.49   16.55   1
  -1  10  -2 2188.37   32.68  -6
   3  10  -1 2188.37   32.68  -5
  -2  10   3 2188.37   32.68  -4
   1  10  -3 2188.37   32.68  -3
   2  10   1 2188.37   32.68  -2
  -3  10   2 2188.37   32.68   1
   0 -10  -2 2983.80   17.40  -6
   2 -10   0 2983.80   17.40  -5
  -2 -10   2 2983.80   17.40  -4
   0 -10  -2 2983.80   17.40  -3
   2 -10   0 2983.80   17.40  -2
  -2 -10   2 2983.80   17.40   1
   0  10  -2 2945.77   26.20  -6
   2  10   0 2945.77   26.20  -5
  -2  10   2 2945.77   26.20  -4
   0  10  -2 2945.77   26.20  -3
   2  10   0 2945.77   26.20  -2
  -2  10   2 2945.77   26.20   1
   1 -10  -2 2484.61   40.82  -6
   1 -10   1 2484.61   40.82  -5
  -2 -10   1 2484.61   40.82  -4
  -1 -10  -1 2484.61   40.82  -3
   2 -10  -1 2484.61   40.82  -2
  -1 -10   2 2484.61   40.82   1
   1  10  -2 2163.76   38.11  -6
   1  10   1 2163.76   38.11  -5
  -2  10   1 2163.76   38.11  -4
  -1  10  -1 2163.76   38.11  -3
   2  10  -1 2163.76   38.11  -2
  -1  10   2 2163.76   38.11   1
   2 -10  -2 3090.18   21.89  -6
   0 -10   2 3090.18   21.89  -5
  -2 -10   0 3090.18   21.89  -4
  -2 -10   0 3090.18   21.89  -3
   2 -10  -2 3090.18   21.89  -2
   0 -10   2 3090.18   21.89   1
   2  10  -2 3023.99   42.69  -6
   0  10   2 3023.99   42.69  -5
  -2  10   0 3023.99   42.69  -4
  -2  10   0 3023.99   42.69  -3
   2  10  -2 3023.99   42.69  -2
   0  10   2 3023.99   42.69   1
   3 -10  -2 2140.29   21.27  -6
  -1 -10   3 2140.29   21.27  -5
  -2 -10  -1 2140.29   21.27  -4
  -3 -10   1 2140.29   21.27  -3
   2 -10  -3 2140.29   21.27  -2
   1 -10   2 2140.29   21.27   1
   3  10  -2 2160.65   19.47  -6
  -1  10   3 2160.65   19.47  -5
  -2  10  -1 2160.65   19.47  -4
  -3  10   1 2160.65   19.47  -3
   2  10  -3 2160.65   19.47  -2
   1  10   2 2160.65   19.47   1
   4 -10  -2  853.24   19.78  -6
  -2 -10   4  853.24   19.78  -5
  -2 -10  -2  853.24   19.78  -4
  -4 -10   2  853.24   19.78  -3
   2 -10  -4  853.24   19.78  -2
   2 -10   2  853.24   19.78   1
   5 -10  -2  686.71   19.10  -6
  -3 -10   5  686.71   19.10  -5
  -2 -10  -3  686.71   19.10  -4
  -5 -10   3  686.71   19.10  -3
   2 -10  -5  686.71   19.10  -2
   3 -10   2  686.71   19.10   1
   5  10  -2  621.62   30.88  -6
  -3  10   5  621.62   30.88  -5
  -2  10  -3  621.62   30.88  -4
  -5  10   3  621.62   30.88  -3
   2  10  -5  621.62   30.88  -2
   3  10   2  621.62   30.88   1
   6 -10  -2  560.00   39.11  -6
  -4 -10   6  560.00   39.11  -5
  -2 -10  -4  560.00   39.11  -4
  -6 -10   4  560.00   39.11  -3
   2 -10  -6  560.00   39.11  -2
   4 -10   2  560.00   39.11   1
   6  10  -2  518.87   29.11  -6
  -4  10   6  518.87   29.11  -5
  -2  10  -4  518.87   29.11  -4
  -6  10   4  518.87   29.11  -3
   2  10  -6  518.87   29.11  -2
   4  10   2  518.87   29.11   1
   7 -10  -2  450.52   41.98  -6
  -5 -10   7  450.52   41.98  -5
  -2 -10  -5  450.52   41.98  -4
  -7 -10   5  450.52   41.98  -3
   2 -10  -7  450.52   41.98  -2
   5 -10   2  450.52   41.98   1
  -5 -11  -2  976.41   45.24  -6
   7 -11  -5  976.41   45.24  -5
  -2 -11   7  976.41   45.24  -4
   5 -11  -7  976.41   45.24  -3
   2 -11   5  976.41   45.24  -2
  -7 -11   2  976.41   45.24   1
  -5  11  -2  629.57   36.47  -6
   7  11  -5  629.57   36.47  -5
  -2  11   7  629.57   36.47  -4
   5  11  -7  629.57   36.47  -3
   2  11   5  629.57   36.47  -2
  -7  11   2  629.57   36.47   1
  -4 -11  -2 1026.88   41.50  -6
   6 -11  -4 1026.88   41.50  -5
  -2 -11   6 1026.88   41.50  -4
   4 -11  -6 1026.88   41.50  -3
   2 -11   4 1026.88   41.50  -2
  -6 -11   2 1026.88   41.50   1
  -4  11  -2  947.65   24.26  -6
   6  11  -4  947.65   24.26  -5
  -2  11   6  947.65   24.26  -4
   4  11  -6  947.65   24.26  -3
   2  11   4  947.65   24.26  -2
  -6  11   2  947.65   24.26   1
  -3 -11  -2  625.71   33.90  -6
   5 -11  -3  625.71   33.90  -5
  -2 -11   5  625.71   33.90  -4
   3 -11  -5  625.71   33.90  -3
   2 -11   3  625.71   33.90  -2
  -5 -11   2  625.71   33.90   1
  -3  11  -2  703.32   20.80  -6
   5  11  -3  703.32   20.80  -5
  -2  11   5  703.32   20.80  -4
   3  11  -5  703.32   20.80  -3
   2  11   3  703.32   20.80  -2
  -5  11   2  703.32   20.80   1
  -2  11  -2  555.97   19.11  -6
   4  11  -2  555.97   19.11  -5
  -2  11   4  555.97   19.11  -4
   2  11  -4  555.97   19.11  -3
   2  11   2  555.97   19.11  -2
  -4  11   2  555.97   19.11   1
  -1 -11  -2  600.50   20.27  -6
   3 -11  -1  600.50   20.27  -5
  -2 -11   3  600.50   20.27  -4
   1 -11  -3  600.50   20.27  -3
   2 -11   1  600.50   20.27  -2
  -3 -11   2  600.50   20.27   1
  -1  11  -2  654.60   30.02  -6
   3  11  -1  654.60   30.02  -5
  -2  11   3  654.60   30.02  -4
   1  11  -3  654.60   30.02  -3
   2  11   1  654.60   30.02  -2
  -3  11   2  654.60   30.02   1
   0 -11  -2  645.52   32.16  -6
   2 -11   0  645.52   32.16  -5
  -2 -11   2  645.52   32.16  -4
   0 -11  -2  645.52   32.16  -3
   2 -11   0  645.52   32.16  -2
  -2 -11   2  645.52   32.16   1
   0  11  -2  619.06   19.18  -6
   2  11   0  619.06   19.18  -5
  -2  11   2  619.06   19.18  -4
   0  11  -2  619.06   19.18  -3
   2  11   0  619.06   19.18  -2
  -2  11   2  619.06   19.18   1
   1 -11  -2  302.65   28.96  -6
   1 -11   1  302.65   28.96  -5
  -2 -11   1  302.65   28.96  -4
  -1 -11  -1  302.65   28.96  -3
   2 -11  -1  302.65   28.96  -2
  -1 -11   2  302.65   28.96   1
   1  11  -2  288.39   26.98  -6
   1  11   1  288.39   26.98  -5
  -2  11   1  288.39   26.98  -4
  -1  11  -1  288.39   26.98  -3
   2  11  -1  288.39   26.98  -2
  -1  11   2  288.39   26.98   1
   2 -11  -2  567.85   15.07  -6
   0 -11   2  567.85   15.07  -5
  -2 -11   0  567.85   15.07  -4
  -2 -11   0  567.85   15.07  -3
   2 -11  -2  567.85   15.07  -2
   0 -11   2  567.85   15.07   1
   2  11  -2  508.20   31.60  -6
   0  11   2  508.20   31.60  -5
  -2  11   0  508.20   31.60  -4
  -2  11   0  508.20   31.60  -3
   2  11  -2  508.20   31.60  -2
   0  11   2  508.20   31.60   1
   3 -11  -2  594.32   19.74  -6
  -1 -11   3  594.32   19.74  -5
  -2 -11  -1  594.32   19.74  -4
  -3 -11   1  594.32   19.74  -3
   2 -11  -3  594.32   19.74  -2
   1 -11   2  594.32   19.74   1
   3  11  -2  546.22   30.45  -6
  -1  11   3  546.22   30.45  -5
  -2  11  -1  546.22   30.45  -4
  -3  11   1  546.22   30.45  -3
   2  11  -3  546.22   30.45  -2
   1  11   2  546.22   30.45   1
   4 -11  -2  586.26   24.94  -6
  -2 -11   4  586.26   24.94  -5
  -2 -11  -2  586.26   24.94  -4
  -4 -11   2  586.26   24.94  -3
   2 -11  -4  586.26   24.94  -2
   2 -11   2  586.26   24.94   1
   4  11  -2  509.99   30.17  -6
  -2  11   4  509.99   30.17  -5
  -2  11  -2  509.99   30.17  -4
  -4  11   2  509.99   30.17  -3
   2  11  -4  509.99   30.17  -2
   2  11   2  509.99   30.17   1
   5 -11  -2  766.56   26.59  -6
  -3 -11   5  766.56   26.59  -5
  -2 -11  -3  766.56   26.59  -4
  -5 -11   3  766.56   26.59  -3
   2 -11  -5  766.56   26.59  -2
   3 -11   2  766.56   26.59   1
   5  11  -2  704.72   32.24  -6
  -3  11   5  704.72   32.24  -5
  -2  11  -3  704.72   32.24  -4
  -5  11   3  704.72   32.24  -3
   2  11  -5  704.72   32.24  -2
   3  11   2  704.72   32.24   1
   6 -11  -2 1199.76   32.04  -6
  -4 -11   6 1199.76   32.04  -5
  -2 -11  -4 1199.76   32.04  -4
  -6 -11   4 1199.76   32.04  -3
   2 -11  -6 1199.76   32.04  -2
   4 -11   2 1199.76   32.04   1
   7 -11  -2 1032.54   33.29  -6
  -5 -11   7 1032.54   33.29  -5
  -2 -11  -5 1032.54   33.29  -4
  -7 -11   5 1032.54   33.29  -3
   2 -11  -7 1032.54   33.29  -2
   5 -11   2 1032.54   33.29   1
   8 -11  -2  564.17   48.24  -6
  -6 -11   8  564.17   48.24  -5
  -2 -11  -6  564.17   48.24  -4
  -8 -11   6  564.17   48.24  -3
   2 -11  -8  564.17   48.24  -2
   6 -11   2  564.17   48.24   1
  -5 -12  -2  488.05   43.46  -6
   7 -12  -5  488.05   43.46  -5
  -2 -12   7  488.05   43.46  -4
   5 -12  -7  488.05   43.46  -3
   2 -12   5  488.05   43.46  -2
  -7 -12   2  488.05   43.46   1
  -4 -12  -2  800.19   41.23  -6
   6 -12  -4  800.19   41.23  -5
  -2 -12   6  800.19   41.23  -4
   4 -12  -6  800.19   41.23  -3
   2 -12   4  800.19   41.23  -2
  -6 -12   2  800.19   41.23   1
  -4  12  -2  719.07   24.17  -6
   6  12  -4  719.07   24.17  -5
  -2  12   6  719.07   24.17  -4
   4  12  -6  719.07   24.17  -3
   2  12   4  719.07   24.17  -2
  -6  12   2  719.07   24.17   1
  -3 -12  -2  920.79   36.83  -6
   5 -12  -3  920.79   36.83  -5
  -2 -12   5  920.79   36.83  -4
   3 -12  -5  920.79   36.83  -3
   2 -12   3  920.79   36.83  -2
  -5 -12   2  920.79   36.83   1
  -3  12  -2  947.18   23.61  -6
   5  12  -3  947.18   23.61  -5
  -2  12   5  947.18   23.61  -4
   3  12  -5  947.18   23.61  -3
   2  12   3  947.18   23.61  -2
  -5  12   2  947.18   23.61   1
  -2 -12  -2 1211.87   33.98  -6
   4 -12  -2 1211.87   33.98  -5
  -2 -12   4 1211.87   33.98  -4
   2 -12  -4 1211.87   33.98  -3
   2 -12   2 1211.87   33.98  -2
  -4 -12   2 1211.87   33.98   1
  -2  12  -2 1278.13   34.63  -6
   4  12  -2 1278.13   34.63  -5
  -2  12   4 1278.13   34.63  -4
   2  12  -4 1278.13   34.63  -3
   2  12   2 1278.13   34.63  -2
  -4  12   2 1278.13   34.63   1
  -1 -12  -2 1982.80   26.72  -6
   3 -12  -1 1982.80   26.72  -5
  -2 -12   3 1982.80   26.72  -4
   1 -12  -3 1982.80   26.72  -3
   2 -12   1 1982.80   26.72  -2
  -3 -12   2 1982.80   26.72   1
  -1  12  -2 1993.76   25.10  -6
   3  12  -1 1993.76   25.10  -5
  -2  12   3 1993.76   25.10  -4
   1  12  -3 1993.76   25.10  -3
   2  12   1 1993.76   25.10  -2
  -3  12   2 1993.76   25.10   1
   0 -12  -2 2606.11   47.36  -6
   2 -12   0 2606.11   47.36  -5
  -2 -12   2 2606.11   47.36  -4
   0 -12  -2 2606.11   47.36  -3
   2 -12   0 2606.11   47.36  -2
  -2 -12   2 2606.11   47.36   1
   0  12  -2 2707.87   44.80  -6
   2  12   0 2707.87   44.80  -5
  -2  12   2 2707.87   44.80  -4
   0  12  -2 2707.87   44.80  -3
   2  12   0 2707.87   44.80  -2
  -2  12   2 2707.87   44.80   1
   1 -12  -2 3222.73   50.29  -6
   1 -12   1 3222.73   50.29  -5
  -2 -12   1 3222.73   50.29  -4
  -1 -12  -1 3222.73   50.29  -3
   2 -12  -1 3222.73   50.29  -2
  -1 -12   2 3222.73   50.29   1
   1  12  -2 3124.80   47.20  -6
   1  12   1 3124.80   47.20  -5
  -2  12   1 3124.80   47.20  -4
  -1  12  -1 3124.80   47.20  -3
   2  12  -1 3124.80   47.20  -2
  -1  12   2 3124.80   47.20   1
   2 -12  -2 2752.17   29.64  -6
   0 -12   2 2752.17   29.64  -5
  -2 -12   0 2752.17   29.64  -4
  -2 -12   0 2752.17   29.64  -3
   2 -12  -2 2752.17   29.64  -2
   0 -12   2 2752.17   29.64   1
   3 -12  -2 2382.27   32.72  -6
  -1 -12   3 2382.27   32.72  -5
  -2 -12  -1 2382.27   32.72  -4
  -3 -12   1 2382.27   32.72  -3
   2 -12  -3 2382.27   32.72  -2
   1 -12   2 2382.27   32.72   1
   4 -12  -2 1346.80   41.29  -6
  -2 -12   4 1346.80   41.29  -5
  -2 -12  -2 1346.80   41.29  -4
  -4 -12   2 1346.80   41.29  -3
   2 -12  -4 1346.80   41.29  -2
   2 -12   2 1346.80   41.29   1
   4  12  -2 1324.84   37.83  -6
  -2  12   4 1324.84   37.83  -5
  -2  12  -2 1324.84   37.83  -4
  -4  12   2 1324.84   37.83  -3
   2  12  -4 1324.84   37.83  -2
   2  12   2 1324.84   37.83   1
   5 -12  -2 1008.45   30.12  -6
  -3 -12   5 1008.45   30.12  -5
  -2 -12  -3 1008.45   30.12  -4
  -5 -12   3 1008.45   30.12  -3
   2 -12  -5 1008.45   30.12  -2
   3 -12   2 1008.45   30.12   1
   5  12  -2  969.61   35.21  -6
  -3  12   5  969.61   35.21  -5
  -2  12  -3  969.61   35.21  -4
  -5  12   3  969.61   35.21  -3
   2  12  -5  969.61   35.21  -2
   3  12   2  969.61   35.21   1
   6 -12  -2  735.96   30.32  -6
  -4 -12   6  735.96   30.32  -5
  -2 -12  -4  735.96   30.32  -4
  -6 -12   4  735.96   30.32  -3
   2 -12  -6  735.96   30.32  -2
   4 -12   2  735.96   30.32   1
   7 -12  -2  378.57   29.97  -6
  -5 -12   7  378.57   29.97  -5
  -2 -12  -5  378.57   29.97  -4
  -7 -12   5  378.57   29.97  -3
   2 -12  -7  378.57   29.97  -2
   5 -12   2  378.57   29.97   1
  -4 -13  -2  677.27   40.65  -6
   6 -13  -4  677.27   40.65  -5
  -2 -13   6  677.27   40.65  -4
   4 -13  -6  677.27   40.65  -3
   2 -13   4  677.27   40.65  -2
  -6 -13   2  677.27   40.65   1
  -4  13  -2  678.02   24.15  -6
   6  13  -4  678.02   24.15  -5
  -2  13   6  678.02   24.15  -4
   4  13  -6  678.02   24.15  -3
   2  13   4  678.02   24.15  -2
  -6  13   2  678.02   24.15   1
  -3 -13  -2  710.09   29.26  -6
   5 -13  -3  710.09   29.26  -5
  -2 -13   5  710.09   29.26  -4
   3 -13  -5  710.09   29.26  -3
   2 -13   3  710.09   29.26  -2
  -5 -13   2  710.09   29.26   1
  -3  13  -2  914.35   24.73  -6
   5  13  -3  914.35   24.73  -5
  -2  13   5  914.35   24.73  -4
   3  13  -5  914.35   24.73  -3
   2  13   3  914.35   24.73  -2
  -5  13   2  914.35   24.73   1
  -2  13  -2  744.20   23.27  -6
   4  13  -2  744.20   23.27  -5
  -2  13   4  744.20   23.27  -4
   2  13  -4  744.20   23.27  -3
   2  13   2  744.20   23.27  -2
  -4  13   2  744.20   23.27   1
  -1 -13  -2  359.81   35.87  -6
   3 -13  -1  359.81   35.87  -5
  -2 -13   3  359.81   35.87  -4
   1 -13  -3  359.81   35.87  -3
   2 -13   1  359.81   35.87  -2
  -3 -13   2  359.81   35.87   1
  -1  13  -2  421.50   20.40  -6
   3  13  -1  421.50   20.40  -5
  -2  13   3  421.50   20.40  -4
   1  13  -3  421.50   20.40  -3
   2  13   1  421.50   20.40  -2
  -3  13   2  421.50   20.40   1
   0 -13  -2  357.21   36.99  -6
   2 -13   0  357.21   36.99  -5
  -2 -13   2  357.21   36.99  -4
   0 -13  -2  357.21   36.99  -3
   2 -13   0  357.21   36.99  -2
  -2 -13   2  357.21   36.99   1
   0  13  -2  344.31   31.24  -6
   2  13   0  344.31   31.24  -5
  -2  13   2  344.31   31.24  -4
   0  13  -2  344.31   31.24  -3
   2  13   0  344.31   31.24  -2
  -2  13   2  344.31   31.24   1
   1 -13  -2  213.10   33.92  -6
   1 -13   1  213.10   33.92  -5
  -2 -13   1  213.10   33.92  -4
  -1 -13  -1  213.10   33.92  -3
   2 -13  -1  213.10   33.92  -2
  -1 -13   2  213.10   33.92   1
   1  13  -2  175.22   30.92  -6
   1  13   1  175.22   30.92  -5
  -2  13   1  175.22   30.92  -4
  -1  13  -1  175.22   30.92  -3
   2  13  -1  175.22   30.92  -2
  -1  13   2  175.22   30.92   1
   2 -13  -2  329.82   18.64  -6
   0 -13   2  329.82   18.64  -5
  -2 -13   0  329.82   18.64  -4
  -2 -13   0  329.82   18.64  -3
   2 -13  -2  329.82   18.64  -2
   0 -13   2  329.82   18.64   1
   2  13  -2  332.81   33.93  -6
   0  13   2  332.81   33.93  -5
  -2  13   0  332.81   33.93  -4
  -2  13   0  332.81   33.93  -3
   2  13  -2  332.81   33.93  -2
   0  13   2  332.81   33.93   1
   3 -13  -2  450.31   24.70  -6
  -1 -13   3  450.31   24.70  -5
  -2 -13  -1  450.31   24.70  -4
  -3 -13   1  450.31   24.70  -3
   2 -13  -3  450.31   24.70  -2
   1 -13   2  450.31   24.70   1
   3  13  -2  432.37   33.08  -6
  -1  13   3  432.37   33.08  -5
  -2  13  -1  432.37   33.08  -4
  -3  13   1  432.37   33.08  -3
   2  13  -3  432.37   33.08  -2
   1  13   2  432.37   33.08   1
   4 -13  -2  646.77   27.71  -6
  -2 -13   4  646.77   27.71  -5
  -2 -13  -2  646.77   27.71  -4
  -4 -13   2  646.77   27.71  -3
   2 -13  -4  646.77   27.71  -2
   2 -13   2  646.77   27.71   1
   4  13  -2  696.09   35.49  -6
  -2  13   4  696.09   35.49  -5
  -2  13  -2  696.09   35.49  -4
  -4  13   2  696.09   35.49  -3
   2  13  -4  696.09   35.49  -2
   2  13   2  696.09   35.49   1
   5 -13  -2  846.43   30.36  -6
  -3 -13   5  846.43   30.36  -5
  -2 -13  -3  846.43   30.36  -4
  -5 -13   3  846.43   30.36  -3
   2 -13  -5  846.43   30.36  -2
   3 -13   2  846.43   30.36   1
   5  13  -2  922.52   39.50  -6
  -3  13   5  922.52   39.50  -5
  -2  13  -3  922.52   39.50  -4
  -5  13   3  922.52   39.50  -3
   2  13  -5  922.52   39.50  -2
   3  13   2  922.52   39.50   1
   6 -13  -2  790.47   31.57  -6
  -4 -13   6  790.47   31.57  -5
  -2 -13  -4  790.47   31.57  -4
  -6 -13   4  790.47   31.57  -3
   2 -13  -6  790.47   31.57  -2
   4 -13   2  790.47   31.57   1
  -3  14  -2  849.21   27.32  -6
   5  14  -3  849.21   27.32  -5
  -2  14   5  849.21   27.32  -4
   3  14  -5  849.21   27.32  -3
   2  14   3  849.21   27.32  -2
  -5  14   2  849.21   27.32   1
  -2  14  -2  812.09   23.01  -6
   4  14  -2  812.09   23.01  -5
  -2  14   4  812.09   23.01  -4
   2  14  -4  812.09   23.01  -3
   2  14   2  812.09   23.01  -2
  -4  14   2  812.09   23.01   1
  -1  14  -2 1215.13   25.87  -6
   3  14  -1 1215.13   25.87  -5
  -2  14   3 1215.13   25.87  -4
   1  14  -3 1215.13   25.87  -3
   2  14   1 1215.13   25.87  -2
  -3  14   2 1215.13   25.87   1
   0 -14  -2 1361.34   44.72  -6
   2 -14   0 1361.34   44.72  -5
  -2 -14   2 1361.34   44.72  -4
   0 -14  -2 1361.34   44.72  -3
   2 -14   0 1361.34   44.72  -2
  -2 -14   2 1361.34   44.72   1
   0  14  -2 1449.37   40.75  -6
   2  14   0 1449.37   40.75  -5
  -2  14   2 1449.37   40.75  -4
   0  14  -2 1449.37   40.75  -3
   2  14   0 1449.37   40.75  -2
  -2  14   2 1449.37   40.75   1
   1 -14  -2 1425.60   43.25  -6
   1 -14   1 1425.60   43.25  -5
  -2 -14   1 1425.60   43.25  -4
  -1 -14  -1 1425.60   43.25  -3
   2 -14  -1 1425.60   43.25  -2
  -1 -14   2 1425.60   43.25   1
   1  14  -2 1506.52   42.28  -6
   1  14   1 1506.52   42.28  -5
  -2  14   1 1506.52   42.28  -4
  -1  14  -1 1506.52   42.28  -3
   2  14  -1 1506.52   42.28  -2
  -1  14   2 1506.52   42.28   1
   2  14  -2 1501.92   43.41  -6
   0  14   2 1501.92   43.41  -5
  -2  14   0 1501.92   43.41  -4
  -2  14   0 1501.92   43.41  -3
   2  14  -2 1501.92   43.41  -2
   0  14   2 1501.92   43.41   1
   3 -14  -2 1188.93   44.88  -6
  -1 -14   3 1188.93   44.88  -5
  -2 -14  -1 1188.93   44.88  -4
  -3 -14   1 1188.93   44.88  -3
   2 -14  -3 1188.93   44.88  -2
   1 -14   2 1188.93   44.88   1
   3  14  -2 1207.69   41.03  -6
  -1  14   3 1207.69   41.03  -5
  -2  14  -1 1207.69   41.03  -4
  -3  14   1 1207.69   41.03  -3
   2  14  -3 1207.69   41.03  -2
   1  14   2 1207.69   41.03   1
   4 -14  -2  769.29   44.57  -6
  -2 -14   4  769.29   44.57  -5
  -2 -14  -2  769.29   44.57  -4
  -4 -14   2  769.29   44.57  -3
   2 -14  -4  769.29   44.57  -2
   2 -14   2  769.29   44.57   1
   4  14  -2  894.99   39.30  -6
  -2  14   4  894.99   39.30  -5
  -2  14  -2  894.99   39.30  -4
  -4  14   2  894.99   39.30  -3
   2  14  -4  894.99   39.30  -2
   2  14   2  894.99   39.30   1
   5 -14  -2  728.67   30.49  -6
  -3 -14   5  728.67   30.49  -5
  -2 -14  -3  728.67   30.49  -4
  -5 -14   3  728.67   30.49  -3
   2 -14  -5  728.67   30.49  -2
   3 -14   2  728.67   30.49   1
   6 -14  -2  488.68   42.44  -6
  -4 -14   6  488.68   42.44  -5
  -2 -14  -4  488.68   42.44  -4
  -6 -14   4  488.68   42.44  -3
   2 -14  -6  488.68   42.44  -2
   4 -14   2  488.68   42.44   1
  -3  15  -2  520.89   35.04  -6
   5  15  -3  520.89   35.04  -5
  -2  15   5  520.89   35.04  -4
   3  15  -5  520.89   35.04  -3
   2  15   3  520.89   35.04  -2
  -5  15   2  520.89   35.04   1
  -2  15  -2  436.27   31.11  -6
   4  15  -2  436.27   31.11  -5
  -2  15   4  436.27   31.11  -4
   2  15  -4  436.27   31.11  -3
   2  15   2  436.27   31.11  -2
  -4  15   2  436.27   31.11   1
  -1 -15  -2  175.39   38.05  -6
   3 -15  -1  175.39   38.05  -5
  -2 -15   3  175.39   38.05  -4
   1 -15  -3  175.39   38.05  -3
   2 -15   1  175.39   38.05  -2
  -3 -15   2  175.39   38.05   1
  -1  15  -2  223.32   32.09  -6
   3  15  -1  223.32   32.09  -5
  -2  15   3  223.32   32.09  -4
   1  15  -3  223.32   32.09  -3
   2  15   1  223.32   32.09  -2
  -3  15   2  223.32   32.09   1
   0 -15  -2  114.23   37.46  -6
   2 -15   0  114.23   37.46  -5
  -2 -15   2  114.23   37.46  -4
   0 -15  -2  114.23   37.46  -3
   2 -15   0  114.23   37.46  -2
  -2 -15   2  114.23   37.46   1
   0  15  -2   81.69   30.09  -6
   2  15   0   81.69   30.09  -5
  -2  15   2   81.69   30.09  -4
   0  15  -2   81.69   30.09  -3
   2  15   0   81.69   30.09  -2
  -2  15   2   81.69   30.09   1
   1 -15  -2   70.84   34.03  -6
   1 -15   1   70.84   34.03  -5
  -2 -15   1   70.84   34.03  -4
  -1 -15  -1   70.84   34.03  -3
   2 -15  -1   70.84   34.03  -2
  -1 -15   2   70.84   34.03   1
   1  15  -2   82.39   32.09  -6
   1  15   1   82.39   32.09  -5
  -2  15   1   82.39   32.09  -4
  -1  15  -1   82.39   32.09  -3
   2  15  -1   82.39   32.09  -2
  -1  15   2   82.39   32.09   1
   2  15  -2   75.00   31.68  -6
   0  15   2   75.00   31.68  -5
  -2  15   0   75.00   31.68  -4
  -2  15   0   75.00   31.68  -3
   2  15  -2   75.00   31.68  -2
   0  15   2   75.00   31.68   1
   3 -15  -2  262.14   40.15  -6
  -1 -15   3  262.14   40.15  -5
  -2 -15  -1  262.14   40.15  -4
  -3 -15   1  262.14   40.15  -3
   2 -15  -3  262.14   40.15  -2
   1 -15   2  262.14   40.15   1
   3  15  -2  260.42   33.39  -6
  -1  15   3  260.42   33.39  -5
  -2  15  -1  260.42   33.39  -4
  -3  15   1  260.42   33.39  -3
   2  15  -3  260.42   33.39  -2
   1  15   2  260.42   33.39   1
   4 -15  -2  486.35   43.28  -6
  -2 -15   4  486.35   43.28  -5
  -2 -15  -2  486.35   43.28  -4
  -4 -15   2  486.35   43.28  -3
   2 -15  -4  486.35   43.28  -2
   2 -15   2  486.35   43.28   1
   4  15  -2  478.83   35.85  -6
  -2  15   4  478.83   35.85  -5
  -2  15  -2  478.83   35.85  -4
  -4  15   2  478.83   35.85  -3
   2  15  -4  478.83   35.85  -2
   2  15   2  478.83   35.85   1
   5  15  -2  427.77   37.05  -6
  -3  15   5  427.77   37.05  -5
  -2  15  -3  427.77   37.05  -4
  -5  15   3  427.77   37.05  -3
   2  15  -5  427.77   37.05  -2
   3  15   2  427.77   37.05   1
  -6   0  -3  283.01   25.84  -6
   9   0  -6  283.01   25.84  -5
  -3   0   9  283.01   25.84  -4
   6   0  -9  283.01   25.84  -3
   3   0   6  283.01   25.84  -2
  -9   0   3  283.01   25.84   1
  -5   0  -3  475.63   22.47  -6
   8   0  -5  475.63   22.47  -5
  -3   0   8  475.63   22.47  -4
   5   0  -8  475.63   22.47  -3
   3   0   5  475.63   22.47  -2
  -8   0   3  475.63   22.47   1
  -4   0  -3  624.43   20.89  -6
   7   0  -4  624.43   20.89  -5
  -3   0   7  624.43   20.89  -4
   4   0  -7  624.43   20.89  -3
   3   0   4  624.43   20.89  -2
  -7   0   3  624.43   20.89   1
  -3   0  -3 1593.21   22.74  -6
   6   0  -3 1593.21   22.74  -5
  -3   0   6 1593.21   22.74  -4
   3   0  -6 1593.21   22.74  -3
   3   0   3 1593.21   22.74  -2
  -6   0   3 1593.21   22.74   1
  -2   0  -3 3681.59   36.56  -6
   5   0  -2 3681.59   36.56  -5
  -3   0   5 3681.59   36.56  -4
   2   0  -5 3681.59   36.56  -3
   3   0   2 3681.59   36.56  -2
  -5   0   3 3681.59   36.56   1
  -1   0  -3 3890.32   22.06  -6
   4   0  -1 3890.32   22.06  -5
  -3   0   4 3890.32   22.06  -4
   1   0  -4 3890.32   22.06  -3
   3   0   1 3890.32   22.06  -2
  -4   0   3 3890.32   22.06   1
   0   0  -3 4436.06   20.76  -6
   3   0   0 4436.06   20.76  -5
  -3   0   3 4436.06   20.76  -4
   0   0  -3 4436.06   20.76  -3
   3   0   0 4436.06   20.76  -2
  -3   0   3 4436.06   20.76   1
   1   0  -3 4487.77   11.82  -6
   2   0   1 4487.77   11.82  -5
  -3   0   2 4487.77   11.82  -4
  -1   0  -2 4487.77   11.82  -3
   3   0  -1 4487.77   11.82  -2
  -2   0   3 4487.77   11.82   1
   2   0  -3 4079.12   16.74  -6
   1   0   2 4079.12   16.74  -5
  -3   0   1 4079.12   16.74  -4
  -2   0  -1 4079.12   16.74  -3
   3   0  -2 4079.12   16.74  -2
  -1   0   3 4079.12   16.74   1
   3   0  -3 4276.49   27.94  -6
   0   0   3 4276.49   27.94  -5
  -3   0   0 4276.49   27.94  -4
  -3   0   0 4276.49   27.94  -3
   3   0  -3 4276.49   27.94  -2
   0   0   3 4276.49   27.94   1
   4   0  -3 3805.89   21.30  -6
  -1   0   4 3805.89   21.30  -5
  -3   0  -1 3805.89   21.30  -4
  -4   0   1 3805.89   21.30  -3
   3   0  -4 3805.89   21.30  -2
   1   0   3 3805.89   21.30   1
   5   0  -3 3508.85   20.45  -6
  -2   0   5 3508.85   20.45  -5
  -3   0  -2 3508.85   20.45  -4
  -5   0   2 3508.85   20.45  -3
   3   0  -5 3508.85   20.45  -2
   2   0   3 3508.85   20.45   1
   6   0  -3 1503.63   24.31  -6
  -3   0   6 1503.63   24.31  -5
  -3   0  -3 1503.63   24.31  -4
  -6   0   3 1503.63   24.31  -3
   3   0  -6 1503.63   24.31  -2
   3   0   3 1503.63   24.31   1
   7   0  -3  694.58   24.96  -6
  -4   0   7  694.58   24.96  -5
  -3   0  -4  694.58   24.96  -4
  -7   0   4  694.58   24.96  -3
   3   0  -7  694.58   24.96  -2
   4   0   3  694.58   24.96   1
   8   0  -3  518.44   26.69  -6
  -5   0   8  518.44   26.69  -5
  -3   0  -5  518.44   26.69  -4
  -8   0   5  518.44   26.69  -3
   3   0  -8  518.44   26.69  -2
   5   0   3  518.44   26.69   1
   9   0  -3  348.11   27.59  -6
  -6   0   9  348.11   27.59  -5
  -3   0  -6  348.11   27.59  -4
  -9   0   6  348.11   27.59  -3
   3   0  -9  348.11   27.59  -2
   6   0   3  348.11   27.59   1
  10   0  -3  147.45   22.07  -6
  -7   0  10  147.45   22.07  -5
  -3   0  -7  147.45   22.07  -4
 -10   0   7  147.45   22.07  -3
   3   0 -10  147.45   22.07  -2
   7   0   3  147.45   22.07   1
  -6  -1  -3  389.51   25.43  -6
   9  -1  -6  389.51   25.43  -5
  -3  -1   9  389.51   25.43  -4
   6  -1  -9  389.51   25.43  -3
   3  -1   6  389.51   25.43  -2
  -9  -1   3  389.51   25.43   1
  -6   1  -3  368.74   26.43  -6
   9   1  -6  368.74   26.43  -5
  -3   1   9  368.74   26.43  -4
   6   1  -9  368.74   26.43  -3
   3   1   6  368.74   26.43  -2
  -9   1   3  368.74   26.43   1
  -5  -1  -3  694.19   23.29  -6
   8  -1  -5  694.19   23.29  -5
  -3  -1   8  694.19   23.29  -4
   5  -1  -8  694.19   23.29  -3
   3  -1   5  694.19   23.29  -2
  -8  -1   3  694.19   23.29   1
  -5   1  -3  650.71   23.93  -6
   8   1  -5  650.71   23.93  -5
  -3   1   8  650.71   23.93  -4
   5   1  -8  650.71   23.93  -3
   3   1   5  650.71   23.93  -2
  -8   1   3  650.71   23.93   1
  -4  -1  -3  971.31   24.24  -6
   7  -1  -4  971.31   24.24  -5
  -3  -1   7  971.31   24.24  -4
   4  -1  -7  971.31   24.24  -3
   3  -1   4  971.31   24.24  -2
  -7  -1   3  971.31   24.24   1
  -4   1  -3  903.70   22.35  -6
   7   1  -4  903.70   22.35  -5
  -3   1   7  903.70   22.35  -4
   4   1  -7  903.70   22.35  -3
   3   1   4  903.70   22.35  -2
  -7   1   3  903.70   22.35   1
  -3   1  -3 1669.47   13.65  -6
   6   1  -3 1669.47   13.65  -5
  -3   1   6 1669.47   13.65  -4
   3   1  -6 1669.47   13.65  -3
   3   1   3 1669.47   13.65  -2
  -6   1   3 1669.47   13.65   1
  -2  -1  -3 2412.71   34.81  -6
   5  -1  -2 2412.71   34.81  -5
  -3  -1   5 2412.71   34.81  -4
   2  -1  -5 2412.71   34.81  -3
   3  -1   2 2412.71   34.81  -2
  -5  -1   3 2412.71   34.81   1
  -2   1  -3 2201.64   31.88  -6
   5   1  -2 2201.64   31.88  -5
  -3   1   5 2201.64   31.88  -4
   2   1  -5 2201.64   31.88  -3
   3   1   2 2201.64   31.88  -2
  -5   1   3 2201.64   31.88   1
  -1  -1  -3 1729.74   17.38  -6
   4  -1  -1 1729.74   17.38  -5
  -3  -1   4 1729.74   17.38  -4
   1  -1  -4 1729.74   17.38  -3
   3  -1   1 1729.74   17.38  -2
  -4  -1   3 1729.74   17.38   1
  -1   1  -3 2014.58   17.88  -6
   4   1  -1 2014.58   17.88  -5
  -3   1   4 2014.58   17.88  -4
   1   1  -4 2014.58   17.88  -3
   3   1   1 2014.58   17.88  -2
  -4   1   3 2014.58   17.88   1
   0  -1  -3 1277.90    8.72  -6
   3  -1   0 1277.90    8.72  -5
  -3  -1   3 1277.90    8.72  -4
   0  -1  -3 1277.90    8.72  -3
   3  -1   0 1277.90    8.72  -2
  -3  -1   3 1277.90    8.72   1
   0   1  -3 1356.55    9.66  -6
   3   1   0 1356.55    9.66  -5
  -3   1   3 1356.55    9.66  -4
   0   1  -3 1356.55    9.66  -3
   3   1   0 1356.55    9.66  -2
  -3   1   3 1356.55    9.66   1
   1  -1  -3 1071.32    7.24  -6
   2  -1   1 1071.32    7.24  -5
  -3  -1   2 1071.32    7.24  -4
  -1  -1  -2 1071.32    7.24  -3
   3  -1  -1 1071.32    7.24  -2
  -2  -1   3 1071.32    7.24   1
   1   1  -3 1112.73    7.37  -6
   2   1   1 1112.73    7.37  -5
  -3   1   2 1112.73    7.37  -4
  -1   1  -2 1112.73    7.37  -3
   3   1  -1 1112.73    7.37  -2
  -2   1   3 1112.73    7.37   1
   2  -1  -3 1090.25   11.62  -6
   1  -1   2 1090.25   11.62  -5
  -3  -1   1 1090.25   11.62  -4
  -2  -1  -1 1090.25   11.62  -3
   3  -1  -2 1090.25   11.62  -2
  -1  -1   3 1090.25   11.62   1
   2   1  -3 1191.46   10.19  -6
   1   1   2 1191.46   10.19  -5
  -3   1   1 1191.46   10.19  -4
  -2   1  -1 1191.46   10.19  -3
   3   1  -2 1191.46   10.19  -2
  -1   1   3 1191.46   10.19   1
   3  -1  -3 1405.70   16.48  -6
   0  -1   3 1405.70   16.48  -5
  -3  -1   0 1405.70   16.48  -4
  -3  -1   0 1405.70   16.48  -3
   3  -1  -3 1405.70   16.48  -2
   0  -1   3 1405.70   16.48   1
   3   1  -3 1340.80   16.75  -6
   0   1   3 1340.80   16.75  -5
  -3   1   0 1340.80   16.75  -4
  -3   1   0 1340.80   16.75  -3
   3   1  -3 1340.80   16.75  -2
   0   1   3 1340.80   16.75   1
   4  -1  -3 1583.21   26.61  -6
  -1  -1   4 1583.21   26.61  -5
  -3  -1  -1 1583.21   26.61  -4
  -4  -1   1 1583.21   26.61  -3
   3  -1  -4 1583.21   26.61  -2
   1  -1   3 1583.21   26.61   1
   4   1  -3 1729.84   16.41  -6
  -1   1   4 1729.84   16.41  -5
  -3   1  -1 1729.84   16.41  -4
  -4   1   1 1729.84   16.41  -3
   3   1  -4 1729.84   16.41  -2
   1   1   3 1729.84   16.41   1
   5   1  -3 1878.88   15.06  -6
  -2   1   5 1878.88   15.06  -5
  -3   1  -2 1878.88   15.06  -4
  -5   1   2 1878.88   15.06  -3
   3   1  -5 1878.88   15.06  -2
   2   1   3 1878.88   15.06   1
   6  -1  -3 1799.85   25.48  -6
  -3  -1   6 1799.85   25.48  -5
  -3  -1  -3 1799.85   25.48  -4
  -6  -1   3 1799.85   25.48  -3
   3  -1  -6 1799.85   25.48  -2
   3  -1   3 1799.85   25.48   1
   6   1  -3 2049.65   25.02  -6
  -3   1   6 2049.65   25.02  -5
  -3   1  -3 2049.65   25.02  -4
  -6   1   3 2049.65   25.02  -3
   3   1  -6 2049.65   25.02  -2
   3   1   3 2049.65   25.02   1
   7  -1  -3 1044.25   26.12  -6
  -4  -1   7 1044.25   26.12  -5
  -3  -1  -4 1044.25   26.12  -4
  -7  -1   4 1044.25   26.12  -3
   3  -1  -7 1044.25   26.12  -2
   4  -1   3 1044.25   26.12   1
   7   1  -3 1207.72   25.91  -6
  -4   1   7 1207.72   25.91  -5
  -3   1  -4 1207.72   25.91  -4
  -7   1   4 1207.72   25.91  -3
   3   1  -7 1207.72   25.91  -2
   4   1   3 1207.72   25.91   1
   8  -1  -3 1112.03   30.00  -6
  -5  -1   8 1112.03   30.00  -5
  -3  -1  -5 1112.03   30.00  -4
  -8  -1   5 1112.03   30.00  -3
   3  -1  -8 1112.03   30.00  -2
   5  -1   3 1112.03   30.00   1
   8   1  -3 1198.05   29.28  -6
  -5   1   8 1198.05   29.28  -5
  -3   1  -5 1198.05   29.28  -4
  -8   1   5 1198.05   29.28  -3
   3   1  -8 1198.05   29.28  -2
   5   1   3 1198.05   29.28   1
   9  -1  -3 1032.16   31.21  -6
  -6  -1   9 1032.16   31.21  -5
  -3  -1  -6 1032.16   31.21  -4
  -9  -1   6 1032.16   31.21  -3
   3  -1  -9 1032.16   31.21  -2
   6  -1   3 1032.16   31.21   1
   9   1  -3 1054.95   30.34  -6
  -6   1   9 1054.95   30.34  -5
  -3   1  -6 1054.95   30.34  -4
  -9   1   6 1054.95   30.34  -3
   3   1  -9 1054.95   30.34  -2
   6   1   3 1054.95   30.34   1
  10  -1  -3  501.09   38.59  -6
  -7  -1  10  501.09   38.59  -5
  -3  -1  -7  501.09   38.59  -4
 -10  -1   7  501.09   38.59  -3
   3  -1 -10  501.09   38.59  -2
   7  -1   3  501.09   38.59   1
  10   1  -3  523.41   38.14  -6
  -7   1  10  523.41   38.14  -5
  -3   1  -7  523.41   38.14  -4
 -10   1   7  523.41   38.14  -3
   3   1 -10  523.41   38.14  -2
   7   1   3  523.41   38.14   1
  -6  -2  -3  206.48   33.02  -6
   9  -2  -6  206.48   33.02  -5
  -3  -2   9  206.48   33.02  -4
   6  -2  -9  206.48   33.02  -3
   3  -2   6  206.48   33.02  -2
  -9  -2   3  206.48   33.02   1
  -6   2  -3  282.31   35.19  -6
   9   2  -6  282.31   35.19  -5
  -3   2   9  282.31   35.19  -4
   6   2  -9  282.31   35.19  -3
   3   2   6  282.31   35.19  -2
  -9   2   3  282.31   35.19   1
  -5  -2  -3  590.20   36.79  -6
   8  -2  -5  590.20   36.79  -5
  -3  -2   8  590.20   36.79  -4
   5  -2  -8  590.20   36.79  -3
   3  -2   5  590.20   36.79  -2
  -8  -2   3  590.20   36.79   1
  -5   2  -3  495.16   33.41  -6
   8   2  -5  495.16   33.41  -5
  -3   2   8  495.16   33.41  -4
   5   2  -8  495.16   33.41  -3
   3   2   5  495.16   33.41  -2
  -8   2   3  495.16   33.41   1
  -4  -2  -3  835.45   34.46  -6
   7  -2  -4  835.45   34.46  -5
  -3  -2   7  835.45   34.46  -4
   4  -2  -7  835.45   34.46  -3
   3  -2   4  835.45   34.46  -2
  -7  -2   3  835.45   34.46   1
  -4   2  -3  742.27   30.46  -6
   7   2  -4  742.27   30.46  -5
  -3   2   7  742.27   30.46  -4
   4   2  -7  742.27   30.46  -3
   3   2   4  742.27   30.46  -2
  -7   2   3  742.27   30.46   1
  -3   2  -3 1172.31   14.55  -6
   6   2  -3 1172.31   14.55  -5
  -3   2   6 1172.31   14.55  -4
   3   2  -6 1172.31   14.55  -3
   3   2   3 1172.31   14.55  -2
  -6   2   3 1172.31   14.55   1
  -2   2  -3 3331.52   35.46  -6
   5   2  -2 3331.52   35.46  -5
  -3   2   5 3331.52   35.46  -4
   2   2  -5 3331.52   35.46  -3
   3   2   2 3331.52   35.46  -2
  -5   2   3 3331.52   35.46   1
  -1  -2  -3 3502.19   32.70  -6
   4  -2  -1 3502.19   32.70  -5
  -3  -2   4 3502.19   32.70  -4
   1  -2  -4 3502.19   32.70  -3
   3  -2   1 3502.19   32.70  -2
  -4  -2   3 3502.19   32.70   1
  -1   2  -3 3610.32   32.00  -6
   4   2  -1 3610.32   32.00  -5
  -3   2   4 3610.32   32.00  -4
   1   2  -4 3610.32   32.00  -3
   3   2   1 3610.32   32.00  -2
  -4   2   3 3610.32   32.00   1
   0  -2  -3 2787.54   24.73  -6
   3  -2   0 2787.54   24.73  -5
  -3  -2   3 2787.54   24.73  -4
   0  -2  -3 2787.54   24.73  -3
   3  -2   0 2787.54   24.73  -2
  -3  -2   3 2787.54   24.73   1
   0   2  -3 3129.28   13.18  -6
   3   2   0 3129.28   13.18  -5
  -3   2   3 3129.28   13.18  -4
   0   2  -3 3129.28   13.18  -3
   3   2   0 3129.28   13.18  -2
  -3   2   3 3129.28   13.18   1
   1  -2  -3 3569.44   11.72  -6
   2  -2   1 3569.44   11.72  -5
  -3  -2   2 3569.44   11.72  -4
  -1  -2  -2 3569.44   11.72  -3
   3  -2  -1 3569.44   11.72  -2
  -2  -2   3 3569.44   11.72   1
   1   2  -3 3784.29   15.85  -6
   2   2   1 3784.29   15.85  -5
  -3   2   2 3784.29   15.85  -4
  -1   2  -2 3784.29   15.85  -3
   3   2  -1 3784.29   15.85  -2
  -2   2   3 3784.29   15.85   1
   2  -2  -3 3714.35   18.90  -6
   1  -2   2 3714.35   18.90  -5
  -3  -2   1 3714.35   18.90  -4
  -2  -2  -1 3714.35   18.90  -3
   3  -2  -2 3714.35   18.90  -2
  -1  -2   3 3714.35   18.90   1
   2   2  -3 3665.41   14.23  -6
   1   2   2 3665.41   14.23  -5
  -3   2   1 3665.41   14.23  -4
  -2   2  -1 3665.41   14.23  -3
   3   2  -2 3665.41   14.23  -2
  -1   2   3 3665.41   14.23   1
   3  -2  -3 2484.96   21.70  -6
   0  -2   3 2484.96   21.70  -5
  -3  -2   0 2484.96   21.70  -4
  -3  -2   0 2484.96   21.70  -3
   3  -2  -3 2484.96   21.70  -2
   0  -2   3 2484.96   21.70   1
   3   2  -3 2490.46   24.99  -6
   0   2   3 2490.46   24.99  -5
  -3   2   0 2490.46   24.99  -4
  -3   2   0 2490.46   24.99  -3
   3   2  -3 2490.46   24.99  -2
   0   2   3 2490.46   24.99   1
   4  -2  -3 3181.87   22.86  -6
  -1  -2   4 3181.87   22.86  -5
  -3  -2  -1 3181.87   22.86  -4
  -4  -2   1 3181.87   22.86  -3
   3  -2  -4 3181.87   22.86  -2
   1  -2   3 3181.87   22.86   1
   5  -2  -3 2948.62   25.37  -6
  -2  -2   5 2948.62   25.37  -5
  -3  -2  -2 2948.62   25.37  -4
  -5  -2   2 2948.62   25.37  -3
   3  -2  -5 2948.62   25.37  -2
   2  -2   3 2948.62   25.37   1
   5   2  -3 3015.49   36.10  -6
  -2   2   5 3015.49   36.10  -5
  -3   2  -2 3015.49   36.10  -4
  -5   2   2 3015.49   36.10  -3
   3   2  -5 3015.49   36.10  -2
   2   2   3 3015.49   36.10   1
   6  -2  -3 1088.68   23.64  -6
  -3  -2   6 1088.68   23.64  -5
  -3  -2  -3 1088.68   23.64  -4
  -6  -2   3 1088.68   23.64  -3
   3  -2  -6 1088.68   23.64  -2
   3  -2   3 1088.68   23.64   1
   6   2  -3 1074.10   21.27  -6
  -3   2   6 1074.10   21.27  -5
  -3   2  -3 1074.10   21.27  -4
  -6   2   3 1074.10   21.27  -3
   3   2  -6 1074.10   21.27  -2
   3   2   3 1074.10   21.27   1
   7  -2  -3  670.34   24.24  -6
  -4  -2   7  670.34   24.24  -5
  -3  -2  -4  670.34   24.24  -4
  -7  -2   4  670.34   24.24  -3
   3  -2  -7  670.34   24.24  -2
   4  -2   3  670.34   24.24   1
   7   2  -3  658.50   16.11  -6
  -4   2   7  658.50   16.11  -5
  -3   2  -4  658.50   16.11  -4
  -7   2   4  658.50   16.11  -3
   3   2  -7  658.50   16.11  -2
   4   2   3  658.50   16.11   1
   8  -2  -3  610.71   27.68  -6
  -5  -2   8  610.71   27.68  -5
  -3  -2  -5  610.71   27.68  -4
  -8  -2   5  610.71   27.68  -3
   3  -2  -8  610.71   27.68  -2
   5  -2   3  610.71   27.68   1
   8   2  -3  527.49   17.92  -6
  -5   2   8  527.49   17.92  -5
  -3   2  -5  527.49   17.92  -4
  -8   2   5  527.49   17.92  -3
   3   2  -8  527.49   17.92  -2
   5   2   3  527.49   17.92   1
   9  -2  -3  328.79   28.63  -6
  -6  -2   9  328.79   28.63  -5
  -3  -2  -6  328.79   28.63  -4
  -9  -2   6  328.79   28.63  -3
   3  -2  -9  328.79   28.63  -2
   6  -2   3  328.79   28.63   1
   9   2  -3  311.27   25.75  -6
  -6   2   9  311.27   25.75  -5
  -3   2  -6  311.27   25.75  -4
  -9   2   6  311.27   25.75  -3
   3   2  -9  311.27   25.75  -2
   6   2   3  311.27   25.75   1
  10   2  -3  134.08   21.99  -6
  -7   2  10  134.08   21.99  -5
  -3   2  -7  134.08   21.99  -4
 -10   2   7  134.08   21.99  -3
   3   2 -10  134.08   21.99  -2
   7   2   3  134.08   21.99   1
  -6  -3  -3   72.10   35.84  -6
   9  -3  -6   72.10   35.84  -5
  -3  -3   9   72.10   35.84  -4
   6  -3  -9   72.10   35.84  -3
   3  -3   6   72.10   35.84  -2
  -9  -3   3   72.10   35.84   1
  -6   3  -3  113.13   30.76  -6
   9   3  -6  113.13   30.76  -5
  -3   3   9  113.13   30.76  -4
   6   3  -9  113.13   30.76  -3
   3   3   6  113.13   30.76  -2
  -9   3   3  113.13   30.76   1
  -5  -3  -3  298.35   23.64  -6
   8  -3  -5  298.35   23.64  -5
  -3  -3   8  298.35   23.64  -4
   5  -3  -8  298.35   23.64  -3
   3  -3   5  298.35   23.64  -2
  -8  -3   3  298.35   23.64   1
  -5   3  -3  250.72   28.56  -6
   8   3  -5  250.72   28.56  -5
  -3   3   8  250.72   28.56  -4
   5   3  -8  250.72   28.56  -3
   3   3   5  250.72   28.56  -2
  -8   3   3  250.72   28.56   1
  -4  -3  -3  665.60   23.80  -6
   7  -3  -4  665.60   23.80  -5
  -3  -3   7  665.60   23.80  -4
   4  -3  -7  665.60   23.80  -3
   3  -3   4  665.60   23.80  -2
  -7  -3   3  665.60   23.80   1
  -4   3  -3  665.77   28.42  -6
   7   3  -4  665.77   28.42  -5
  -3   3   7  665.77   28.42  -4
   4   3  -7  665.77   28.42  -3
   3   3   4  665.77   28.42  -2
  -7   3   3  665.77   28.42   1
  -3  -3  -3 1127.26   20.36  -6
   6  -3  -3 1127.26   20.36  -5
  -3  -3   6 1127.26   20.36  -4
   3  -3  -6 1127.26   20.36  -3
   3  -3   3 1127.26   20.36  -2
  -6  -3   3 1127.26   20.36   1
  -3   3  -3 1138.44   10.24  -6
   6   3  -3 1138.44   10.24  -5
  -3   3   6 1138.44   10.24  -4
   3   3  -6 1138.44   10.24  -3
   3   3   3 1138.44   10.24  -2
  -6   3   3 1138.44   10.24   1
  -2  -3  -3 1763.74   33.07  -6
   5  -3  -2 1763.74   33.07  -5
  -3  -3   5 1763.74   33.07  -4
   2  -3  -5 1763.74   33.07  -3
   3  -3   2 1763.74   33.07  -2
  -5  -3   3 1763.74   33.07   1
  -2   3  -3 1803.77   18.30  -6
   5   3  -2 1803.77   18.30  -5
  -3   3   5 1803.77   18.30  -4
   2   3  -5 1803.77   18.30  -3
   3   3   2 1803.77   18.30  -2
  -5   3   3 1803.77   18.30   1
  -1   3  -3 1072.50   13.46  -6
   4   3  -1 1072.50   13.46  -5
  -3   3   4 1072.50   13.46  -4
   1   3  -4 1072.50   13.46  -3
   3   3   1 1072.50   13.46  -2
  -4   3   3 1072.50   13.46   1
   0   3  -3 1036.20   11.04  -6
   3   3   0 1036.20   11.04  -5
  -3   3   3 1036.20   11.04  -4
   0   3  -3 1036.20   11.04  -3
   3   3   0 1036.20   11.04  -2
  -3   3   3 1036.20   11.04   1
   1  -3  -3  791.50    7.09  -6
   2  -3   1  791.50    7.09  -5
  -3  -3   2  791.50    7.09  -4
  -1  -3  -2  791.50    7.09  -3
   3  -3  -1  791.50    7.09  -2
  -2  -3   3  791.50    7.09   1
   2  -3  -3  827.54   10.47  -6
   1  -3   2  827.54   10.47  -5
  -3  -3   1  827.54   10.47  -4
  -2  -3  -1  827.54   10.47  -3
   3  -3  -2  827.54   10.47  -2
  -1  -3   3  827.54   10.47   1
   2   3  -3  832.76    7.09  -6
   1   3   2  832.76    7.09  -5
  -3   3   1  832.76    7.09  -4
  -2   3  -1  832.76    7.09  -3
   3   3  -2  832.76    7.09  -2
  -1   3   3  832.76    7.09   1
   3  -3  -3  972.47    9.70  -6
   0  -3   3  972.47    9.70  -5
  -3  -3   0  972.47    9.70  -4
  -3  -3   0  972.47    9.70  -3
   3  -3  -3  972.47    9.70  -2
   0  -3   3  972.47    9.70   1
   3   3  -3  906.41   19.91  -6
   0   3   3  906.41   19.91  -5
  -3   3   0  906.41   19.91  -4
  -3   3   0  906.41   19.91  -3
   3   3  -3  906.41   19.91  -2
   0   3   3  906.41   19.91   1
   4  -3  -3 1106.23   10.52  -6
  -1  -3   4 1106.23   10.52  -5
  -3  -3  -1 1106.23   10.52  -4
  -4  -3   1 1106.23   10.52  -3
   3  -3  -4 1106.23   10.52  -2
   1  -3   3 1106.23   10.52   1
   4   3  -3 1035.92   10.57  -6
  -1   3   4 1035.92   10.57  -5
  -3   3  -1 1035.92   10.57  -4
  -4   3   1 1035.92   10.57  -3
   3   3  -4 1035.92   10.57  -2
   1   3   3 1035.92   10.57   1
   5  -3  -3 1597.39   19.49  -6
  -2  -3   5 1597.39   19.49  -5
  -3  -3  -2 1597.39   19.49  -4
  -5  -3   2 1597.39   19.49  -3
   3  -3  -5 1597.39   19.49  -2
   2  -3   3 1597.39   19.49   1
   5   3  -3 1552.12   14.37  -6
  -2   3   5 1552.12   14.37  -5
  -3   3  -2 1552.12   14.37  -4
  -5   3   2 1552.12   14.37  -3
   3   3  -5 1552.12   14.37  -2
   2   3   3 1552.12   14.37   1
   6  -3  -3 1196.25   24.13  -6
  -3  -3   6 1196.25   24.13  -5
  -3  -3  -3 1196.25   24.13  -4
  -6  -3   3 1196.25   24.13  -3
   3  -3  -6 1196.25   24.13  -2
   3  -3   3 1196.25   24.13   1
   6   3  -3 1158.76   32.88  -6
  -3   3   6 1158.76   32.88  -5
  -3   3  -3 1158.76   32.88  -4
  -6   3   3 1158.76   32.88  -3
   3   3  -6 1158.76   32.88  -2
   3   3   3 1158.76   32.88   1
   7  -3  -3  819.37   25.10  -6
  -4  -3   7  819.37   25.10  -5
  -3  -3  -4  819.37   25.10  -4
  -7  -3   4  819.37   25.10  -3
   3  -3  -7  819.37   25.10  -2
   4  -3   3  819.37   25.10   1
   7   3  -3  957.37   17.07  -6
  -4   3   7  957.37   17.07  -5
  -3   3  -4  957.37   17.07  -4
  -7   3   4  957.37   17.07  -3
   3   3  -7  957.37   17.07  -2
   4   3   3  957.37   17.07   1
   8  -3  -3  772.45   29.00  -6
  -5  -3   8  772.45   29.00  -5
  -3  -3  -5  772.45   29.00  -4
  -8  -3   5  772.45   29.00  -3
   3  -3  -8  772.45   29.00  -2
   5  -3   3  772.45   29.00   1
   8   3  -3  824.31   18.97  -6
  -5   3   8  824.31   18.97  -5
  -3   3  -5  824.31   18.97  -4
  -8   3   5  824.31   18.97  -3
   3   3  -8  824.31   18.97  -2
   5   3   3  824.31   18.97   1
   9  -3  -3  898.69   32.03  -6
  -6  -3   9  898.69   32.03  -5
  -3  -3  -6  898.69   32.03  -4
  -9  -3   6  898.69   32.03  -3
   3  -3  -9  898.69   32.03  -2
   6  -3   3  898.69   32.03   1
   9   3  -3  866.48   34.18  -6
  -6   3   9  866.48   34.18  -5
  -3   3  -6  866.48   34.18  -4
  -9   3   6  866.48   34.18  -3
   3   3  -9  866.48   34.18  -2
   6   3   3  866.48   34.18   1
  10   3  -3  424.76   25.09  -6
  -7   3  10  424.76   25.09  -5
  -3   3  -7  424.76   25.09  -4
 -10   3   7  424.76   25.09  -3
   3   3 -10  424.76   25.09  -2
   7   3   3  424.76   25.09   1
  -6  -4  -3  430.92   42.24  -6
   9  -4  -6  430.92   42.24  -5
  -3  -4   9  430.92   42.24  -4
   6  -4  -9  430.92   42.24  -3
   3  -4   6  430.92   42.24  -2
  -9  -4   3  430.92   42.24   1
  -6   4  -3  339.34   32.94  -6
   9   4  -6  339.34   32.94  -5
  -3   4   9  339.34   32.94  -4
   6   4  -9  339.34   32.94  -3
   3   4   6  339.34   32.94  -2
  -9   4   3  339.34   32.94   1
  -5  -4  -3  433.76   25.46  -6
   8  -4  -5  433.76   25.46  -5
  -3  -4   8  433.76   25.46  -4
   5  -4  -8  433.76   25.46  -3
   3  -4   5  433.76   25.46  -2
  -8  -4   3  433.76   25.46   1
  -5   4  -3  454.95   31.35  -6
   8   4  -5  454.95   31.35  -5
  -3   4   8  454.95   31.35  -4
   5   4  -8  454.95   31.35  -3
   3   4   5  454.95   31.35  -2
  -8   4   3  454.95   31.35   1
  -4  -4  -3  553.76   25.52  -6
   7  -4  -4  553.76   25.52  -5
  -3  -4   7  553.76   25.52  -4
   4  -4  -7  553.76   25.52  -3
   3  -4   4  553.76   25.52  -2
  -7  -4   3  553.76   25.52   1
  -4   4  -3  609.43   29.51  -6
   7   4  -4  609.43   29.51  -5
  -3   4   7  609.43   29.51  -4
   4   4  -7  609.43   29.51  -3
   3   4   4  609.43   29.51  -2
  -7   4   3  609.43   29.51   1
  -3  -4  -3 1148.94   28.59  -6
   6  -4  -3 1148.94   28.59  -5
  -3  -4   6 1148.94   28.59  -4
   3  -4  -6 1148.94   28.59  -3
   3  -4   3 1148.94   28.59  -2
  -6  -4   3 1148.94   28.59   1
  -3   4  -3 1172.90   29.96  -6
   6   4  -3 1172.90   29.96  -5
  -3   4   6 1172.90   29.96  -4
   3   4  -6 1172.90   29.96  -3
   3   4   3 1172.90   29.96  -2
  -6   4   3 1172.90   29.96   1
  -2  -4  -3 1910.91   11.99  -6
   5  -4  -2 1910.91   11.99  -5
  -3  -4   5 1910.91   11.99  -4
   2  -4  -5 1910.91   11.99  -3
   3  -4   2 1910.91   11.99  -2
  -5  -4   3 1910.91   11.99   1
  -2   4  -3 1919.06   21.78  -6
   5   4  -2 1919.06   21.78  -5
  -3   4   5 1919.06   21.78  -4
   2   4  -5 1919.06   21.78  -3
   3   4   2 1919.06   21.78  -2
  -5   4   3 1919.06   21.78   1
  -1  -4  -3 2702.21   20.88  -6
   4  -4  -1 2702.21   20.88  -5
  -3  -4   4 2702.21   20.88  -4
   1  -4  -4 2702.21   20.88  -3
   3  -4   1 2702.21   20.88  -2
  -4  -4   3 2702.21   20.88   1
  -1   4  -3 2751.51   32.58  -6
   4   4  -1 2751.51   32.58  -5
  -3   4   4 2751.51   32.58  -4
   1   4  -4 2751.51   32.58  -3
   3   4   1 2751.51   32.58  -2
  -4   4   3 2751.51   32.58   1
   0   4  -3 2625.90   19.17  -6
   3   4   0 2625.90   19.17  -5
  -3   4   3 2625.90   19.17  -4
   0   4  -3 2625.90   19.17  -3
   3   4   0 2625.90   19.17  -2
  -3   4   3 2625.90   19.17   1
   1  -4  -3 3440.89   22.04  -6
   2  -4   1 3440.89   22.04  -5
  -3  -4   2 3440.89   22.04  -4
  -1  -4  -2 3440.89   22.04  -3
   3  -4  -1 3440.89   22.04  -2
  -2  -4   3 3440.89   22.04   1
   2  -4  -3 3518.79   23.30  -6
   1  -4   2 3518.79   23.30  -5
  -3  -4   1 3518.79   23.30  -4
  -2  -4  -1 3518.79   23.30  -3
   3  -4  -2 3518.79   23.30  -2
  -1  -4   3 3518.79   23.30   1
   2   4  -3 3167.85   17.11  -6
   1   4   2 3167.85   17.11  -5
  -3   4   1 3167.85   17.11  -4
  -2   4  -1 3167.85   17.11  -3
   3   4  -2 3167.85   17.11  -2
  -1   4   3 3167.85   17.11   1
   3  -4  -3 3030.60   10.64  -6
   0  -4   3 3030.60   10.64  -5
  -3  -4   0 3030.60   10.64  -4
  -3  -4   0 3030.60   10.64  -3
   3  -4  -3 3030.60   10.64  -2
   0  -4   3 3030.60   10.64   1
   3   4  -3 2905.45   27.79  -6
   0   4   3 2905.45   27.79  -5
  -3   4   0 2905.45   27.79  -4
  -3   4   0 2905.45   27.79  -3
   3   4  -3 2905.45   27.79  -2
   0   4   3 2905.45   27.79   1
   4  -4  -3 2406.60   13.98  -6
  -1  -4   4 2406.60   13.98  -5
  -3  -4  -1 2406.60   13.98  -4
  -4  -4   1 2406.60   13.98  -3
   3  -4  -4 2406.60   13.98  -2
   1  -4   3 2406.60   13.98   1
   4   4  -3 2063.31   14.49  -6
  -1   4   4 2063.31   14.49  -5
  -3   4  -1 2063.31   14.49  -4
  -4   4   1 2063.31   14.49  -3
   3   4  -4 2063.31   14.49  -2
   1   4   3 2063.31   14.49   1
   5  -4  -3 1875.70   13.13  -6
  -2  -4   5 1875.70   13.13  -5
  -3  -4  -2 1875.70   13.13  -4
  -5  -4   2 1875.70   13.13  -3
   3  -4  -5 1875.70   13.13  -2
   2  -4   3 1875.70   13.13   1
   5   4  -3 1670.02   13.75  -6
  -2   4   5 1670.02   13.75  -5
  -3   4  -2 1670.02   13.75  -4
  -5   4   2 1670.02   13.75  -3
   3   4  -5 1670.02   13.75  -2
   2   4   3 1670.02   13.75   1
   6  -4  -3 1063.07   18.37  -6
  -3  -4   6 1063.07   18.37  -5
  -3  -4  -3 1063.07   18.37  -4
  -6  -4   3 1063.07   18.37  -3
   3  -4  -6 1063.07   18.37  -2
   3  -4   3 1063.07   18.37   1
   6   4  -3 1316.36   34.46  -6
  -3   4   6 1316.36   34.46  -5
  -3   4  -3 1316.36   34.46  -4
  -6   4   3 1316.36   34.46  -3
   3   4  -6 1316.36   34.46  -2
   3   4   3 1316.36   34.46   1
   7  -4  -3  547.18   24.55  -6
  -4  -4   7  547.18   24.55  -5
  -3  -4  -4  547.18   24.55  -4
  -7  -4   4  547.18   24.55  -3
   3  -4  -7  547.18   24.55  -2
   4  -4   3  547.18   24.55   1
   7   4  -3  500.92   15.14  -6
  -4   4   7  500.92   15.14  -5
  -3   4  -4  500.92   15.14  -4
  -7   4   4  500.92   15.14  -3
   3   4  -7  500.92   15.14  -2
   4   4   3  500.92   15.14   1
   8  -4  -3  488.80   27.99  -6
  -5  -4   8  488.80   27.99  -5
  -3  -4  -5  488.80   27.99  -4
  -8  -4   5  488.80   27.99  -3
   3  -4  -8  488.80   27.99  -2
   5  -4   3  488.80   27.99   1
   8   4  -3  477.85   23.29  -6
  -5   4   8  477.85   23.29  -5
  -3   4  -5  477.85   23.29  -4
  -8   4   5  477.85   23.29  -3
   3   4  -8  477.85   23.29  -2
   5   4   3  477.85   23.29   1
   9  -4  -3  369.08   30.22  -6
  -6  -4   9  369.08   30.22  -5
  -3  -4  -6  369.08   30.22  -4
  -9  -4   6  369.08   30.22  -3
   3  -4  -9  369.08   30.22  -2
   6  -4   3  369.08   30.22   1
   9   4  -3  362.88   31.22  -6
  -6   4   9  362.88   31.22  -5
  -3   4  -6  362.88   31.22  -4
  -9   4   6  362.88   31.22  -3
   3   4  -9  362.88   31.22  -2
   6   4   3  362.88   31.22   1
  -6  -5  -3  551.01   44.47  -6
   9  -5  -6  551.01   44.47  -5
  -3  -5   9  551.01   44.47  -4
   6  -5  -9  551.01   44.47  -3
   3  -5   6  551.01   44.47  -2
  -9  -5   3  551.01   44.47   1
  -6   5  -3  158.48   33.75  -6
   9   5  -6  158.48   33.75  -5
  -3   5   9  158.48   33.75  -4
   6   5  -9  158.48   33.75  -3
   3   5   6  158.48   33.75  -2
  -9   5   3  158.48   33.75   1
  -5  -5  -3  406.34   26.30  -6
   8  -5  -5  406.34   26.30  -5
  -3  -5   8  406.34   26.30  -4
   5  -5  -8  406.34   26.30  -3
   3  -5   5  406.34   26.30  -2
  -8  -5   3  406.34   26.30   1
  -5   5  -3  585.93   33.92  -6
   8   5  -5  585.93   33.92  -5
  -3   5   8  585.93   33.92  -4
   5   5  -8  585.93   33.92  -3
   3   5   5  585.93   33.92  -2
  -8   5   3  585.93   33.92   1
  -4  -5  -3 1460.70   40.92  -6
   7  -5  -4 1460.70   40.92  -5
  -3  -5   7 1460.70   40.92  -4
   4  -5  -7 1460.70   40.92  -3
   3  -5   4 1460.70   40.92  -2
  -7  -5   3 1460.70   40.92   1
  -4   5  -3 1258.53   35.62  -6
   7   5  -4 1258.53   35.62  -5
  -3   5   7 1258.53   35.62  -4
   4   5  -7 1258.53   35.62  -3
   3   5   4 1258.53   35.62  -2
  -7   5   3 1258.53   35.62   1
  -3  -5  -3 1439.74   35.96  -6
   6  -5  -3 1439.74   35.96  -5
  -3  -5   6 1439.74   35.96  -4
   3  -5  -6 1439.74   35.96  -3
   3  -5   3 1439.74   35.96  -2
  -6  -5   3 1439.74   35.96   1
  -3   5  -3 1377.15   33.54  -6
   6   5  -3 1377.15   33.54  -5
  -3   5   6 1377.15   33.54  -4
   3   5  -6 1377.15   33.54  -3
   3   5   3 1377.15   33.54  -2
  -6   5   3 1377.15   33.54   1
  -2  -5  -3 1366.40   11.89  -6
   5  -5  -2 1366.40   11.89  -5
  -3  -5   5 1366.40   11.89  -4
   2  -5  -5 1366.40   11.89  -3
   3  -5   2 1366.40   11.89  -2
  -5  -5   3 1366.40   11.89   1
  -2   5  -3 1270.36   20.89  -6
   5   5  -2 1270.36   20.89  -5
  -3   5   5 1270.36   20.89  -4
   2   5  -5 1270.36   20.89  -3
   3   5   2 1270.36   20.89  -2
  -5   5   3 1270.36   20.89   1
  -1  -5  -3 1204.73   27.17  -6
   4  -5  -1 1204.73   27.17  -5
  -3  -5   4 1204.73   27.17  -4
   1  -5  -4 1204.73   27.17  -3
   3  -5   1 1204.73   27.17  -2
  -4  -5   3 1204.73   27.17   1
  -1   5  -3 1258.75   26.40  -6
   4   5  -1 1258.75   26.40  -5
  -3   5   4 1258.75   26.40  -4
   1   5  -4 1258.75   26.40  -3
   3   5   1 1258.75   26.40  -2
  -4   5   3 1258.75   26.40   1
   0  -5  -3 1299.48   20.76  -6
   3  -5   0 1299.48   20.76  -5
  -3  -5   3 1299.48   20.76  -4
   0  -5  -3 1299.48   20.76  -3
   3  -5   0 1299.48   20.76  -2
  -3  -5   3 1299.48   20.76   1
   0   5  -3 1260.42   19.86  -6
   3   5   0 1260.42   19.86  -5
  -3   5   3 1260.42   19.86  -4
   0   5  -3 1260.42   19.86  -3
   3   5   0 1260.42   19.86  -2
  -3   5   3 1260.42   19.86   1
   1  -5  -3 1211.13   23.18  -6
   2  -5   1 1211.13   23.18  -5
  -3  -5   2 1211.13   23.18  -4
  -1  -5  -2 1211.13   23.18  -3
   3  -5  -1 1211.13   23.18  -2
  -2  -5   3 1211.13   23.18   1
   1   5  -3 1116.87   12.88  -6
   2   5   1 1116.87   12.88  -5
  -3   5   2 1116.87   12.88  -4
  -1   5  -2 1116.87   12.88  -3
   3   5  -1 1116.87   12.88  -2
  -2   5   3 1116.87   12.88   1
   2  -5  -3 1146.21   19.53  -6
   1  -5   2 1146.21   19.53  -5
  -3  -5   1 1146.21   19.53  -4
  -2  -5  -1 1146.21   19.53  -3
   3  -5  -2 1146.21   19.53  -2
  -1  -5   3 1146.21   19.53   1
   2   5  -3 1156.36   18.47  -6
   1   5   2 1156.36   18.47  -5
  -3   5   1 1156.36   18.47  -4
  -2   5  -1 1156.36   18.47  -3
   3   5  -2 1156.36   18.47  -2
  -1   5   3 1156.36   18.47   1
   3  -5  -3 1330.71    8.86  -6
   0  -5   3 1330.71    8.86  -5
  -3  -5   0 1330.71    8.86  -4
  -3  -5   0 1330.71    8.86  -3
   3  -5  -3 1330.71    8.86  -2
   0  -5   3 1330.71    8.86   1
   3   5  -3 1242.67   22.72  -6
   0   5   3 1242.67   22.72  -5
  -3   5   0 1242.67   22.72  -4
  -3   5   0 1242.67   22.72  -3
   3   5  -3 1242.67   22.72  -2
   0   5   3 1242.67   22.72   1
   4  -5  -3 1131.22   25.37  -6
  -1  -5   4 1131.22   25.37  -5
  -3  -5  -1 1131.22   25.37  -4
  -4  -5   1 1131.22   25.37  -3
   3  -5  -4 1131.22   25.37  -2
   1  -5   3 1131.22   25.37   1
   4   5  -3 1188.39   21.09  -6
  -1   5   4 1188.39   21.09  -5
  -3   5  -1 1188.39   21.09  -4
  -4   5   1 1188.39   21.09  -3
   3   5  -4 1188.39   21.09  -2
   1   5   3 1188.39   21.09   1
   5  -5  -3 1318.81   18.36  -6
  -2  -5   5 1318.81   18.36  -5
  -3  -5  -2 1318.81   18.36  -4
  -5  -5   2 1318.81   18.36  -3
   3  -5  -5 1318.81   18.36  -2
   2  -5   3 1318.81   18.36   1
   5   5  -3 1189.64   11.35  -6
  -2   5   5 1189.64   11.35  -5
  -3   5  -2 1189.64   11.35  -4
  -5   5   2 1189.64   11.35  -3
   3   5  -5 1189.64   11.35  -2
   2   5   3 1189.64   11.35   1
   6  -5  -3 1443.85   25.62  -6
  -3  -5   6 1443.85   25.62  -5
  -3  -5  -3 1443.85   25.62  -4
  -6  -5   3 1443.85   25.62  -3
   3  -5  -6 1443.85   25.62  -2
   3  -5   3 1443.85   25.62   1
   6   5  -3 1429.69   36.15  -6
  -3   5   6 1429.69   36.15  -5
  -3   5  -3 1429.69   36.15  -4
  -6   5   3 1429.69   36.15  -3
   3   5  -6 1429.69   36.15  -2
   3   5   3 1429.69   36.15   1
   7  -5  -3 1479.88   29.30  -6
  -4  -5   7 1479.88   29.30  -5
  -3  -5  -4 1479.88   29.30  -4
  -7  -5   4 1479.88   29.30  -3
   3  -5  -7 1479.88   29.30  -2
   4  -5   3 1479.88   29.30   1
   7   5  -3 1531.22   18.41  -6
  -4   5   7 1531.22   18.41  -5
  -3   5  -4 1531.22   18.41  -4
  -7   5   4 1531.22   18.41  -3
   3   5  -7 1531.22   18.41  -2
   4   5   3 1531.22   18.41   1
   8  -5  -3 1199.50   31.81  -6
  -5  -5   8 1199.50   31.81  -5
  -3  -5  -5 1199.50   31.81  -4
  -8  -5   5 1199.50   31.81  -3
   3  -5  -8 1199.50   31.81  -2
   5  -5   3 1199.50   31.81   1
   8   5  -3 1204.27   25.37  -6
  -5   5   8 1204.27   25.37  -5
  -3   5  -5 1204.27   25.37  -4
  -8   5   5 1204.27   25.37  -3
   3   5  -8 1204.27   25.37  -2
   5   5   3 1204.27   25.37   1
   9  -5  -3  947.67   33.47  -6
  -6  -5   9  947.67   33.47  -5
  -3  -5  -6  947.67   33.47  -4
  -9  -5   6  947.67   33.47  -3
   3  -5  -9  947.67   33.47  -2
   6  -5   3  947.67   33.47   1
  -5  -6  -3  443.05   28.04  -6
   8  -6  -5  443.05   28.04  -5
  -3  -6   8  443.05   28.04  -4
   5  -6  -8  443.05   28.04  -3
   3  -6   5  443.05   28.04  -2
  -8  -6   3  443.05   28.04   1
  -5   6  -3  432.07   32.67  -6
   8   6  -5  432.07   32.67  -5
  -3   6   8  432.07   32.67  -4
   5   6  -8  432.07   32.67  -3
   3   6   5  432.07   32.67  -2
  -8   6   3  432.07   32.67   1
  -4  -6  -3  899.84   24.82  -6
   7  -6  -4  899.84   24.82  -5
  -3  -6   7  899.84   24.82  -4
   4  -6  -7  899.84   24.82  -3
   3  -6   4  899.84   24.82  -2
  -7  -6   3  899.84   24.82   1
  -4   6  -3  853.82   16.84  -6
   7   6  -4  853.82   16.84  -5
  -3   6   7  853.82   16.84  -4
   4   6  -7  853.82   16.84  -3
   3   6   4  853.82   16.84  -2
  -7   6   3  853.82   16.84   1
  -3  -6  -3  922.51   23.51  -6
   6  -6  -3  922.51   23.51  -5
  -3  -6   6  922.51   23.51  -4
   3  -6  -6  922.51   23.51  -3
   3  -6   3  922.51   23.51  -2
  -6  -6   3  922.51   23.51   1
  -3   6  -3  867.93   16.20  -6
   6   6  -3  867.93   16.20  -5
  -3   6   6  867.93   16.20  -4
   3   6  -6  867.93   16.20  -3
   3   6   3  867.93   16.20  -2
  -6   6   3  867.93   16.20   1
  -2  -6  -3 1918.38   16.21  -6
   5  -6  -2 1918.38   16.21  -5
  -3  -6   5 1918.38   16.21  -4
   2  -6  -5 1918.38   16.21  -3
   3  -6   2 1918.38   16.21  -2
  -5  -6   3 1918.38   16.21   1
  -2   6  -3 1871.11   18.18  -6
   5   6  -2 1871.11   18.18  -5
  -3   6   5 1871.11   18.18  -4
   2   6  -5 1871.11   18.18  -3
   3   6   2 1871.11   18.18  -2
  -5   6   3 1871.11   18.18   1
  -1  -6  -3 3017.27   19.86  -6
   4  -6  -1 3017.27   19.86  -5
  -3  -6   4 3017.27   19.86  -4
   1  -6  -4 3017.27   19.86  -3
   3  -6   1 3017.27   19.86  -2
  -4  -6   3 3017.27   19.86   1
  -1   6  -3 2897.12   24.18  -6
   4   6  -1 2897.12   24.18  -5
  -3   6   4 2897.12   24.18  -4
   1   6  -4 2897.12   24.18  -3
   3   6   1 2897.12   24.18  -2
  -4   6   3 2897.12   24.18   1
   0  -6  -3 4088.25   33.82  -6
   3  -6   0 4088.25   33.82  -5
  -3  -6   3 4088.25   33.82  -4
   0  -6  -3 4088.25   33.82  -3
   3  -6   0 4088.25   33.82  -2
  -3  -6   3 4088.25   33.82   1
   1  -6  -3 5066.38   42.12  -6
   2  -6   1 5066.38   42.12  -5
  -3  -6   2 5066.38   42.12  -4
  -1  -6  -2 5066.38   42.12  -3
   3  -6  -1 5066.38   42.12  -2
  -2  -6   3 5066.38   42.12   1
   1   6  -3 4550.74   27.19  -6
   2   6   1 4550.74   27.19  -5
  -3   6   2 4550.74   27.19  -4
  -1   6  -2 4550.74   27.19  -3
   3   6  -1 4550.74   27.19  -2
  -2   6   3 4550.74   27.19   1
   2   6  -3 4656.48   18.36  -6
   1   6   2 4656.48   18.36  -5
  -3   6   1 4656.48   18.36  -4
  -2   6  -1 4656.48   18.36  -3
   3   6  -2 4656.48   18.36  -2
  -1   6   3 4656.48   18.36   1
   3  -6  -3 4289.38   16.89  -6
   0  -6   3 4289.38   16.89  -5
  -3  -6   0 4289.38   16.89  -4
  -3  -6   0 4289.38   16.89  -3
   3  -6  -3 4289.38   16.89  -2
   0  -6   3 4289.38   16.89   1
   3   6  -3 4011.59   30.28  -6
   0   6   3 4011.59   30.28  -5
  -3   6   0 4011.59   30.28  -4
  -3   6   0 4011.59   30.28  -3
   3   6  -3 4011.59   30.28  -2
   0   6   3 4011.59   30.28   1
   4  -6  -3 2912.38   18.23  -6
  -1  -6   4 2912.38   18.23  -5
  -3  -6  -1 2912.38   18.23  -4
  -4  -6   1 2912.38   18.23  -3
   3  -6  -4 2912.38   18.23  -2
   1  -6   3 2912.38   18.23   1
   5  -6  -3 1762.02   15.52  -6
  -2  -6   5 1762.02   15.52  -5
  -3  -6  -2 1762.02   15.52  -4
  -5  -6   2 1762.02   15.52  -3
   3  -6  -5 1762.02   15.52  -2
   2  -6   3 1762.02   15.52   1
   5   6  -3 1813.72   32.86  -6
  -2   6   5 1813.72   32.86  -5
  -3   6  -2 1813.72   32.86  -4
  -5   6   2 1813.72   32.86  -3
   3   6  -5 1813.72   32.86  -2
   2   6   3 1813.72   32.86   1
   6  -6  -3  743.52   10.00  -6
  -3  -6   6  743.52   10.00  -5
  -3  -6  -3  743.52   10.00  -4
  -6  -6   3  743.52   10.00  -3
   3  -6  -6  743.52   10.00  -2
   3  -6   3  743.52   10.00   1
   6   6  -3  968.31   34.12  -6
  -3   6   6  968.31   34.12  -5
  -3   6  -3  968.31   34.12  -4
  -6   6   3  968.31   34.12  -3
   3   6  -6  968.31   34.12  -2
   3   6   3  968.31   34.12   1
   7  -6  -3  842.55   28.10  -6
  -4  -6   7  842.55   28.10  -5
  -3  -6  -4  842.55   28.10  -4
  -7  -6   4  842.55   28.10  -3
   3  -6  -7  842.55   28.10  -2
   4  -6   3  842.55   28.10   1
   7   6  -3  756.27   16.16  -6
  -4   6   7  756.27   16.16  -5
  -3   6  -4  756.27   16.16  -4
  -7   6   4  756.27   16.16  -3
   3   6  -7  756.27   16.16  -2
   4   6   3  756.27   16.16   1
   8  -6  -3  475.30   29.33  -6
  -5  -6   8  475.30   29.33  -5
  -3  -6  -5  475.30   29.33  -4
  -8  -6   5  475.30   29.33  -3
   3  -6  -8  475.30   29.33  -2
   5  -6   3  475.30   29.33   1
   9  -6  -3  306.25   30.22  -6
  -6  -6   9  306.25   30.22  -5
  -3  -6  -6  306.25   30.22  -4
  -9  -6   6  306.25   30.22  -3
   3  -6  -9  306.25   30.22  -2
   6  -6   3  306.25   30.22   1
  -5  -7  -3  621.75   23.57  -6
   8  -7  -5  621.75   23.57  -5
  -3  -7   8  621.75   23.57  -4
   5  -7  -8  621.75   23.57  -3
   3  -7   5  621.75   23.57  -2
  -8  -7   3  621.75   23.57   1
  -5   7  -3  692.81   27.50  -6
   8   7  -5  692.81   27.50  -5
  -3   7   8  692.81   27.50  -4
   5   7  -8  692.81   27.50  -3
   3   7   5  692.81   27.50  -2
  -8   7   3  692.81   27.50   1
  -4  -7  -3 1488.50   43.10  -6
   7  -7  -4 1488.50   43.10  -5
  -3  -7   7 1488.50   43.10  -4
   4  -7  -7 1488.50   43.10  -3
   3  -7   4 1488.50   43.10  -2
  -7  -7   3 1488.50   43.10   1
  -4   7  -3 1546.64   22.84  -6
   7   7  -4 1546.64   22.84  -5
  -3   7   7 1546.64   22.84  -4
   4   7  -7 1546.64   22.84  -3
   3   7   4 1546.64   22.84  -2
  -7   7   3 1546.64   22.84   1
  -3  -7  -3 1073.70   24.32  -6
   6  -7  -3 1073.70   24.32  -5
  -3  -7   6 1073.70   24.32  -4
   3  -7  -6 1073.70   24.32  -3
   3  -7   3 1073.70   24.32  -2
  -6  -7   3 1073.70   24.32   1
  -3   7  -3 1371.27   18.36  -6
   6   7  -3 1371.27   18.36  -5
  -3   7   6 1371.27   18.36  -4
   3   7  -6 1371.27   18.36  -3
   3   7   3 1371.27   18.36  -2
  -6   7   3 1371.27   18.36   1
  -2  -7  -3  830.58   13.97  -6
   5  -7  -2  830.58   13.97  -5
  -3  -7   5  830.58   13.97  -4
   2  -7  -5  830.58   13.97  -3
   3  -7   2  830.58   13.97  -2
  -5  -7   3  830.58   13.97   1
  -2   7  -3  839.67   14.98  -6
   5   7  -2  839.67   14.98  -5
  -3   7   5  839.67   14.98  -4
   2   7  -5  839.67   14.98  -3
   3   7   2  839.67   14.98  -2
  -5   7   3  839.67   14.98   1
  -1   7  -3 1163.42   18.60  -6
   4   7  -1 1163.42   18.60  -5
  -3   7   4 1163.42   18.60  -4
   1   7  -4 1163.42   18.60  -3
   3   7   1 1163.42   18.60  -2
  -4   7   3 1163.42   18.60   1
   0  -7  -3 1192.59   22.87  -6
   3  -7   0 1192.59   22.87  -5
  -3  -7   3 1192.59   22.87  -4
   0  -7  -3 1192.59   22.87  -3
   3  -7   0 1192.59   22.87  -2
  -3  -7   3 1192.59   22.87   1
   0   7  -3 1274.90   25.48  -6
   3   7   0 1274.90   25.48  -5
  -3   7   3 1274.90   25.48  -4
   0   7  -3 1274.90   25.48  -3
   3   7   0 1274.90   25.48  -2
  -3   7   3 1274.90   25.48   1
   1   7  -3 1024.14   12.97  -6
   2   7   1 1024.14   12.97  -5
  -3   7   2 1024.14   12.97  -4
  -1   7  -2 1024.14   12.97  -3
   3   7  -1 1024.14   12.97  -2
  -2   7   3 1024.14   12.97   1
   2   7  -3 1041.72   11.45  -6
   1   7   2 1041.72   11.45  -5
  -3   7   1 1041.72   11.45  -4
  -2   7  -1 1041.72   11.45  -3
   3   7  -2 1041.72   11.45  -2
  -1   7   3 1041.72   11.45   1
   3  -7  -3 1221.46   12.23  -6
   0  -7   3 1221.46   12.23  -5
  -3  -7   0 1221.46   12.23  -4
  -3  -7   0 1221.46   12.23  -3
   3  -7  -3 1221.46   12.23  -2
   0  -7   3 1221.46   12.23   1
   3   7  -3 1107.38   10.28  -6
   0   7   3 1107.38   10.28  -5
  -3   7   0 1107.38   10.28  -4
  -3   7   0 1107.38   10.28  -3
   3   7  -3 1107.38   10.28  -2
   0   7   3 1107.38   10.28   1
   4  -7  -3 1165.82   14.57  -6
  -1  -7   4 1165.82   14.57  -5
  -3  -7  -1 1165.82   14.57  -4
  -4  -7   1 1165.82   14.57  -3
   3  -7  -4 1165.82   14.57  -2
   1  -7   3 1165.82   14.57   1
   5  -7  -3  856.50   19.68  -6
  -2  -7   5  856.50   19.68  -5
  -3  -7  -2  856.50   19.68  -4
  -5  -7   2  856.50   19.68  -3
   3  -7  -5  856.50   19.68  -2
   2  -7   3  856.50   19.68   1
   5   7  -3  873.58   14.41  -6
  -2   7   5  873.58   14.41  -5
  -3   7  -2  873.58   14.41  -4
  -5   7   2  873.58   14.41  -3
   3   7  -5  873.58   14.41  -2
   2   7   3  873.58   14.41   1
   6  -7  -3 1172.90   12.11  -6
  -3  -7   6 1172.90   12.11  -5
  -3  -7  -3 1172.90   12.11  -4
  -6  -7   3 1172.90   12.11  -3
   3  -7  -6 1172.90   12.11  -2
   3  -7   3 1172.90   12.11   1
   6   7  -3 1234.37   14.63  -6
  -3   7   6 1234.37   14.63  -5
  -3   7  -3 1234.37   14.63  -4
  -6   7   3 1234.37   14.63  -3
   3   7  -6 1234.37   14.63  -2
   3   7   3 1234.37   14.63   1
   7  -7  -3 1515.24   41.28  -6
  -4  -7   7 1515.24   41.28  -5
  -3  -7  -4 1515.24   41.28  -4
  -7  -7   4 1515.24   41.28  -3
   3  -7  -7 1515.24   41.28  -2
   4  -7   3 1515.24   41.28   1
   7   7  -3 1446.46   30.64  -6
  -4   7   7 1446.46   30.64  -5
  -3   7  -4 1446.46   30.64  -4
  -7   7   4 1446.46   30.64  -3
   3   7  -7 1446.46   30.64  -2
   4   7   3 1446.46   30.64   1
   8  -7  -3 1023.63   44.68  -6
  -5  -7   8 1023.63   44.68  -5
  -3  -7  -5 1023.63   44.68  -4
  -8  -7   5 1023.63   44.68  -3
   3  -7  -8 1023.63   44.68  -2
   5  -7   3 1023.63   44.68   1
   8   7  -3  878.32   30.73  -6
  -5   7   8  878.32   30.73  -5
  -3   7  -5  878.32   30.73  -4
  -8   7   5  878.32   30.73  -3
   3   7  -8  878.32   30.73  -2
   5   7   3  878.32   30.73   1
  -5  -8  -3  472.54   25.31  -6
   8  -8  -5  472.54   25.31  -5
  -3  -8   8  472.54   25.31  -4
   5  -8  -8  472.54   25.31  -3
   3  -8   5  472.54   25.31  -2
  -8  -8   3  472.54   25.31   1
  -5   8  -3  409.43   26.18  -6
   8   8  -5  409.43   26.18  -5
  -3   8   8  409.43   26.18  -4
   5   8  -8  409.43   26.18  -3
   3   8   5  409.43   26.18  -2
  -8   8   3  409.43   26.18   1
  -4  -8  -3  702.65   25.97  -6
   7  -8  -4  702.65   25.97  -5
  -3  -8   7  702.65   25.97  -4
   4  -8  -7  702.65   25.97  -3
   3  -8   4  702.65   25.97  -2
  -7  -8   3  702.65   25.97   1
  -4   8  -3  650.07   25.67  -6
   7   8  -4  650.07   25.67  -5
  -3   8   7  650.07   25.67  -4
   4   8  -7  650.07   25.67  -3
   3   8   4  650.07   25.67  -2
  -7   8   3  650.07   25.67   1
  -3  -8  -3  828.34   35.25  -6
   6  -8  -3  828.34   35.25  -5
  -3  -8   6  828.34   35.25  -4
   3  -8  -6  828.34   35.25  -3
   3  -8   3  828.34   35.25  -2
  -6  -8   3  828.34   35.25   1
  -3   8  -3  834.53   20.44  -6
   6   8  -3  834.53   20.44  -5
  -3   8   6  834.53   20.44  -4
   3   8  -6  834.53   20.44  -3
   3   8   3  834.53   20.44  -2
  -6   8   3  834.53   20.44   1
  -2  -8  -3  799.44   30.63  -6
   5  -8  -2  799.44   30.63  -5
  -3  -8   5  799.44   30.63  -4
   2  -8  -5  799.44   30.63  -3
   3  -8   2  799.44   30.63  -2
  -5  -8   3  799.44   30.63   1
  -2   8  -3  802.32   18.56  -6
   5   8  -2  802.32   18.56  -5
  -3   8   5  802.32   18.56  -4
   2   8  -5  802.32   18.56  -3
   3   8   2  802.32   18.56  -2
  -5   8   3  802.32   18.56   1
  -1  -8  -3 1514.15   18.60  -6
   4  -8  -1 1514.15   18.60  -5
  -3  -8   4 1514.15   18.60  -4
   1  -8  -4 1514.15   18.60  -3
   3  -8   1 1514.15   18.60  -2
  -4  -8   3 1514.15   18.60   1
  -1   8  -3 1512.46   30.58  -6
   4   8  -1 1512.46   30.58  -5
  -3   8   4 1512.46   30.58  -4
   1   8  -4 1512.46   30.58  -3
   3   8   1 1512.46   30.58  -2
  -4   8   3 1512.46   30.58   1
   0   8  -3 3070.74   26.20  -6
   3   8   0 3070.74   26.20  -5
  -3   8   3 3070.74   26.20  -4
   0   8  -3 3070.74   26.20  -3
   3   8   0 3070.74   26.20  -2
  -3   8   3 3070.74   26.20   1
   1  -8  -3 2661.56   36.98  -6
   2  -8   1 2661.56   36.98  -5
  -3  -8   2 2661.56   36.98  -4
  -1  -8  -2 2661.56   36.98  -3
   3  -8  -1 2661.56   36.98  -2
  -2  -8   3 2661.56   36.98   1
   1   8  -3 2663.26   12.77  -6
   2   8   1 2663.26   12.77  -5
  -3   8   2 2663.26   12.77  -4
  -1   8  -2 2663.26   12.77  -3
   3   8  -1 2663.26   12.77  -2
  -2   8   3 2663.26   12.77   1
   2  -8  -3 2595.78   33.03  -6
   1  -8   2 2595.78   33.03  -5
  -3  -8   1 2595.78   33.03  -4
  -2  -8  -1 2595.78   33.03  -3
   3  -8  -2 2595.78   33.03  -2
  -1  -8   3 2595.78   33.03   1
   2   8  -3 2528.13   17.00  -6
   1   8   2 2528.13   17.00  -5
  -3   8   1 2528.13   17.00  -4
  -2   8  -1 2528.13   17.00  -3
   3   8  -2 2528.13   17.00  -2
  -1   8   3 2528.13   17.00   1
   3  -8  -3 2973.86   15.26  -6
   0  -8   3 2973.86   15.26  -5
  -3  -8   0 2973.86   15.26  -4
  -3  -8   0 2973.86   15.26  -3
   3  -8  -3 2973.86   15.26  -2
   0  -8   3 2973.86   15.26   1
   3   8  -3 2521.85    9.11  -6
   0   8   3 2521.85    9.11  -5
  -3   8   0 2521.85    9.11  -4
  -3   8   0 2521.85    9.11  -3
   3   8  -3 2521.85    9.11  -2
   0   8   3 2521.85    9.11   1
   4  -8  -3 1689.52   17.77  -6
  -1  -8   4 1689.52   17.77  -5
  -3  -8  -1 1689.52   17.77  -4
  -4  -8   1 1689.52   17.77  -3
   3  -8  -4 1689.52   17.77  -2
   1  -8   3 1689.52   17.77   1
   5  -8  -3  806.20   20.32  -6
  -2  -8   5  806.20   20.32  -5
  -3  -8  -2  806.20   20.32  -4
  -5  -8   2  806.20   20.32  -3
   3  -8  -5  806.20   20.32  -2
   2  -8   3  806.20   20.32   1
   5   8  -3  846.43   28.30  -6
  -2   8   5  846.43   28.30  -5
  -3   8  -2  846.43   28.30  -4
  -5   8   2  846.43   28.30  -3
   3   8  -5  846.43   28.30  -2
   2   8   3  846.43   28.30   1
   6  -8  -3  578.29   14.07  -6
  -3  -8   6  578.29   14.07  -5
  -3  -8  -3  578.29   14.07  -4
  -6  -8   3  578.29   14.07  -3
   3  -8  -6  578.29   14.07  -2
   3  -8   3  578.29   14.07   1
   7  -8  -3  627.29   28.25  -6
  -4  -8   7  627.29   28.25  -5
  -3  -8  -4  627.29   28.25  -4
  -7  -8   4  627.29   28.25  -3
   3  -8  -7  627.29   28.25  -2
   4  -8   3  627.29   28.25   1
   8  -8  -3  385.88   28.88  -6
  -5  -8   8  385.88   28.88  -5
  -3  -8  -5  385.88   28.88  -4
  -8  -8   5  385.88   28.88  -3
   3  -8  -8  385.88   28.88  -2
   5  -8   3  385.88   28.88   1
  -5  -9  -3  432.30   25.90  -6
   8  -9  -5  432.30   25.90  -5
  -3  -9   8  432.30   25.90  -4
   5  -9  -8  432.30   25.90  -3
   3  -9   5  432.30   25.90  -2
  -8  -9   3  432.30   25.90   1
  -5   9  -3  423.50   25.03  -6
   8   9  -5  423.50   25.03  -5
  -3   9   8  423.50   25.03  -4
   5   9  -8  423.50   25.03  -3
   3   9   5  423.50   25.03  -2
  -8   9   3  423.50   25.03   1
  -4  -9  -3  844.85   27.06  -6
   7  -9  -4  844.85   27.06  -5
  -3  -9   7  844.85   27.06  -4
   4  -9  -7  844.85   27.06  -3
   3  -9   4  844.85   27.06  -2
  -7  -9   3  844.85   27.06   1
  -4   9  -3  904.69   19.64  -6
   7   9  -4  904.69   19.64  -5
  -3   9   7  904.69   19.64  -4
   4   9  -7  904.69   19.64  -3
   3   9   4  904.69   19.64  -2
  -7   9   3  904.69   19.64   1
  -3   9  -3  652.09   20.03  -6
   6   9  -3  652.09   20.03  -5
  -3   9   6  652.09   20.03  -4
   3   9  -6  652.09   20.03  -3
   3   9   3  652.09   20.03  -2
  -6   9   3  652.09   20.03   1
  -2   9  -3  503.36   18.81  -6
   5   9  -2  503.36   18.81  -5
  -3   9   5  503.36   18.81  -4
   2   9  -5  503.36   18.81  -3
   3   9   2  503.36   18.81  -2
  -5   9   3  503.36   18.81   1
  -1  -9  -3  436.89   15.34  -6
   4  -9  -1  436.89   15.34  -5
  -3  -9   4  436.89   15.34  -4
   1  -9  -4  436.89   15.34  -3
   3  -9   1  436.89   15.34  -2
  -4  -9   3  436.89   15.34   1
  -1   9  -3  557.85   18.00  -6
   4   9  -1  557.85   18.00  -5
  -3   9   4  557.85   18.00  -4
   1   9  -4  557.85   18.00  -3
   3   9   1  557.85   18.00  -2
  -4   9   3  557.85   18.00   1
   0   9  -3  775.84   19.26  -6
   3   9   0  775.84   19.26  -5
  -3   9   3  775.84   19.26  -4
   0   9  -3  775.84   19.26  -3
   3   9   0  775.84   19.26  -2
  -3   9   3  775.84   19.26   1
   1  -9  -3  528.39   25.99  -6
   2  -9   1  528.39   25.99  -5
  -3  -9   2  528.39   25.99  -4
  -1  -9  -2  528.39   25.99  -3
   3  -9  -1  528.39   25.99  -2
  -2  -9   3  528.39   25.99   1
   1   9  -3  542.44    6.59  -6
   2   9   1  542.44    6.59  -5
  -3   9   2  542.44    6.59  -4
  -1   9  -2  542.44    6.59  -3
   3   9  -1  542.44    6.59  -2
  -2   9   3  542.44    6.59   1
   2  -9  -3  583.40   26.57  -6
   1  -9   2  583.40   26.57  -5
  -3  -9   1  583.40   26.57  -4
  -2  -9  -1  583.40   26.57  -3
   3  -9  -2  583.40   26.57  -2
  -1  -9   3  583.40   26.57   1
   2   9  -3  555.27    8.43  -6
   1   9   2  555.27    8.43  -5
  -3   9   1  555.27    8.43  -4
  -2   9  -1  555.27    8.43  -3
   3   9  -2  555.27    8.43  -2
  -1   9   3  555.27    8.43   1
   3  -9  -3  730.84   25.35  -6
   0  -9   3  730.84   25.35  -5
  -3  -9   0  730.84   25.35  -4
  -3  -9   0  730.84   25.35  -3
   3  -9  -3  730.84   25.35  -2
   0  -9   3  730.84   25.35   1
   3   9  -3  710.98   19.01  -6
   0   9   3  710.98   19.01  -5
  -3   9   0  710.98   19.01  -4
  -3   9   0  710.98   19.01  -3
   3   9  -3  710.98   19.01  -2
   0   9   3  710.98   19.01   1
   4  -9  -3  520.23   24.90  -6
  -1  -9   4  520.23   24.90  -5
  -3  -9  -1  520.23   24.90  -4
  -4  -9   1  520.23   24.90  -3
   3  -9  -4  520.23   24.90  -2
   1  -9   3  520.23   24.90   1
   4   9  -3  533.64   14.98  -6
  -1   9   4  533.64   14.98  -5
  -3   9  -1  533.64   14.98  -4
  -4   9   1  533.64   14.98  -3
   3   9  -4  533.64   14.98  -2
   1   9   3  533.64   14.98   1
   5  -9  -3  432.39   16.80  -6
  -2  -9   5  432.39   16.80  -5
  -3  -9  -2  432.39   16.80  -4
  -5  -9   2  432.39   16.80  -3
   3  -9  -5  432.39   16.80  -2
   2  -9   3  432.39   16.80   1
   6  -9  -3  684.81   24.92  -6
  -3  -9   6  684.81   24.92  -5
  -3  -9  -3  684.81   24.92  -4
  -6  -9   3  684.81   24.92  -3
   3  -9  -6  684.81   24.92  -2
   3  -9   3  684.81   24.92   1
   7  -9  -3 1043.69   29.01  -6
  -4  -9   7 1043.69   29.01  -5
  -3  -9  -4 1043.69   29.01  -4
  -7  -9   4 1043.69   29.01  -3
   3  -9  -7 1043.69   29.01  -2
   4  -9   3 1043.69   29.01   1
   8  -9  -3  772.23   31.39  -6
  -5  -9   8  772.23   31.39  -5
  -3  -9  -5  772.23   31.39  -4
  -8  -9   5  772.23   31.39  -3
   3  -9  -8  772.23   31.39  -2
   5  -9   3  772.23   31.39   1
  -5 -10  -3  285.37   26.97  -6
   8 -10  -5  285.37   26.97  -5
  -3 -10   8  285.37   26.97  -4
   5 -10  -8  285.37   26.97  -3
   3 -10   5  285.37   26.97  -2
  -8 -10   3  285.37   26.97   1
  -4 -10  -3  609.40   27.00  -6
   7 -10  -4  609.40   27.00  -5
  -3 -10   7  609.40   27.00  -4
   4 -10  -7  609.40   27.00  -3
   3 -10   4  609.40   27.00  -2
  -7 -10   3  609.40   27.00   1
  -4  10  -3  524.66   22.00  -6
   7  10  -4  524.66   22.00  -5
  -3  10   7  524.66   22.00  -4
   4  10  -7  524.66   22.00  -3
   3  10   4  524.66   22.00  -2
  -7  10   3  524.66   22.00   1
  -3 -10  -3  673.70   36.84  -6
   6 -10  -3  673.70   36.84  -5
  -3 -10   6  673.70   36.84  -4
   3 -10  -6  673.70   36.84  -3
   3 -10   3  673.70   36.84  -2
  -6 -10   3  673.70   36.84   1
  -3  10  -3  668.20   20.95  -6
   6  10  -3  668.20   20.95  -5
  -3  10   6  668.20   20.95  -4
   3  10  -6  668.20   20.95  -3
   3  10   3  668.20   20.95  -2
  -6  10   3  668.20   20.95   1
  -2 -10  -3  661.87   31.68  -6
   5 -10  -2  661.87   31.68  -5
  -3 -10   5  661.87   31.68  -4
   2 -10  -5  661.87   31.68  -3
   3 -10   2  661.87   31.68  -2
  -5 -10   3  661.87   31.68   1
  -2  10  -3  672.75   19.85  -6
   5  10  -2  672.75   19.85  -5
  -3  10   5  672.75   19.85  -4
   2  10  -5  672.75   19.85  -3
   3  10   2  672.75   19.85  -2
  -5  10   3  672.75   19.85   1
  -1 -10  -3 1309.96   31.18  -6
   4 -10  -1 1309.96   31.18  -5
  -3 -10   4 1309.96   31.18  -4
   1 -10  -4 1309.96   31.18  -3
   3 -10   1 1309.96   31.18  -2
  -4 -10   3 1309.96   31.18   1
  -1  10  -3 1306.71   22.65  -6
   4  10  -1 1306.71   22.65  -5
  -3  10   4 1306.71   22.65  -4
   1  10  -4 1306.71   22.65  -3
   3  10   1 1306.71   22.65  -2
  -4  10   3 1306.71   22.65   1
   0  10  -3 1732.53   23.19  -6
   3  10   0 1732.53   23.19  -5
  -3  10   3 1732.53   23.19  -4
   0  10  -3 1732.53   23.19  -3
   3  10   0 1732.53   23.19  -2
  -3  10   3 1732.53   23.19   1
   1 -10  -3 2038.92   36.71  -6
   2 -10   1 2038.92   36.71  -5
  -3 -10   2 2038.92   36.71  -4
  -1 -10  -2 2038.92   36.71  -3
   3 -10  -1 2038.92   36.71  -2
  -2 -10   3 2038.92   36.71   1
   1  10  -3 1998.55   39.54  -6
   2  10   1 1998.55   39.54  -5
  -3  10   2 1998.55   39.54  -4
  -1  10  -2 1998.55   39.54  -3
   3  10  -1 1998.55   39.54  -2
  -2  10   3 1998.55   39.54   1
   2 -10  -3 2236.23   37.20  -6
   1 -10   2 2236.23   37.20  -5
  -3 -10   1 2236.23   37.20  -4
  -2 -10  -1 2236.23   37.20  -3
   3 -10  -2 2236.23   37.20  -2
  -1 -10   3 2236.23   37.20   1
   3 -10  -3 1951.44   21.81  -6
   0 -10   3 1951.44   21.81  -5
  -3 -10   0 1951.44   21.81  -4
  -3 -10   0 1951.44   21.81  -3
   3 -10  -3 1951.44   21.81  -2
   0 -10   3 1951.44   21.81   1
   4 -10  -3 1578.81   24.86  -6
  -1 -10   4 1578.81   24.86  -5
  -3 -10  -1 1578.81   24.86  -4
  -4 -10   1 1578.81   24.86  -3
   3 -10  -4 1578.81   24.86  -2
   1 -10   3 1578.81   24.86   1
   5 -10  -3  707.43   21.42  -6
  -2 -10   5  707.43   21.42  -5
  -3 -10  -2  707.43   21.42  -4
  -5 -10   2  707.43   21.42  -3
   3 -10  -5  707.43   21.42  -2
   2 -10   3  707.43   21.42   1
   6 -10  -3  595.46   20.35  -6
  -3 -10   6  595.46   20.35  -5
  -3 -10  -3  595.46   20.35  -4
  -6 -10   3  595.46   20.35  -3
   3 -10  -6  595.46   20.35  -2
   3 -10   3  595.46   20.35   1
   7 -10  -3  413.61   28.21  -6
  -4 -10   7  413.61   28.21  -5
  -3 -10  -4  413.61   28.21  -4
  -7 -10   4  413.61   28.21  -3
   3 -10  -7  413.61   28.21  -2
   4 -10   3  413.61   28.21   1
  -5 -11  -3  148.56   38.12  -6
   8 -11  -5  148.56   38.12  -5
  -3 -11   8  148.56   38.12  -4
   5 -11  -8  148.56   38.12  -3
   3 -11   5  148.56   38.12  -2
  -8 -11   3  148.56   38.12   1
  -4 -11  -3  807.43   44.17  -6
   7 -11  -4  807.43   44.17  -5
  -3 -11   7  807.43   44.17  -4
   4 -11  -7  807.43   44.17  -3
   3 -11   4  807.43   44.17  -2
  -7 -11   3  807.43   44.17   1
  -4  11  -3  785.52   25.61  -6
   7  11  -4  785.52   25.61  -5
  -3  11   7  785.52   25.61  -4
   4  11  -7  785.52   25.61  -3
   3  11   4  785.52   25.61  -2
  -7  11   3  785.52   25.61   1
  -3 -11  -3  747.96   38.59  -6
   6 -11  -3  747.96   38.59  -5
  -3 -11   6  747.96   38.59  -4
   3 -11  -6  747.96   38.59  -3
   3 -11   3  747.96   38.59  -2
  -6 -11   3  747.96   38.59   1
  -3  11  -3  811.10   21.95  -6
   6  11  -3  811.10   21.95  -5
  -3  11   6  811.10   21.95  -4
   3  11  -6  811.10   21.95  -3
   3  11   3  811.10   21.95  -2
  -6  11   3  811.10   21.95   1
  -2 -11  -3  646.68   34.13  -6
   5 -11  -2  646.68   34.13  -5
  -3 -11   5  646.68   34.13  -4
   2 -11  -5  646.68   34.13  -3
   3 -11   2  646.68   34.13  -2
  -5 -11   3  646.68   34.13   1
  -2  11  -3  735.95   21.44  -6
   5  11  -2  735.95   21.44  -5
  -3  11   5  735.95   21.44  -4
   2  11  -5  735.95   21.44  -3
   3  11   2  735.95   21.44  -2
  -5  11   3  735.95   21.44   1
  -1  11  -3  716.13   21.33  -6
   4  11  -1  716.13   21.33  -5
  -3  11   4  716.13   21.33  -4
   1  11  -4  716.13   21.33  -3
   3  11   1  716.13   21.33  -2
  -4  11   3  716.13   21.33   1
   0 -11  -3  497.89   33.42  -6
   3 -11   0  497.89   33.42  -5
  -3 -11   3  497.89   33.42  -4
   0 -11  -3  497.89   33.42  -3
   3 -11   0  497.89   33.42  -2
  -3 -11   3  497.89   33.42   1
   0  11  -3  488.65   19.14  -6
   3  11   0  488.65   19.14  -5
  -3  11   3  488.65   19.14  -4
   0  11  -3  488.65   19.14  -3
   3  11   0  488.65   19.14  -2
  -3  11   3  488.65   19.14   1
   1 -11  -3  636.18   32.05  -6
   2 -11   1  636.18   32.05  -5
  -3 -11   2  636.18   32.05  -4
  -1 -11  -2  636.18   32.05  -3
   3 -11  -1  636.18   32.05  -2
  -2 -11   3  636.18   32.05   1
   1  11  -3  572.17   31.23  -6
   2  11   1  572.17   31.23  -5
  -3  11   2  572.17   31.23  -4
  -1  11  -2  572.17   31.23  -3
   3  11  -1  572.17   31.23  -2
  -2  11   3  572.17   31.23   1
   2 -11  -3  637.51   31.37  -6
   1 -11   2  637.51   31.37  -5
  -3 -11   1  637.51   31.37  -4
  -2 -11  -1  637.51   31.37  -3
   3 -11  -2  637.51   31.37  -2
  -1 -11   3  637.51   31.37   1
   2  11  -3  545.87   33.55  -6
   1  11   2  545.87   33.55  -5
  -3  11   1  545.87   33.55  -4
  -2  11  -1  545.87   33.55  -3
   3  11  -2  545.87   33.55  -2
  -1  11   3  545.87   33.55   1
   3 -11  -3  458.25   17.28  -6
   0 -11   3  458.25   17.28  -5
  -3 -11   0  458.25   17.28  -4
  -3 -11   0  458.25   17.28  -3
   3 -11  -3  458.25   17.28  -2
   0 -11   3  458.25   17.28   1
   4 -11  -3  656.36   20.53  -6
  -1 -11   4  656.36   20.53  -5
  -3 -11  -1  656.36   20.53  -4
  -4 -11   1  656.36   20.53  -3
   3 -11  -4  656.36   20.53  -2
   1 -11   3  656.36   20.53   1
   4  11  -3  611.89   33.98  -6
  -1  11   4  611.89   33.98  -5
  -3  11  -1  611.89   33.98  -4
  -4  11   1  611.89   33.98  -3
   3  11  -4  611.89   33.98  -2
   1  11   3  611.89   33.98   1
   5 -11  -3  686.07   37.05  -6
  -2 -11   5  686.07   37.05  -5
  -3 -11  -2  686.07   37.05  -4
  -5 -11   2  686.07   37.05  -3
   3 -11  -5  686.07   37.05  -2
   2 -11   3  686.07   37.05   1
   5  11  -3  653.83   34.24  -6
  -2  11   5  653.83   34.24  -5
  -3  11  -2  653.83   34.24  -4
  -5  11   2  653.83   34.24  -3
   3  11  -5  653.83   34.24  -2
   2  11   3  653.83   34.24   1
   6 -11  -3  984.48   30.24  -6
  -3 -11   6  984.48   30.24  -5
  -3 -11  -3  984.48   30.24  -4
  -6 -11   3  984.48   30.24  -3
   3 -11  -6  984.48   30.24  -2
   3 -11   3  984.48   30.24   1
   7 -11  -3 1075.67   32.65  -6
  -4 -11   7 1075.67   32.65  -5
  -3 -11  -4 1075.67   32.65  -4
  -7 -11   4 1075.67   32.65  -3
   3 -11  -7 1075.67   32.65  -2
   4 -11   3 1075.67   32.65   1
  -4 -12  -3  439.50   28.16  -6
   7 -12  -4  439.50   28.16  -5
  -3 -12   7  439.50   28.16  -4
   4 -12  -7  439.50   28.16  -3
   3 -12   4  439.50   28.16  -2
  -7 -12   3  439.50   28.16   1
  -4  12  -3  375.89   31.45  -6
   7  12  -4  375.89   31.45  -5
  -3  12   7  375.89   31.45  -4
   4  12  -7  375.89   31.45  -3
   3  12   4  375.89   31.45  -2
  -7  12   3  375.89   31.45   1
  -3 -12  -3  734.01   41.75  -6
   6 -12  -3  734.01   41.75  -5
  -3 -12   6  734.01   41.75  -4
   3 -12  -6  734.01   41.75  -3
   3 -12   3  734.01   41.75  -2
  -6 -12   3  734.01   41.75   1
  -3  12  -3  729.06   24.27  -6
   6  12  -3  729.06   24.27  -5
  -3  12   6  729.06   24.27  -4
   3  12  -6  729.06   24.27  -3
   3  12   3  729.06   24.27  -2
  -6  12   3  729.06   24.27   1
  -2  12  -3 1024.75   25.23  -6
   5  12  -2 1024.75   25.23  -5
  -3  12   5 1024.75   25.23  -4
   2  12  -5 1024.75   25.23  -3
   3  12   2 1024.75   25.23  -2
  -5  12   3 1024.75   25.23   1
  -1 -12  -3 1310.96   46.38  -6
   4 -12  -1 1310.96   46.38  -5
  -3 -12   4 1310.96   46.38  -4
   1 -12  -4 1310.96   46.38  -3
   3 -12   1 1310.96   46.38  -2
  -4 -12   3 1310.96   46.38   1
  -1  12  -3 1424.69   25.63  -6
   4  12  -1 1424.69   25.63  -5
  -3  12   4 1424.69   25.63  -4
   1  12  -4 1424.69   25.63  -3
   3  12   1 1424.69   25.63  -2
  -4  12   3 1424.69   25.63   1
   0  12  -3 2222.46   28.51  -6
   3  12   0 2222.46   28.51  -5
  -3  12   3 2222.46   28.51  -4
   0  12  -3 2222.46   28.51  -3
   3  12   0 2222.46   28.51  -2
  -3  12   3 2222.46   28.51   1
   1 -12  -3 2171.91   43.78  -6
   2 -12   1 2171.91   43.78  -5
  -3 -12   2 2171.91   43.78  -4
  -1 -12  -2 2171.91   43.78  -3
   3 -12  -1 2171.91   43.78  -2
  -2 -12   3 2171.91   43.78   1
   1  12  -3 2005.40   42.89  -6
   2  12   1 2005.40   42.89  -5
  -3  12   2 2005.40   42.89  -4
  -1  12  -2 2005.40   42.89  -3
   3  12  -1 2005.40   42.89  -2
  -2  12   3 2005.40   42.89   1
   2 -12  -3 2408.73   45.15  -6
   1 -12   2 2408.73   45.15  -5
  -3 -12   1 2408.73   45.15  -4
  -2 -12  -1 2408.73   45.15  -3
   3 -12  -2 2408.73   45.15  -2
  -1 -12   3 2408.73   45.15   1
   2  12  -3 1988.13   44.11  -6
   1  12   2 1988.13   44.11  -5
  -3  12   1 1988.13   44.11  -4
  -2  12  -1 1988.13   44.11  -3
   3  12  -2 1988.13   44.11  -2
  -1  12   3 1988.13   44.11   1
   3 -12  -3 2158.81   41.79  -6
   0 -12   3 2158.81   41.79  -5
  -3 -12   0 2158.81   41.79  -4
  -3 -12   0 2158.81   41.79  -3
   3 -12  -3 2158.81   41.79  -2
   0 -12   3 2158.81   41.79   1
   3  12  -3 1997.36   45.54  -6
   0  12   3 1997.36   45.54  -5
  -3  12   0 1997.36   45.54  -4
  -3  12   0 1997.36   45.54  -3
   3  12  -3 1997.36   45.54  -2
   0  12   3 1997.36   45.54   1
   4 -12  -3 1289.03   40.04  -6
  -1 -12   4 1289.03   40.04  -5
  -3 -12  -1 1289.03   40.04  -4
  -4 -12   1 1289.03   40.04  -3
   3 -12  -4 1289.03   40.04  -2
   1 -12   3 1289.03   40.04   1
   4  12  -3 1183.39   42.54  -6
  -1  12   4 1183.39   42.54  -5
  -3  12  -1 1183.39   42.54  -4
  -4  12   1 1183.39   42.54  -3
   3  12  -4 1183.39   42.54  -2
   1  12   3 1183.39   42.54   1
   5 -12  -3  916.06   41.73  -6
  -2 -12   5  916.06   41.73  -5
  -3 -12  -2  916.06   41.73  -4
  -5 -12   2  916.06   41.73  -3
   3 -12  -5  916.06   41.73  -2
   2 -12   3  916.06   41.73   1
   5  12  -3  855.04   38.51  -6
  -2  12   5  855.04   38.51  -5
  -3  12  -2  855.04   38.51  -4
  -5  12   2  855.04   38.51  -3
   3  12  -5  855.04   38.51  -2
   2  12   3  855.04   38.51   1
   6 -12  -3  731.36   30.24  -6
  -3 -12   6  731.36   30.24  -5
  -3 -12  -3  731.36   30.24  -4
  -6 -12   3  731.36   30.24  -3
   3 -12  -6  731.36   30.24  -2
   3 -12   3  731.36   30.24   1
   6  12  -3  630.44   36.67  -6
  -3  12   6  630.44   36.67  -5
  -3  12  -3  630.44   36.67  -4
  -6  12   3  630.44   36.67  -3
   3  12  -6  630.44   36.67  -2
   3  12   3  630.44   36.67   1
   7 -12  -3  425.68   30.94  -6
  -4 -12   7  425.68   30.94  -5
  -3 -12  -4  425.68   30.94  -4
  -7 -12   4  425.68   30.94  -3
   3 -12  -7  425.68   30.94  -2
   4 -12   3  425.68   30.94   1
  -4 -13  -3  633.28   46.16  -6
   7 -13  -4  633.28   46.16  -5
  -3 -13   7  633.28   46.16  -4
   4 -13  -7  633.28   46.16  -3
   3 -13   4  633.28   46.16  -2
  -7 -13   3  633.28   46.16   1
  -3 -13  -3  729.37   40.50  -6
   6 -13  -3  729.37   40.50  -5
  -3 -13   6  729.37   40.50  -4
   3 -13  -6  729.37   40.50  -3
   3 -13   3  729.37   40.50  -2
  -6 -13   3  729.37   40.50   1
  -3  13  -3  735.97   24.87  -6
   6  13  -3  735.97   24.87  -5
  -3  13   6  735.97   24.87  -4
   3  13  -6  735.97   24.87  -3
   3  13   3  735.97   24.87  -2
  -6  13   3  735.97   24.87   1
  -2  13  -3  936.11   25.40  -6
   5  13  -2  936.11   25.40  -5
  -3  13   5  936.11   25.40  -4
   2  13  -5  936.11   25.40  -3
   3  13   2  936.11   25.40  -2
  -5  13   3  936.11   25.40   1
  -1  13  -3  760.04   22.99  -6
   4  13  -1  760.04   22.99  -5
  -3  13   4  760.04   22.99  -4
   1  13  -4  760.04   22.99  -3
   3  13   1  760.04   22.99  -2
  -4  13   3  760.04   22.99   1
   0 -13  -3  407.24   35.38  -6
   3 -13   0  407.24   35.38  -5
  -3 -13   3  407.24   35.38  -4
   0 -13  -3  407.24   35.38  -3
   3 -13   0  407.24   35.38  -2
  -3 -13   3  407.24   35.38   1
   0  13  -3  493.75   23.28  -6
   3  13   0  493.75   23.28  -5
  -3  13   3  493.75   23.28  -4
   0  13  -3  493.75   23.28  -3
   3  13   0  493.75   23.28  -2
  -3  13   3  493.75   23.28   1
   1 -13  -3  429.31   35.00  -6
   2 -13   1  429.31   35.00  -5
  -3 -13   2  429.31   35.00  -4
  -1 -13  -2  429.31   35.00  -3
   3 -13  -1  429.31   35.00  -2
  -2 -13   3  429.31   35.00   1
   1  13  -3  383.95   33.00  -6
   2  13   1  383.95   33.00  -5
  -3  13   2  383.95   33.00  -4
  -1  13  -2  383.95   33.00  -3
   3  13  -1  383.95   33.00  -2
  -2  13   3  383.95   33.00   1
   2 -13  -3  417.64   33.02  -6
   1 -13   2  417.64   33.02  -5
  -3 -13   1  417.64   33.02  -4
  -2 -13  -1  417.64   33.02  -3
   3 -13  -2  417.64   33.02  -2
  -1 -13   3  417.64   33.02   1
   2  13  -3  365.83   33.41  -6
   1  13   2  365.83   33.41  -5
  -3  13   1  365.83   33.41  -4
  -2  13  -1  365.83   33.41  -3
   3  13  -2  365.83   33.41  -2
  -1  13   3  365.83   33.41   1
   3 -13  -3  431.49   33.29  -6
   0 -13   3  431.49   33.29  -5
  -3 -13   0  431.49   33.29  -4
  -3 -13   0  431.49   33.29  -3
   3 -13  -3  431.49   33.29  -2
   0 -13   3  431.49   33.29   1
   3  13  -3  399.29   36.11  -6
   0  13   3  399.29   36.11  -5
  -3  13   0  399.29   36.11  -4
  -3  13   0  399.29   36.11  -3
   3  13  -3  399.29   36.11  -2
   0  13   3  399.29   36.11   1
   4 -13  -3  689.53   26.81  -6
  -1 -13   4  689.53   26.81  -5
  -3 -13  -1  689.53   26.81  -4
  -4 -13   1  689.53   26.81  -3
   3 -13  -4  689.53   26.81  -2
   1 -13   3  689.53   26.81   1
   4  13  -3  700.17   38.14  -6
  -1  13   4  700.17   38.14  -5
  -3  13  -1  700.17   38.14  -4
  -4  13   1  700.17   38.14  -3
   3  13  -4  700.17   38.14  -2
   1  13   3  700.17   38.14   1
   5 -13  -3  858.15   30.83  -6
  -2 -13   5  858.15   30.83  -5
  -3 -13  -2  858.15   30.83  -4
  -5 -13   2  858.15   30.83  -3
   3 -13  -5  858.15   30.83  -2
   2 -13   3  858.15   30.83   1
   5  13  -3  856.23   40.02  -6
  -2  13   5  856.23   40.02  -5
  -3  13  -2  856.23   40.02  -4
  -5  13   2  856.23   40.02  -3
   3  13  -5  856.23   40.02  -2
   2  13   3  856.23   40.02   1
   6 -13  -3  783.32   31.54  -6
  -3 -13   6  783.32   31.54  -5
  -3 -13  -3  783.32   31.54  -4
  -6 -13   3  783.32   31.54  -3
   3 -13  -6  783.32   31.54  -2
   3 -13   3  783.32   31.54   1
   6  13  -3  647.48   39.37  -6
  -3  13   6  647.48   39.37  -5
  -3  13  -3  647.48   39.37  -4
  -6  13   3  647.48   39.37  -3
   3  13  -6  647.48   39.37  -2
   3  13   3  647.48   39.37   1
   7 -13  -3  688.67   44.57  -6
  -4 -13   7  688.67   44.57  -5
  -3 -13  -4  688.67   44.57  -4
  -7 -13   4  688.67   44.57  -3
   3 -13  -7  688.67   44.57  -2
   4 -13   3  688.67   44.57   1
  -2  14  -3  784.11   25.04  -6
   5  14  -2  784.11   25.04  -5
  -3  14   5  784.11   25.04  -4
   2  14  -5  784.11   25.04  -3
   3  14   2  784.11   25.04  -2
  -5  14   3  784.11   25.04   1
  -1  14  -3 1057.40   26.85  -6
   4  14  -1 1057.40   26.85  -5
  -3  14   4 1057.40   26.85  -4
   1  14  -4 1057.40   26.85  -3
   3  14   1 1057.40   26.85  -2
  -4  14   3 1057.40   26.85   1
   0 -14  -3  879.17   41.14  -6
   3 -14   0  879.17   41.14  -5
  -3 -14   3  879.17   41.14  -4
   0 -14  -3  879.17   41.14  -3
   3 -14   0  879.17   41.14  -2
  -3 -14   3  879.17   41.14   1
   0  14  -3 1027.86   40.17  -6
   3  14   0 1027.86   40.17  -5
  -3  14   3 1027.86   40.17  -4
   0  14  -3 1027.86   40.17  -3
   3  14   0 1027.86   40.17  -2
  -3  14   3 1027.86   40.17   1
   1 -14  -3 1150.50   42.57  -6
   2 -14   1 1150.50   42.57  -5
  -3 -14   2 1150.50   42.57  -4
  -1 -14  -2 1150.50   42.57  -3
   3 -14  -1 1150.50   42.57  -2
  -2 -14   3 1150.50   42.57   1
   1  14  -3 1290.51   44.13  -6
   2  14   1 1290.51   44.13  -5
  -3  14   2 1290.51   44.13  -4
  -1  14  -2 1290.51   44.13  -3
   3  14  -1 1290.51   44.13  -2
  -2  14   3 1290.51   44.13   1
   2 -14  -3 1004.30   38.98  -6
   1 -14   2 1004.30   38.98  -5
  -3 -14   1 1004.30   38.98  -4
  -2 -14  -1 1004.30   38.98  -3
   3 -14  -2 1004.30   38.98  -2
  -1 -14   3 1004.30   38.98   1
   2  14  -3 1079.08   41.14  -6
   1  14   2 1079.08   41.14  -5
  -3  14   1 1079.08   41.14  -4
  -2  14  -1 1079.08   41.14  -3
   3  14  -2 1079.08   41.14  -2
  -1  14   3 1079.08   41.14   1
   3  14  -3  795.98   38.57  -6
   0  14   3  795.98   38.57  -5
  -3  14   0  795.98   38.57  -4
  -3  14   0  795.98   38.57  -3
   3  14  -3  795.98   38.57  -2
   0  14   3  795.98   38.57   1
   4 -14  -3 1039.68   45.59  -6
  -1 -14   4 1039.68   45.59  -5
  -3 -14  -1 1039.68   45.59  -4
  -4 -14   1 1039.68   45.59  -3
   3 -14  -4 1039.68   45.59  -2
   1 -14   3 1039.68   45.59   1
   4  14  -3  807.99   40.05  -6
  -1  14   4  807.99   40.05  -5
  -3  14  -1  807.99   40.05  -4
  -4  14   1  807.99   40.05  -3
   3  14  -4  807.99   40.05  -2
   1  14   3  807.99   40.05   1
   5 -14  -3  736.96   44.30  -6
  -2 -14   5  736.96   44.30  -5
  -3 -14  -2  736.96   44.30  -4
  -5 -14   2  736.96   44.30  -3
   3 -14  -5  736.96   44.30  -2
   2 -14   3  736.96   44.30   1
   5  14  -3  711.61   39.74  -6
  -2  14   5  711.61   39.74  -5
  -3  14  -2  711.61   39.74  -4
  -5  14   2  711.61   39.74  -3
   3  14  -5  711.61   39.74  -2
   2  14   3  711.61   39.74   1
   6 -14  -3  531.79   31.89  -6
  -3 -14   6  531.79   31.89  -5
  -3 -14  -3  531.79   31.89  -4
  -6 -14   3  531.79   31.89  -3
   3 -14  -6  531.79   31.89  -2
   3 -14   3  531.79   31.89   1
  -1  15  -3  403.66   34.05  -6
   4  15  -1  403.66   34.05  -5
  -3  15   4  403.66   34.05  -4
   1  15  -4  403.66   34.05  -3
   3  15   1  403.66   34.05  -2
  -4  15   3  403.66   34.05   1
   0 -15  -3  196.94   39.77  -6
   3 -15   0  196.94   39.77  -5
  -3 -15   3  196.94   39.77  -4
   0 -15  -3  196.94   39.77  -3
   3 -15   0  196.94   39.77  -2
  -3 -15   3  196.94   39.77   1
   1 -15  -3  266.67   37.97  -6
   2 -15   1  266.67   37.97  -5
  -3 -15   2  266.67   37.97  -4
  -1 -15  -2  266.67   37.97  -3
   3 -15  -1  266.67   37.97  -2
  -2 -15   3  266.67   37.97   1
   1  15  -3  266.95   35.96  -6
   2  15   1  266.95   35.96  -5
  -3  15   2  266.95   35.96  -4
  -1  15  -2  266.95   35.96  -3
   3  15  -1  266.95   35.96  -2
  -2  15   3  266.95   35.96   1
   2 -15  -3  246.96   35.08  -6
   1 -15   2  246.96   35.08  -5
  -3 -15   1  246.96   35.08  -4
  -2 -15  -1  246.96   35.08  -3
   3 -15  -2  246.96   35.08  -2
  -1 -15   3  246.96   35.08   1
   2  15  -3  301.81   41.31  -6
   1  15   2  301.81   41.31  -5
  -3  15   1  301.81   41.31  -4
  -2  15  -1  301.81   41.31  -3
   3  15  -2  301.81   41.31  -2
  -1  15   3  301.81   41.31   1
   3  15  -3  209.95   36.95  -6
   0  15   3  209.95   36.95  -5
  -3  15   0  209.95   36.95  -4
  -3  15   0  209.95   36.95  -3
   3  15  -3  209.95   36.95  -2
   0  15   3  209.95   36.95   1
   4 -15  -3  360.74   41.38  -6
  -1 -15   4  360.74   41.38  -5
  -3 -15  -1  360.74   41.38  -4
  -4 -15   1  360.74   41.38  -3
   3 -15  -4  360.74   41.38  -2
   1 -15   3  360.74   41.38   1
   4  15  -3  372.60   39.97  -6
  -1  15   4  372.60   39.97  -5
  -3  15  -1  372.60   39.97  -4
  -4  15   1  372.60   39.97  -3
   3  15  -4  372.60   39.97  -2
   1  15   3  372.60   39.97   1
   5  15  -3  460.26   41.52  -6
  -2  15   5  460.26   41.52  -5
  -3  15  -2  460.26   41.52  -4
  -5  15   2  460.26   41.52  -3
   3  15  -5  460.26   41.52  -2
   2  15   3  460.26   41.52   1
  -5   0  -4  489.64   35.09  -6
   9   0  -5  489.64   35.09  -5
  -4   0   9  489.64   35.09  -4
   5   0  -9  489.64   35.09  -3
   4   0   5  489.64   35.09  -2
  -9   0   4  489.64   35.09   1
  -4   0  -4  730.86   33.78  -6
   8   0  -4  730.86   33.78  -5
  -4   0   8  730.86   33.78  -4
   4   0  -8  730.86   33.78  -3
   4   0   4  730.86   33.78  -2
  -8   0   4  730.86   33.78   1
  -3   0  -4  655.71   28.68  -6
   7   0  -3  655.71   28.68  -5
  -4   0   7  655.71   28.68  -4
   3   0  -7  655.71   28.68  -3
   4   0   3  655.71   28.68  -2
  -7   0   4  655.71   28.68   1
  -2   0  -4 1535.91   30.50  -6
   6   0  -2 1535.91   30.50  -5
  -4   0   6 1535.91   30.50  -4
   2   0  -6 1535.91   30.50  -3
   4   0   2 1535.91   30.50  -2
  -6   0   4 1535.91   30.50   1
  -1   0  -4 2051.93   31.16  -6
   5   0  -1 2051.93   31.16  -5
  -4   0   5 2051.93   31.16  -4
   1   0  -5 2051.93   31.16  -3
   4   0   1 2051.93   31.16  -2
  -5   0   4 2051.93   31.16   1
   0   0  -4 2499.74   18.20  -6
   4   0   0 2499.74   18.20  -5
  -4   0   4 2499.74   18.20  -4
   0   0  -4 2499.74   18.20  -3
   4   0   0 2499.74   18.20  -2
  -4   0   4 2499.74   18.20   1
   1   0  -4 3796.83   17.45  -6
   3   0   1 3796.83   17.45  -5
  -4   0   3 3796.83   17.45  -4
  -1   0  -3 3796.83   17.45  -3
   4   0  -1 3796.83   17.45  -2
  -3   0   4 3796.83   17.45   1
   2   0  -4 9573.66   23.49  -6
   2   0   2 9573.66   23.49  -5
  -4   0   2 9573.66   23.49  -4
  -2   0  -2 9573.66   23.49  -3
   4   0  -2 9573.66   23.49  -2
  -2   0   4 9573.66   23.49   1
   3   0  -4 3711.45   20.39  -6
   1   0   3 3711.45   20.39  -5
  -4   0   1 3711.45   20.39  -4
  -3   0  -1 3711.45   20.39  -3
   4   0  -3 3711.45   20.39  -2
  -1   0   4 3711.45   20.39   1
   4   0  -4 2453.55   19.59  -6
   0   0   4 2453.55   19.59  -5
  -4   0   0 2453.55   19.59  -4
  -4   0   0 2453.55   19.59  -3
   4   0  -4 2453.55   19.59  -2
   0   0   4 2453.55   19.59   1
   5   0  -4 2030.90   18.37  -6
  -1   0   5 2030.90   18.37  -5
  -4   0  -1 2030.90   18.37  -4
  -5   0   1 2030.90   18.37  -3
   4   0  -5 2030.90   18.37  -2
   1   0   4 2030.90   18.37   1
   6   0  -4 1159.09   14.00  -6
  -2   0   6 1159.09   14.00  -5
  -4   0  -2 1159.09   14.00  -4
  -6   0   2 1159.09   14.00  -3
   4   0  -6 1159.09   14.00  -2
   2   0   4 1159.09   14.00   1
   7   0  -4  578.33   22.96  -6
  -3   0   7  578.33   22.96  -5
  -4   0  -3  578.33   22.96  -4
  -7   0   3  578.33   22.96  -3
   4   0  -7  578.33   22.96  -2
   3   0   4  578.33   22.96   1
   8   0  -4  581.92   25.06  -6
  -4   0   8  581.92   25.06  -5
  -4   0  -4  581.92   25.06  -4
  -8   0   4  581.92   25.06  -3
   4   0  -8  581.92   25.06  -2
   4   0   4  581.92   25.06   1
   9   0  -4  550.79   29.74  -6
  -5   0   9  550.79   29.74  -5
  -4   0  -5  550.79   29.74  -4
  -9   0   5  550.79   29.74  -3
   4   0  -9  550.79   29.74  -2
   5   0   4  550.79   29.74   1
  10   0  -4  211.65   24.25  -6
  -6   0  10  211.65   24.25  -5
  -4   0  -6  211.65   24.25  -4
 -10   0   6  211.65   24.25  -3
   4   0 -10  211.65   24.25  -2
   6   0   4  211.65   24.25   1
  -5  -1  -4   74.65   31.62  -6
   9  -1  -5   74.65   31.62  -5
  -4  -1   9   74.65   31.62  -4
   5  -1  -9   74.65   31.62  -3
   4  -1   5   74.65   31.62  -2
  -9  -1   4   74.65   31.62   1
  -5   1  -4  110.56   33.58  -6
   9   1  -5  110.56   33.58  -5
  -4   1   9  110.56   33.58  -4
   5   1  -9  110.56   33.58  -3
   4   1   5  110.56   33.58  -2
  -9   1   4  110.56   33.58   1
  -4  -1  -4  339.39   27.71  -6
   8  -1  -4  339.39   27.71  -5
  -4  -1   8  339.39   27.71  -4
   4  -1  -8  339.39   27.71  -3
   4  -1   4  339.39   27.71  -2
  -8  -1   4  339.39   27.71   1
  -4   1  -4  626.66   33.40  -6
   8   1  -4  626.66   33.40  -5
  -4   1   8  626.66   33.40  -4
   4   1  -8  626.66   33.40  -3
   4   1   4  626.66   33.40  -2
  -8   1   4  626.66   33.40   1
  -3   1  -4  778.62   12.06  -6
   7   1  -3  778.62   12.06  -5
  -4   1   7  778.62   12.06  -4
   3   1  -7  778.62   12.06  -3
   4   1   3  778.62   12.06  -2
  -7   1   4  778.62   12.06   1
  -2  -1  -4 1243.46   29.04  -6
   6  -1  -2 1243.46   29.04  -5
  -4  -1   6 1243.46   29.04  -4
   2  -1  -6 1243.46   29.04  -3
   4  -1   2 1243.46   29.04  -2
  -6  -1   4 1243.46   29.04   1
  -2   1  -4 1403.40   30.36  -6
   6   1  -2 1403.40   30.36  -5
  -4   1   6 1403.40   30.36  -4
   2   1  -6 1403.40   30.36  -3
   4   1   2 1403.40   30.36  -2
  -6   1   4 1403.40   30.36   1
  -1  -1  -4 1959.81   31.46  -6
   5  -1  -1 1959.81   31.46  -5
  -4  -1   5 1959.81   31.46  -4
   1  -1  -5 1959.81   31.46  -3
   4  -1   1 1959.81   31.46  -2
  -5  -1   4 1959.81   31.46   1
  -1   1  -4 1939.01   27.39  -6
   5   1  -1 1939.01   27.39  -5
  -4   1   5 1939.01   27.39  -4
   1   1  -5 1939.01   27.39  -3
   4   1   1 1939.01   27.39  -2
  -5   1   4 1939.01   27.39   1
   0  -1  -4 1875.56   15.77  -6
   4  -1   0 1875.56   15.77  -5
  -4  -1   4 1875.56   15.77  -4
   0  -1  -4 1875.56   15.77  -3
   4  -1   0 1875.56   15.77  -2
  -4  -1   4 1875.56   15.77   1
   0   1  -4 1847.46   16.36  -6
   4   1   0 1847.46   16.36  -5
  -4   1   4 1847.46   16.36  -4
   0   1  -4 1847.46   16.36  -3
   4   1   0 1847.46   16.36  -2
  -4   1   4 1847.46   16.36   1
   1  -1  -4 1692.03   10.18  -6
   3  -1   1 1692.03   10.18  -5
  -4  -1   3 1692.03   10.18  -4
  -1  -1  -3 1692.03   10.18  -3
   4  -1  -1 1692.03   10.18  -2
  -3  -1   4 1692.03   10.18   1
   1   1  -4 1755.09   13.94  -6
   3   1   1 1755.09   13.94  -5
  -4   1   3 1755.09   13.94  -4
  -1   1  -3 1755.09   13.94  -3
   4   1  -1 1755.09   13.94  -2
  -3   1   4 1755.09   13.94   1
   2  -1  -4 2976.63   15.37  -6
   2  -1   2 2976.63   15.37  -5
  -4  -1   2 2976.63   15.37  -4
  -2  -1  -2 2976.63   15.37  -3
   4  -1  -2 2976.63   15.37  -2
  -2  -1   4 2976.63   15.37   1
   2   1  -4 2960.51   13.80  -6
   2   1   2 2960.51   13.80  -5
  -4   1   2 2960.51   13.80  -4
  -2   1  -2 2960.51   13.80  -3
   4   1  -2 2960.51   13.80  -2
  -2   1   4 2960.51   13.80   1
   3  -1  -4 1710.53   15.75  -6
   1  -1   3 1710.53   15.75  -5
  -4  -1   1 1710.53   15.75  -4
  -3  -1  -1 1710.53   15.75  -3
   4  -1  -3 1710.53   15.75  -2
  -1  -1   4 1710.53   15.75   1
   3   1  -4 1801.47   14.54  -6
   1   1   3 1801.47   14.54  -5
  -4   1   1 1801.47   14.54  -4
  -3   1  -1 1801.47   14.54  -3
   4   1  -3 1801.47   14.54  -2
  -1   1   4 1801.47   14.54   1
   4  -1  -4 1706.94   29.72  -6
   0  -1   4 1706.94   29.72  -5
  -4  -1   0 1706.94   29.72  -4
  -4  -1   0 1706.94   29.72  -3
   4  -1  -4 1706.94   29.72  -2
   0  -1   4 1706.94   29.72   1
   4   1  -4 1705.63   20.57  -6
   0   1   4 1705.63   20.57  -5
  -4   1   0 1705.63   20.57  -4
  -4   1   0 1705.63   20.57  -3
   4   1  -4 1705.63   20.57  -2
   0   1   4 1705.63   20.57   1
   5  -1  -4 1835.74   32.78  -6
  -1  -1   5 1835.74   32.78  -5
  -4  -1  -1 1835.74   32.78  -4
  -5  -1   1 1835.74   32.78  -3
   4  -1  -5 1835.74   32.78  -2
   1  -1   4 1835.74   32.78   1
   5   1  -4 1823.97   16.77  -6
  -1   1   5 1823.97   16.77  -5
  -4   1  -1 1823.97   16.77  -4
  -5   1   1 1823.97   16.77  -3
   4   1  -5 1823.97   16.77  -2
   1   1   4 1823.97   16.77   1
   6  -1  -4 1297.72   15.84  -6
  -2  -1   6 1297.72   15.84  -5
  -4  -1  -2 1297.72   15.84  -4
  -6  -1   2 1297.72   15.84  -3
   4  -1  -6 1297.72   15.84  -2
   2  -1   4 1297.72   15.84   1
   6   1  -4 1376.72   16.18  -6
  -2   1   6 1376.72   16.18  -5
  -4   1  -2 1376.72   16.18  -4
  -6   1   2 1376.72   16.18  -3
   4   1  -6 1376.72   16.18  -2
   2   1   4 1376.72   16.18   1
   7  -1  -4 1046.83   24.90  -6
  -3  -1   7 1046.83   24.90  -5
  -4  -1  -3 1046.83   24.90  -4
  -7  -1   3 1046.83   24.90  -3
   4  -1  -7 1046.83   24.90  -2
   3  -1   4 1046.83   24.90   1
   7   1  -4 1163.17   24.34  -6
  -3   1   7 1163.17   24.34  -5
  -4   1  -3 1163.17   24.34  -4
  -7   1   3 1163.17   24.34  -3
   4   1  -7 1163.17   24.34  -2
   3   1   4 1163.17   24.34   1
   8  -1  -4 1236.44   28.14  -6
  -4  -1   8 1236.44   28.14  -5
  -4  -1  -4 1236.44   28.14  -4
  -8  -1   4 1236.44   28.14  -3
   4  -1  -8 1236.44   28.14  -2
   4  -1   4 1236.44   28.14   1
   8   1  -4 1414.17   28.48  -6
  -4   1   8 1414.17   28.48  -5
  -4   1  -4 1414.17   28.48  -4
  -8   1   4 1414.17   28.48  -3
   4   1  -8 1414.17   28.48  -2
   4   1   4 1414.17   28.48   1
   9  -1  -4 1685.43   34.78  -6
  -5  -1   9 1685.43   34.78  -5
  -4  -1  -5 1685.43   34.78  -4
  -9  -1   5 1685.43   34.78  -3
   4  -1  -9 1685.43   34.78  -2
   5  -1   4 1685.43   34.78   1
   9   1  -4 1727.95   33.86  -6
  -5   1   9 1727.95   33.86  -5
  -4   1  -5 1727.95   33.86  -4
  -9   1   5 1727.95   33.86  -3
   4   1  -9 1727.95   33.86  -2
   5   1   4 1727.95   33.86   1
  10  -1  -4  986.77   46.54  -6
  -6  -1  10  986.77   46.54  -5
  -4  -1  -6  986.77   46.54  -4
 -10  -1   6  986.77   46.54  -3
   4  -1 -10  986.77   46.54  -2
   6  -1   4  986.77   46.54   1
  10   1  -4  948.72   41.38  -6
  -6   1  10  948.72   41.38  -5
  -4   1  -6  948.72   41.38  -4
 -10   1   6  948.72   41.38  -3
   4   1 -10  948.72   41.38  -2
   6   1   4  948.72   41.38   1
  -5  -2  -4  654.33   35.48  -6
   9  -2  -5  654.33   35.48  -5
  -4  -2   9  654.33   35.48  -4
   5  -2  -9  654.33   35.48  -3
   4  -2   5  654.33   35.48  -2
  -9  -2   4  654.33   35.48   1
  -5   2  -4  543.32   34.07  -6
   9   2  -5  543.32   34.07  -5
  -4   2   9  543.32   34.07  -4
   5   2  -9  543.32   34.07  -3
   4   2   5  543.32   34.07  -2
  -9   2   4  543.32   34.07   1
  -4  -2  -4  567.57   30.09  -6
   8  -2  -4  567.57   30.09  -5
  -4  -2   8  567.57   30.09  -4
   4  -2  -8  567.57   30.09  -3
   4  -2   4  567.57   30.09  -2
  -8  -2   4  567.57   30.09   1
  -4   2  -4  528.20   30.61  -6
   8   2  -4  528.20   30.61  -5
  -4   2   8  528.20   30.61  -4
   4   2  -8  528.20   30.61  -3
   4   2   4  528.20   30.61  -2
  -8   2   4  528.20   30.61   1
  -3  -2  -4  754.66   20.94  -6
   7  -2  -3  754.66   20.94  -5
  -4  -2   7  754.66   20.94  -4
   3  -2  -7  754.66   20.94  -3
   4  -2   3  754.66   20.94  -2
  -7  -2   4  754.66   20.94   1
  -3   2  -4  697.82   28.70  -6
   7   2  -3  697.82   28.70  -5
  -4   2   7  697.82   28.70  -4
   3   2  -7  697.82   28.70  -3
   4   2   3  697.82   28.70  -2
  -7   2   4  697.82   28.70   1
  -2  -2  -4 1067.42   20.53  -6
   6  -2  -2 1067.42   20.53  -5
  -4  -2   6 1067.42   20.53  -4
   2  -2  -6 1067.42   20.53  -3
   4  -2   2 1067.42   20.53  -2
  -6  -2   4 1067.42   20.53   1
  -1  -2  -4 1305.28   27.16  -6
   5  -2  -1 1305.28   27.16  -5
  -4  -2   5 1305.28   27.16  -4
   1  -2  -5 1305.28   27.16  -3
   4  -2   1 1305.28   27.16  -2
  -5  -2   4 1305.28   27.16   1
  -1   2  -4 1391.67   18.23  -6
   5   2  -1 1391.67   18.23  -5
  -4   2   5 1391.67   18.23  -4
   1   2  -5 1391.67   18.23  -3
   4   2   1 1391.67   18.23  -2
  -5   2   4 1391.67   18.23   1
   0  -2  -4 1534.63   14.67  -6
   4  -2   0 1534.63   14.67  -5
  -4  -2   4 1534.63   14.67  -4
   0  -2  -4 1534.63   14.67  -3
   4  -2   0 1534.63   14.67  -2
  -4  -2   4 1534.63   14.67   1
   0   2  -4 1842.82   17.75  -6
   4   2   0 1842.82   17.75  -5
  -4   2   4 1842.82   17.75  -4
   0   2  -4 1842.82   17.75  -3
   4   2   0 1842.82   17.75  -2
  -4   2   4 1842.82   17.75   1
   1  -2  -4 3322.24   12.66  -6
   3  -2   1 3322.24   12.66  -5
  -4  -2   3 3322.24   12.66  -4
  -1  -2  -3 3322.24   12.66  -3
   4  -2  -1 3322.24   12.66  -2
  -3  -2   4 3322.24   12.66   1
   1   2  -4 3144.41   19.67  -6
   3   2   1 3144.41   19.67  -5
  -4   2   3 3144.41   19.67  -4
  -1   2  -3 3144.41   19.67  -3
   4   2  -1 3144.41   19.67  -2
  -3   2   4 3144.41   19.67   1
   2  -2  -4 3858.00   21.46  -6
   2  -2   2 3858.00   21.46  -5
  -4  -2   2 3858.00   21.46  -4
  -2  -2  -2 3858.00   21.46  -3
   4  -2  -2 3858.00   21.46  -2
  -2  -2   4 3858.00   21.46   1
   2   2  -4 3942.87   16.79  -6
   2   2   2 3942.87   16.79  -5
  -4   2   2 3942.87   16.79  -4
  -2   2  -2 3942.87   16.79  -3
   4   2  -2 3942.87   16.79  -2
  -2   2   4 3942.87   16.79   1
   3  -2  -4 3349.24   32.28  -6
   1  -2   3 3349.24   32.28  -5
  -4  -2   1 3349.24   32.28  -4
  -3  -2  -1 3349.24   32.28  -3
   4  -2  -3 3349.24   32.28  -2
  -1  -2   4 3349.24   32.28   1
   3   2  -4 3352.57   14.15  -6
   1   2   3 3352.57   14.15  -5
  -4   2   1 3352.57   14.15  -4
  -3   2  -1 3352.57   14.15  -3
   4   2  -3 3352.57   14.15  -2
  -1   2   4 3352.57   14.15   1
   4  -2  -4 1399.94   27.66  -6
   0  -2   4 1399.94   27.66  -5
  -4  -2   0 1399.94   27.66  -4
  -4  -2   0 1399.94   27.66  -3
   4  -2  -4 1399.94   27.66  -2
   0  -2   4 1399.94   27.66   1
   4   2  -4 1273.53    8.93  -6
   0   2   4 1273.53    8.93  -5
  -4   2   0 1273.53    8.93  -4
  -4   2   0 1273.53    8.93  -3
   4   2  -4 1273.53    8.93  -2
   0   2   4 1273.53    8.93   1
   5  -2  -4 1159.23   29.59  -6
  -1  -2   5 1159.23   29.59  -5
  -4  -2  -1 1159.23   29.59  -4
  -5  -2   1 1159.23   29.59  -3
   4  -2  -5 1159.23   29.59  -2
   1  -2   4 1159.23   29.59   1
   5   2  -4 1231.43   15.06  -6
  -1   2   5 1231.43   15.06  -5
  -4   2  -1 1231.43   15.06  -4
  -5   2   1 1231.43   15.06  -3
   4   2  -5 1231.43   15.06  -2
   1   2   4 1231.43   15.06   1
   6  -2  -4  819.28   31.86  -6
  -2  -2   6  819.28   31.86  -5
  -4  -2  -2  819.28   31.86  -4
  -6  -2   2  819.28   31.86  -3
   4  -2  -6  819.28   31.86  -2
   2  -2   4  819.28   31.86   1
   6   2  -4  855.49   18.81  -6
  -2   2   6  855.49   18.81  -5
  -4   2  -2  855.49   18.81  -4
  -6   2   2  855.49   18.81  -3
   4   2  -6  855.49   18.81  -2
   2   2   4  855.49   18.81   1
   7  -2  -4  643.74   24.04  -6
  -3  -2   7  643.74   24.04  -5
  -4  -2  -3  643.74   24.04  -4
  -7  -2   3  643.74   24.04  -3
   4  -2  -7  643.74   24.04  -2
   3  -2   4  643.74   24.04   1
   7   2  -4  703.34   22.65  -6
  -3   2   7  703.34   22.65  -5
  -4   2  -3  703.34   22.65  -4
  -7   2   3  703.34   22.65  -3
   4   2  -7  703.34   22.65  -2
   3   2   4  703.34   22.65   1
   8  -2  -4  473.58   24.82  -6
  -4  -2   8  473.58   24.82  -5
  -4  -2  -4  473.58   24.82  -4
  -8  -2   4  473.58   24.82  -3
   4  -2  -8  473.58   24.82  -2
   4  -2   4  473.58   24.82   1
   8   2  -4  408.41   15.94  -6
  -4   2   8  408.41   15.94  -5
  -4   2  -4  408.41   15.94  -4
  -8   2   4  408.41   15.94  -3
   4   2  -8  408.41   15.94  -2
   4   2   4  408.41   15.94   1
   9  -2  -4  526.46   29.67  -6
  -5  -2   9  526.46   29.67  -5
  -4  -2  -5  526.46   29.67  -4
  -9  -2   5  526.46   29.67  -3
   4  -2  -9  526.46   29.67  -2
   5  -2   4  526.46   29.67   1
   9   2  -4  467.91   27.73  -6
  -5   2   9  467.91   27.73  -5
  -4   2  -5  467.91   27.73  -4
  -9   2   5  467.91   27.73  -3
   4   2  -9  467.91   27.73  -2
   5   2   4  467.91   27.73   1
  10  -2  -4  249.04   42.97  -6
  -6  -2  10  249.04   42.97  -5
  -4  -2  -6  249.04   42.97  -4
 -10  -2   6  249.04   42.97  -3
   4  -2 -10  249.04   42.97  -2
   6  -2   4  249.04   42.97   1
  10   2  -4  239.10   35.06  -6
  -6   2  10  239.10   35.06  -5
  -4   2  -6  239.10   35.06  -4
 -10   2   6  239.10   35.06  -3
   4   2 -10  239.10   35.06  -2
   6   2   4  239.10   35.06   1
  -5  -3  -4   50.42   31.02  -6
   9  -3  -5   50.42   31.02  -5
  -4  -3   9   50.42   31.02  -4
   5  -3  -9   50.42   31.02  -3
   4  -3   5   50.42   31.02  -2
  -9  -3   4   50.42   31.02   1
  -5   3  -4  134.18   33.45  -6
   9   3  -5  134.18   33.45  -5
  -4   3   9  134.18   33.45  -4
   5   3  -9  134.18   33.45  -3
   4   3   5  134.18   33.45  -2
  -9   3   4  134.18   33.45   1
  -4  -3  -4  421.06   26.45  -6
   8  -3  -4  421.06   26.45  -5
  -4  -3   8  421.06   26.45  -4
   4  -3  -8  421.06   26.45  -3
   4  -3   4  421.06   26.45  -2
  -8  -3   4  421.06   26.45   1
  -4   3  -4  426.71   32.28  -6
   8   3  -4  426.71   32.28  -5
  -4   3   8  426.71   32.28  -4
   4   3  -8  426.71   32.28  -3
   4   3   4  426.71   32.28  -2
  -8   3   4  426.71   32.28   1
  -3  -3  -4  533.67   25.52  -6
   7  -3  -3  533.67   25.52  -5
  -4  -3   7  533.67   25.52  -4
   3  -3  -7  533.67   25.52  -3
   4  -3   3  533.67   25.52  -2
  -7  -3   4  533.67   25.52   1
  -3   3  -4  737.25   28.85  -6
   7   3  -3  737.25   28.85  -5
  -4   3   7  737.25   28.85  -4
   3   3  -7  737.25   28.85  -3
   4   3   3  737.25   28.85  -2
  -7   3   4  737.25   28.85   1
  -2  -3  -4  673.37   24.90  -6
   6  -3  -2  673.37   24.90  -5
  -4  -3   6  673.37   24.90  -4
   2  -3  -6  673.37   24.90  -3
   4  -3   2  673.37   24.90  -2
  -6  -3   4  673.37   24.90   1
  -2   3  -4  729.42   18.76  -6
   6   3  -2  729.42   18.76  -5
  -4   3   6  729.42   18.76  -4
   2   3  -6  729.42   18.76  -3
   4   3   2  729.42   18.76  -2
  -6   3   4  729.42   18.76   1
  -1  -3  -4 1126.18   28.34  -6
   5  -3  -1 1126.18   28.34  -5
  -4  -3   5 1126.18   28.34  -4
   1  -3  -5 1126.18   28.34  -3
   4  -3   1 1126.18   28.34  -2
  -5  -3   4 1126.18   28.34   1
  -1   3  -4 1205.68   18.54  -6
   5   3  -1 1205.68   18.54  -5
  -4   3   5 1205.68   18.54  -4
   1   3  -5 1205.68   18.54  -3
   4   3   1 1205.68   18.54  -2
  -5   3   4 1205.68   18.54   1
   0  -3  -4  984.84   15.72  -6
   4  -3   0  984.84   15.72  -5
  -4  -3   4  984.84   15.72  -4
   0  -3  -4  984.84   15.72  -3
   4  -3   0  984.84   15.72  -2
  -4  -3   4  984.84   15.72   1
   0   3  -4 1046.77   14.86  -6
   4   3   0 1046.77   14.86  -5
  -4   3   4 1046.77   14.86  -4
   0   3  -4 1046.77   14.86  -3
   4   3   0 1046.77   14.86  -2
  -4   3   4 1046.77   14.86   1
   1  -3  -4 1048.18   12.00  -6
   3  -3   1 1048.18   12.00  -5
  -4  -3   3 1048.18   12.00  -4
  -1  -3  -3 1048.18   12.00  -3
   4  -3  -1 1048.18   12.00  -2
  -3  -3   4 1048.18   12.00   1
   1   3  -4 1032.33   15.41  -6
   3   3   1 1032.33   15.41  -5
  -4   3   3 1032.33   15.41  -4
  -1   3  -3 1032.33   15.41  -3
   4   3  -1 1032.33   15.41  -2
  -3   3   4 1032.33   15.41   1
   2  -3  -4 1003.02   17.30  -6
   2  -3   2 1003.02   17.30  -5
  -4  -3   2 1003.02   17.30  -4
  -2  -3  -2 1003.02   17.30  -3
   4  -3  -2 1003.02   17.30  -2
  -2  -3   4 1003.02   17.30   1
   2   3  -4 1049.97   21.52  -6
   2   3   2 1049.97   21.52  -5
  -4   3   2 1049.97   21.52  -4
  -2   3  -2 1049.97   21.52  -3
   4   3  -2 1049.97   21.52  -2
  -2   3   4 1049.97   21.52   1
   3  -3  -4 1137.14   12.27  -6
   1  -3   3 1137.14   12.27  -5
  -4  -3   1 1137.14   12.27  -4
  -3  -3  -1 1137.14   12.27  -3
   4  -3  -3 1137.14   12.27  -2
  -1  -3   4 1137.14   12.27   1
   3   3  -4 1072.16    9.47  -6
   1   3   3 1072.16    9.47  -5
  -4   3   1 1072.16    9.47  -4
  -3   3  -1 1072.16    9.47  -3
   4   3  -3 1072.16    9.47  -2
  -1   3   4 1072.16    9.47   1
   4  -3  -4  827.76   14.53  -6
   0  -3   4  827.76   14.53  -5
  -4  -3   0  827.76   14.53  -4
  -4  -3   0  827.76   14.53  -3
   4  -3  -4  827.76   14.53  -2
   0  -3   4  827.76   14.53   1
   5  -3  -4 1059.84   12.23  -6
  -1  -3   5 1059.84   12.23  -5
  -4  -3  -1 1059.84   12.23  -4
  -5  -3   1 1059.84   12.23  -3
   4  -3  -5 1059.84   12.23  -2
   1  -3   4 1059.84   12.23   1
   5   3  -4 1019.25   12.03  -6
  -1   3   5 1019.25   12.03  -5
  -4   3  -1 1019.25   12.03  -4
  -5   3   1 1019.25   12.03  -3
   4   3  -5 1019.25   12.03  -2
   1   3   4 1019.25   12.03   1
   6  -3  -4  808.92   20.16  -6
  -2  -3   6  808.92   20.16  -5
  -4  -3  -2  808.92   20.16  -4
  -6  -3   2  808.92   20.16  -3
   4  -3  -6  808.92   20.16  -2
   2  -3   4  808.92   20.16   1
   6   3  -4  865.01   11.53  -6
  -2   3   6  865.01   11.53  -5
  -4   3  -2  865.01   11.53  -4
  -6   3   2  865.01   11.53  -3
   4   3  -6  865.01   11.53  -2
   2   3   4  865.01   11.53   1
   7  -3  -4  814.69   24.63  -6
  -3  -3   7  814.69   24.63  -5
  -4  -3  -3  814.69   24.63  -4
  -7  -3   3  814.69   24.63  -3
   4  -3  -7  814.69   24.63  -2
   3  -3   4  814.69   24.63   1
   7   3  -4 1001.89   22.51  -6
  -3   3   7 1001.89   22.51  -5
  -4   3  -3 1001.89   22.51  -4
  -7   3   3 1001.89   22.51  -3
   4   3  -7 1001.89   22.51  -2
   3   3   4 1001.89   22.51   1
   8  -3  -4  898.15   27.23  -6
  -4  -3   8  898.15   27.23  -5
  -4  -3  -4  898.15   27.23  -4
  -8  -3   4  898.15   27.23  -3
   4  -3  -8  898.15   27.23  -2
   4  -3   4  898.15   27.23   1
   8   3  -4  898.32   18.04  -6
  -4   3   8  898.32   18.04  -5
  -4   3  -4  898.32   18.04  -4
  -8   3   4  898.32   18.04  -3
   4   3  -8  898.32   18.04  -2
   4   3   4  898.32   18.04   1
   9  -3  -4 1105.43   32.79  -6
  -5  -3   9 1105.43   32.79  -5
  -4  -3  -5 1105.43   32.79  -4
  -9  -3   5 1105.43   32.79  -3
   4  -3  -9 1105.43   32.79  -2
   5  -3   4 1105.43   32.79   1
   9   3  -4 1198.80   40.13  -6
  -5   3   9 1198.80   40.13  -5
  -4   3  -5 1198.80   40.13  -4
  -9   3   5 1198.80   40.13  -3
   4   3  -9 1198.80   40.13  -2
   5   3   4 1198.80   40.13   1
  10   3  -4  681.60   36.27  -6
  -6   3  10  681.60   36.27  -5
  -4   3  -6  681.60   36.27  -4
 -10   3   6  681.60   36.27  -3
   4   3 -10  681.60   36.27  -2
   6   3   4  681.60   36.27   1
  -5  -4  -4  488.96   28.46  -6
   9  -4  -5  488.96   28.46  -5
  -4  -4   9  488.96   28.46  -4
   5  -4  -9  488.96   28.46  -3
   4  -4   5  488.96   28.46  -2
  -9  -4   4  488.96   28.46   1
  -4  -4  -4  793.56   39.59  -6
   8  -4  -4  793.56   39.59  -5
  -4  -4   8  793.56   39.59  -4
   4  -4  -8  793.56   39.59  -3
   4  -4   4  793.56   39.59  -2
  -8  -4   4  793.56   39.59   1
  -4   4  -4  714.98   33.70  -6
   8   4  -4  714.98   33.70  -5
  -4   4   8  714.98   33.70  -4
   4   4  -8  714.98   33.70  -3
   4   4   4  714.98   33.70  -2
  -8   4   4  714.98   33.70   1
  -3  -4  -4  596.77   21.76  -6
   7  -4  -3  596.77   21.76  -5
  -4  -4   7  596.77   21.76  -4
   3  -4  -7  596.77   21.76  -3
   4  -4   3  596.77   21.76  -2
  -7  -4   4  596.77   21.76   1
  -3   4  -4  658.05   22.16  -6
   7   4  -3  658.05   22.16  -5
  -4   4   7  658.05   22.16  -4
   3   4  -7  658.05   22.16  -3
   4   4   3  658.05   22.16  -2
  -7   4   4  658.05   22.16   1
  -2   4  -4 1031.29   14.08  -6
   6   4  -2 1031.29   14.08  -5
  -4   4   6 1031.29   14.08  -4
   2   4  -6 1031.29   14.08  -3
   4   4   2 1031.29   14.08  -2
  -6   4   4 1031.29   14.08   1
  -1  -4  -4 2069.85   33.78  -6
   5  -4  -1 2069.85   33.78  -5
  -4  -4   5 2069.85   33.78  -4
   1  -4  -5 2069.85   33.78  -3
   4  -4   1 2069.85   33.78  -2
  -5  -4   4 2069.85   33.78   1
  -1   4  -4 2229.76   17.27  -6
   5   4  -1 2229.76   17.27  -5
  -4   4   5 2229.76   17.27  -4
   1   4  -5 2229.76   17.27  -3
   4   4   1 2229.76   17.27  -2
  -5   4   4 2229.76   17.27   1
   0  -4  -4 1595.87   29.02  -6
   4  -4   0 1595.87   29.02  -5
  -4  -4   4 1595.87   29.02  -4
   0  -4  -4 1595.87   29.02  -3
   4  -4   0 1595.87   29.02  -2
  -4  -4   4 1595.87   29.02   1
   0   4  -4 1614.43   18.14  -6
   4   4   0 1614.43   18.14  -5
  -4   4   4 1614.43   18.14  -4
   0   4  -4 1614.43   18.14  -3
   4   4   0 1614.43   18.14  -2
  -4   4   4 1614.43   18.14   1
   1  -4  -4 2442.23   13.90  -6
   3  -4   1 2442.23   13.90  -5
  -4  -4   3 2442.23   13.90  -4
  -1  -4  -3 2442.23   13.90  -3
   4  -4  -1 2442.23   13.90  -2
  -3  -4   4 2442.23   13.90   1
   2  -4  -4 4374.40   37.11  -6
   2  -4   2 4374.40   37.11  -5
  -4  -4   2 4374.40   37.11  -4
  -2  -4  -2 4374.40   37.11  -3
   4  -4  -2 4374.40   37.11  -2
  -2  -4   4 4374.40   37.11   1
   2   4  -4 4090.53   29.48  -6
   2   4   2 4090.53   29.48  -5
  -4   4   2 4090.53   29.48  -4
  -2   4  -2 4090.53   29.48  -3
   4   4  -2 4090.53   29.48  -2
  -2   4   4 4090.53   29.48   1
   3  -4  -4 2506.80   16.84  -6
   1  -4   3 2506.80   16.84  -5
  -4  -4   1 2506.80   16.84  -4
  -3  -4  -1 2506.80   16.84  -3
   4  -4  -3 2506.80   16.84  -2
  -1  -4   4 2506.80   16.84   1
   3   4  -4 2373.14   11.82  -6
   1   4   3 2373.14   11.82  -5
  -4   4   1 2373.14   11.82  -4
  -3   4  -1 2373.14   11.82  -3
   4   4  -3 2373.14   11.82  -2
  -1   4   4 2373.14   11.82   1
   4  -4  -4 1535.93   17.70  -6
   0  -4   4 1535.93   17.70  -5
  -4  -4   0 1535.93   17.70  -4
  -4  -4   0 1535.93   17.70  -3
   4  -4  -4 1535.93   17.70  -2
   0  -4   4 1535.93   17.70   1
   5  -4  -4 1715.16   12.40  -6
  -1  -4   5 1715.16   12.40  -5
  -4  -4  -1 1715.16   12.40  -4
  -5  -4   1 1715.16   12.40  -3
   4  -4  -5 1715.16   12.40  -2
   1  -4   4 1715.16   12.40   1
   5   4  -4 1576.37   14.60  -6
  -1   4   5 1576.37   14.60  -5
  -4   4  -1 1576.37   14.60  -4
  -5   4   1 1576.37   14.60  -3
   4   4  -5 1576.37   14.60  -2
   1   4   4 1576.37   14.60   1
   6  -4  -4  770.22   14.17  -6
  -2  -4   6  770.22   14.17  -5
  -4  -4  -2  770.22   14.17  -4
  -6  -4   2  770.22   14.17  -3
   4  -4  -6  770.22   14.17  -2
   2  -4   4  770.22   14.17   1
   6   4  -4  633.99   11.00  -6
  -2   4   6  633.99   11.00  -5
  -4   4  -2  633.99   11.00  -4
  -6   4   2  633.99   11.00  -3
   4   4  -6  633.99   11.00  -2
   2   4   4  633.99   11.00   1
   7  -4  -4  467.44   18.23  -6
  -3  -4   7  467.44   18.23  -5
  -4  -4  -3  467.44   18.23  -4
  -7  -4   3  467.44   18.23  -3
   4  -4  -7  467.44   18.23  -2
   3  -4   4  467.44   18.23   1
   7   4  -4  544.34   20.81  -6
  -3   4   7  544.34   20.81  -5
  -4   4  -3  544.34   20.81  -4
  -7   4   3  544.34   20.81  -3
   4   4  -7  544.34   20.81  -2
   3   4   4  544.34   20.81   1
   8  -4  -4  534.23   26.10  -6
  -4  -4   8  534.23   26.10  -5
  -4  -4  -4  534.23   26.10  -4
  -8  -4   4  534.23   26.10  -3
   4  -4  -8  534.23   26.10  -2
   4  -4   4  534.23   26.10   1
   8   4  -4  506.02   15.88  -6
  -4   4   8  506.02   15.88  -5
  -4   4  -4  506.02   15.88  -4
  -8   4   4  506.02   15.88  -3
   4   4  -8  506.02   15.88  -2
   4   4   4  506.02   15.88   1
   9  -4  -4  419.35   29.71  -6
  -5  -4   9  419.35   29.71  -5
  -4  -4  -5  419.35   29.71  -4
  -9  -4   5  419.35   29.71  -3
   4  -4  -9  419.35   29.71  -2
   5  -4   4  419.35   29.71   1
   9   4  -4  378.08   25.30  -6
  -5   4   9  378.08   25.30  -5
  -4   4  -5  378.08   25.30  -4
  -9   4   5  378.08   25.30  -3
   4   4  -9  378.08   25.30  -2
   5   4   4  378.08   25.30   1
  -5  -5  -4  508.90   43.38  -6
   9  -5  -5  508.90   43.38  -5
  -4  -5   9  508.90   43.38  -4
   5  -5  -9  508.90   43.38  -3
   4  -5   5  508.90   43.38  -2
  -9  -5   4  508.90   43.38   1
  -5   5  -4  416.75   37.71  -6
   9   5  -5  416.75   37.71  -5
  -4   5   9  416.75   37.71  -4
   5   5  -9  416.75   37.71  -3
   4   5   5  416.75   37.71  -2
  -9   5   4  416.75   37.71   1
  -4  -5  -4  860.10   24.68  -6
   8  -5  -4  860.10   24.68  -5
  -4  -5   8  860.10   24.68  -4
   4  -5  -8  860.10   24.68  -3
   4  -5   4  860.10   24.68  -2
  -8  -5   4  860.10   24.68   1
  -4   5  -4  839.21   25.40  -6
   8   5  -4  839.21   25.40  -5
  -4   5   8  839.21   25.40  -4
   4   5  -8  839.21   25.40  -3
   4   5   4  839.21   25.40  -2
  -8   5   4  839.21   25.40   1
  -3  -5  -4 1465.55   40.30  -6
   7  -5  -3 1465.55   40.30  -5
  -4  -5   7 1465.55   40.30  -4
   3  -5  -7 1465.55   40.30  -3
   4  -5   3 1465.55   40.30  -2
  -7  -5   4 1465.55   40.30   1
  -3   5  -4 1515.49   20.58  -6
   7   5  -3 1515.49   20.58  -5
  -4   5   7 1515.49   20.58  -4
   3   5  -7 1515.49   20.58  -3
   4   5   3 1515.49   20.58  -2
  -7   5   4 1515.49   20.58   1
  -2   5  -4 1699.99   18.32  -6
   6   5  -2 1699.99   18.32  -5
  -4   5   6 1699.99   18.32  -4
   2   5  -6 1699.99   18.32  -3
   4   5   2 1699.99   18.32  -2
  -6   5   4 1699.99   18.32   1
  -1  -5  -4 1565.33   20.31  -6
   5  -5  -1 1565.33   20.31  -5
  -4  -5   5 1565.33   20.31  -4
   1  -5  -5 1565.33   20.31  -3
   4  -5   1 1565.33   20.31  -2
  -5  -5   4 1565.33   20.31   1
  -1   5  -4 1568.92   31.53  -6
   5   5  -1 1568.92   31.53  -5
  -4   5   5 1568.92   31.53  -4
   1   5  -5 1568.92   31.53  -3
   4   5   1 1568.92   31.53  -2
  -5   5   4 1568.92   31.53   1
   0  -5  -4 1694.39   33.09  -6
   4  -5   0 1694.39   33.09  -5
  -4  -5   4 1694.39   33.09  -4
   0  -5  -4 1694.39   33.09  -3
   4  -5   0 1694.39   33.09  -2
  -4  -5   4 1694.39   33.09   1
   0   5  -4 1593.90   25.46  -6
   4   5   0 1593.90   25.46  -5
  -4   5   4 1593.90   25.46  -4
   0   5  -4 1593.90   25.46  -3
   4   5   0 1593.90   25.46  -2
  -4   5   4 1593.90   25.46   1
   1  -5  -4  729.41    5.98  -6
   3  -5   1  729.41    5.98  -5
  -4  -5   3  729.41    5.98  -4
  -1  -5  -3  729.41    5.98  -3
   4  -5  -1  729.41    5.98  -2
  -3  -5   4  729.41    5.98   1
   2  -5  -4 1638.30   28.88  -6
   2  -5   2 1638.30   28.88  -5
  -4  -5   2 1638.30   28.88  -4
  -2  -5  -2 1638.30   28.88  -3
   4  -5  -2 1638.30   28.88  -2
  -2  -5   4 1638.30   28.88   1
   2   5  -4 1414.24   21.47  -6
   2   5   2 1414.24   21.47  -5
  -4   5   2 1414.24   21.47  -4
  -2   5  -2 1414.24   21.47  -3
   4   5  -2 1414.24   21.47  -2
  -2   5   4 1414.24   21.47   1
   3  -5  -4  894.01    6.24  -6
   1  -5   3  894.01    6.24  -5
  -4  -5   1  894.01    6.24  -4
  -3  -5  -1  894.01    6.24  -3
   4  -5  -3  894.01    6.24  -2
  -1  -5   4  894.01    6.24   1
   3   5  -4  910.42    7.05  -6
   1   5   3  910.42    7.05  -5
  -4   5   1  910.42    7.05  -4
  -3   5  -1  910.42    7.05  -3
   4   5  -3  910.42    7.05  -2
  -1   5   4  910.42    7.05   1
   4  -5  -4 1697.10   18.45  -6
   0  -5   4 1697.10   18.45  -5
  -4  -5   0 1697.10   18.45  -4
  -4  -5   0 1697.10   18.45  -3
   4  -5  -4 1697.10   18.45  -2
   0  -5   4 1697.10   18.45   1
   5  -5  -4 1505.28   17.66  -6
  -1  -5   5 1505.28   17.66  -5
  -4  -5  -1 1505.28   17.66  -4
  -5  -5   1 1505.28   17.66  -3
   4  -5  -5 1505.28   17.66  -2
   1  -5   4 1505.28   17.66   1
   5   5  -4 1463.34   30.35  -6
  -1   5   5 1463.34   30.35  -5
  -4   5  -1 1463.34   30.35  -4
  -5   5   1 1463.34   30.35  -3
   4   5  -5 1463.34   30.35  -2
   1   5   4 1463.34   30.35   1
   6  -5  -4 1559.48   13.02  -6
  -2  -5   6 1559.48   13.02  -5
  -4  -5  -2 1559.48   13.02  -4
  -6  -5   2 1559.48   13.02  -3
   4  -5  -6 1559.48   13.02  -2
   2  -5   4 1559.48   13.02   1
   6   5  -4 1499.01   14.47  -6
  -2   5   6 1499.01   14.47  -5
  -4   5  -2 1499.01   14.47  -4
  -6   5   2 1499.01   14.47  -3
   4   5  -6 1499.01   14.47  -2
   2   5   4 1499.01   14.47   1
   7  -5  -4 1441.49   21.67  -6
  -3  -5   7 1441.49   21.67  -5
  -4  -5  -3 1441.49   21.67  -4
  -7  -5   3 1441.49   21.67  -3
   4  -5  -7 1441.49   21.67  -2
   3  -5   4 1441.49   21.67   1
   7   5  -4 1654.72   24.77  -6
  -3   5   7 1654.72   24.77  -5
  -4   5  -3 1654.72   24.77  -4
  -7   5   3 1654.72   24.77  -3
   4   5  -7 1654.72   24.77  -2
   3   5   4 1654.72   24.77   1
   8  -5  -4 1261.01   43.20  -6
  -4  -5   8 1261.01   43.20  -5
  -4  -5  -4 1261.01   43.20  -4
  -8  -5   4 1261.01   43.20  -3
   4  -5  -8 1261.01   43.20  -2
   4  -5   4 1261.01   43.20   1
   8   5  -4 1328.72   27.02  -6
  -4   5   8 1328.72   27.02  -5
  -4   5  -4 1328.72   27.02  -4
  -8   5   4 1328.72   27.02  -3
   4   5  -8 1328.72   27.02  -2
   4   5   4 1328.72   27.02   1
   9  -5  -4 1051.35   33.14  -6
  -5  -5   9 1051.35   33.14  -5
  -4  -5  -5 1051.35   33.14  -4
  -9  -5   5 1051.35   33.14  -3
   4  -5  -9 1051.35   33.14  -2
   5  -5   4 1051.35   33.14   1
   9   5  -4  921.29   45.88  -6
  -5   5   9  921.29   45.88  -5
  -4   5  -5  921.29   45.88  -4
  -9   5   5  921.29   45.88  -3
   4   5  -9  921.29   45.88  -2
   5   5   4  921.29   45.88   1
  -5  -6  -4  325.67   42.59  -6
   9  -6  -5  325.67   42.59  -5
  -4  -6   9  325.67   42.59  -4
   5  -6  -9  325.67   42.59  -3
   4  -6   5  325.67   42.59  -2
  -9  -6   4  325.67   42.59   1
  -5   6  -4  231.98   24.72  -6
   9   6  -5  231.98   24.72  -5
  -4   6   9  231.98   24.72  -4
   5   6  -9  231.98   24.72  -3
   4   6   5  231.98   24.72  -2
  -9   6   4  231.98   24.72   1
  -4  -6  -4  387.43   30.40  -6
   8  -6  -4  387.43   30.40  -5
  -4  -6   8  387.43   30.40  -4
   4  -6  -8  387.43   30.40  -3
   4  -6   4  387.43   30.40  -2
  -8  -6   4  387.43   30.40   1
  -4   6  -4  411.18   24.15  -6
   8   6  -4  411.18   24.15  -5
  -4   6   8  411.18   24.15  -4
   4   6  -8  411.18   24.15  -3
   4   6   4  411.18   24.15  -2
  -8   6   4  411.18   24.15   1
  -3  -6  -4  829.61   24.94  -6
   7  -6  -3  829.61   24.94  -5
  -4  -6   7  829.61   24.94  -4
   3  -6  -7  829.61   24.94  -3
   4  -6   3  829.61   24.94  -2
  -7  -6   4  829.61   24.94   1
  -3   6  -4  873.85   18.11  -6
   7   6  -3  873.85   18.11  -5
  -4   6   7  873.85   18.11  -4
   3   6  -7  873.85   18.11  -3
   4   6   3  873.85   18.11  -2
  -7   6   4  873.85   18.11   1
  -2  -6  -4 1151.88   34.38  -6
   6  -6  -2 1151.88   34.38  -5
  -4  -6   6 1151.88   34.38  -4
   2  -6  -6 1151.88   34.38  -3
   4  -6   2 1151.88   34.38  -2
  -6  -6   4 1151.88   34.38   1
  -2   6  -4 1142.96   21.17  -6
   6   6  -2 1142.96   21.17  -5
  -4   6   6 1142.96   21.17  -4
   2   6  -6 1142.96   21.17  -3
   4   6   2 1142.96   21.17  -2
  -6   6   4 1142.96   21.17   1
  -1  -6  -4 1596.72   36.34  -6
   5  -6  -1 1596.72   36.34  -5
  -4  -6   5 1596.72   36.34  -4
   1  -6  -5 1596.72   36.34  -3
   4  -6   1 1596.72   36.34  -2
  -5  -6   4 1596.72   36.34   1
  -1   6  -4 1617.14   23.05  -6
   5   6  -1 1617.14   23.05  -5
  -4   6   5 1617.14   23.05  -4
   1   6  -5 1617.14   23.05  -3
   4   6   1 1617.14   23.05  -2
  -5   6   4 1617.14   23.05   1
   0  -6  -4 3754.50   45.74  -6
   4  -6   0 3754.50   45.74  -5
  -4  -6   4 3754.50   45.74  -4
   0  -6  -4 3754.50   45.74  -3
   4  -6   0 3754.50   45.74  -2
  -4  -6   4 3754.50   45.74   1
   0   6  -4 3617.09   36.74  -6
   4   6   0 3617.09   36.74  -5
  -4   6   4 3617.09   36.74  -4
   0   6  -4 3617.09   36.74  -3
   4   6   0 3617.09   36.74  -2
  -4   6   4 3617.09   36.74   1
   1  -6  -4 3400.56   41.49  -6
   3  -6   1 3400.56   41.49  -5
  -4  -6   3 3400.56   41.49  -4
  -1  -6  -3 3400.56   41.49  -3
   4  -6  -1 3400.56   41.49  -2
  -3  -6   4 3400.56   41.49   1
   1   6  -4 2841.39   32.86  -6
   3   6   1 2841.39   32.86  -5
  -4   6   3 2841.39   32.86  -4
  -1   6  -3 2841.39   32.86  -3
   4   6  -1 2841.39   32.86  -2
  -3   6   4 2841.39   32.86   1
   2  -6  -4 3119.59   37.85  -6
   2  -6   2 3119.59   37.85  -5
  -4  -6   2 3119.59   37.85  -4
  -2  -6  -2 3119.59   37.85  -3
   4  -6  -2 3119.59   37.85  -2
  -2  -6   4 3119.59   37.85   1
   2   6  -4 2454.19   23.77  -6
   2   6   2 2454.19   23.77  -5
  -4   6   2 2454.19   23.77  -4
  -2   6  -2 2454.19   23.77  -3
   4   6  -2 2454.19   23.77  -2
  -2   6   4 2454.19   23.77   1
   3  -6  -4 2618.60   15.80  -6
   1  -6   3 2618.60   15.80  -5
  -4  -6   1 2618.60   15.80  -4
  -3  -6  -1 2618.60   15.80  -3
   4  -6  -3 2618.60   15.80  -2
  -1  -6   4 2618.60   15.80   1
   3   6  -4 2689.15   27.78  -6
   1   6   3 2689.15   27.78  -5
  -4   6   1 2689.15   27.78  -4
  -3   6  -1 2689.15   27.78  -3
   4   6  -3 2689.15   27.78  -2
  -1   6   4 2689.15   27.78   1
   4  -6  -4 3418.93   24.61  -6
   0  -6   4 3418.93   24.61  -5
  -4  -6   0 3418.93   24.61  -4
  -4  -6   0 3418.93   24.61  -3
   4  -6  -4 3418.93   24.61  -2
   0  -6   4 3418.93   24.61   1
   5  -6  -4 1484.84   15.45  -6
  -1  -6   5 1484.84   15.45  -5
  -4  -6  -1 1484.84   15.45  -4
  -5  -6   1 1484.84   15.45  -3
   4  -6  -5 1484.84   15.45  -2
   1  -6   4 1484.84   15.45   1
   5   6  -4 1572.18   30.96  -6
  -1   6   5 1572.18   30.96  -5
  -4   6  -1 1572.18   30.96  -4
  -5   6   1 1572.18   30.96  -3
   4   6  -5 1572.18   30.96  -2
   1   6   4 1572.18   30.96   1
   6  -6  -4 1002.70   12.23  -6
  -2  -6   6 1002.70   12.23  -5
  -4  -6  -2 1002.70   12.23  -4
  -6  -6   2 1002.70   12.23  -3
   4  -6  -6 1002.70   12.23  -2
   2  -6   4 1002.70   12.23   1
   6   6  -4 1257.46   33.02  -6
  -2   6   6 1257.46   33.02  -5
  -4   6  -2 1257.46   33.02  -4
  -6   6   2 1257.46   33.02  -3
   4   6  -6 1257.46   33.02  -2
   2   6   4 1257.46   33.02   1
   7  -6  -4  630.44   15.88  -6
  -3  -6   7  630.44   15.88  -5
  -4  -6  -3  630.44   15.88  -4
  -7  -6   3  630.44   15.88  -3
   4  -6  -7  630.44   15.88  -2
   3  -6   4  630.44   15.88   1
   7   6  -4 1081.89   38.92  -6
  -3   6   7 1081.89   38.92  -5
  -4   6  -3 1081.89   38.92  -4
  -7   6   3 1081.89   38.92  -3
   4   6  -7 1081.89   38.92  -2
   3   6   4 1081.89   38.92   1
   8  -6  -4  528.20   37.54  -6
  -4  -6   8  528.20   37.54  -5
  -4  -6  -4  528.20   37.54  -4
  -8  -6   4  528.20   37.54  -3
   4  -6  -8  528.20   37.54  -2
   4  -6   4  528.20   37.54   1
   8   6  -4  620.05   40.05  -6
  -4   6   8  620.05   40.05  -5
  -4   6  -4  620.05   40.05  -4
  -8   6   4  620.05   40.05  -3
   4   6  -8  620.05   40.05  -2
   4   6   4  620.05   40.05   1
   9  -6  -4  282.59   29.69  -6
  -5  -6   9  282.59   29.69  -5
  -4  -6  -5  282.59   29.69  -4
  -9  -6   5  282.59   29.69  -3
   4  -6  -9  282.59   29.69  -2
   5  -6   4  282.59   29.69   1
   9   6  -4  300.24   40.51  -6
  -5   6   9  300.24   40.51  -5
  -4   6  -5  300.24   40.51  -4
  -9   6   5  300.24   40.51  -3
   4   6  -9  300.24   40.51  -2
   5   6   4  300.24   40.51   1
  -5  -7  -4  135.27   29.81  -6
   9  -7  -5  135.27   29.81  -5
  -4  -7   9  135.27   29.81  -4
   5  -7  -9  135.27   29.81  -3
   4  -7   5  135.27   29.81  -2
  -9  -7   4  135.27   29.81   1
  -4  -7  -4  382.05   30.57  -6
   8  -7  -4  382.05   30.57  -5
  -4  -7   8  382.05   30.57  -4
   4  -7  -8  382.05   30.57  -3
   4  -7   4  382.05   30.57  -2
  -8  -7   4  382.05   30.57   1
  -4   7  -4  461.27   32.72  -6
   8   7  -4  461.27   32.72  -5
  -4   7   8  461.27   32.72  -4
   4   7  -8  461.27   32.72  -3
   4   7   4  461.27   32.72  -2
  -8   7   4  461.27   32.72   1
  -3  -7  -4 1281.76   28.20  -6
   7  -7  -3 1281.76   28.20  -5
  -4  -7   7 1281.76   28.20  -4
   3  -7  -7 1281.76   28.20  -3
   4  -7   3 1281.76   28.20  -2
  -7  -7   4 1281.76   28.20   1
  -3   7  -4 1647.95   20.59  -6
   7   7  -3 1647.95   20.59  -5
  -4   7   7 1647.95   20.59  -4
   3   7  -7 1647.95   20.59  -3
   4   7   3 1647.95   20.59  -2
  -7   7   4 1647.95   20.59   1
  -2   7  -4 1677.40   19.77  -6
   6   7  -2 1677.40   19.77  -5
  -4   7   6 1677.40   19.77  -4
   2   7  -6 1677.40   19.77  -3
   4   7   2 1677.40   19.77  -2
  -6   7   4 1677.40   19.77   1
  -1  -7  -4  821.00   33.71  -6
   5  -7  -1  821.00   33.71  -5
  -4  -7   5  821.00   33.71  -4
   1  -7  -5  821.00   33.71  -3
   4  -7   1  821.00   33.71  -2
  -5  -7   4  821.00   33.71   1
  -1   7  -4 1213.74   29.40  -6
   5   7  -1 1213.74   29.40  -5
  -4   7   5 1213.74   29.40  -4
   1   7  -5 1213.74   29.40  -3
   4   7   1 1213.74   29.40  -2
  -5   7   4 1213.74   29.40   1
   0  -7  -4 1107.91   32.95  -6
   4  -7   0 1107.91   32.95  -5
  -4  -7   4 1107.91   32.95  -4
   0  -7  -4 1107.91   32.95  -3
   4  -7   0 1107.91   32.95  -2
  -4  -7   4 1107.91   32.95   1
   0   7  -4 1467.88   28.69  -6
   4   7   0 1467.88   28.69  -5
  -4   7   4 1467.88   28.69  -4
   0   7  -4 1467.88   28.69  -3
   4   7   0 1467.88   28.69  -2
  -4   7   4 1467.88   28.69   1
   1  -7  -4 1060.52   29.92  -6
   3  -7   1 1060.52   29.92  -5
  -4  -7   3 1060.52   29.92  -4
  -1  -7  -3 1060.52   29.92  -3
   4  -7  -1 1060.52   29.92  -2
  -3  -7   4 1060.52   29.92   1
   1   7  -4  993.95   23.68  -6
   3   7   1  993.95   23.68  -5
  -4   7   3  993.95   23.68  -4
  -1   7  -3  993.95   23.68  -3
   4   7  -1  993.95   23.68  -2
  -3   7   4  993.95   23.68   1
   2  -7  -4  615.13   23.22  -6
   2  -7   2  615.13   23.22  -5
  -4  -7   2  615.13   23.22  -4
  -2  -7  -2  615.13   23.22  -3
   4  -7  -2  615.13   23.22  -2
  -2  -7   4  615.13   23.22   1
   2   7  -4  604.00   11.73  -6
   2   7   2  604.00   11.73  -5
  -4   7   2  604.00   11.73  -4
  -2   7  -2  604.00   11.73  -3
   4   7  -2  604.00   11.73  -2
  -2   7   4  604.00   11.73   1
   3  -7  -4 1054.59   26.38  -6
   1  -7   3 1054.59   26.38  -5
  -4  -7   1 1054.59   26.38  -4
  -3  -7  -1 1054.59   26.38  -3
   4  -7  -3 1054.59   26.38  -2
  -1  -7   4 1054.59   26.38   1
   3   7  -4  980.10   21.70  -6
   1   7   3  980.10   21.70  -5
  -4   7   1  980.10   21.70  -4
  -3   7  -1  980.10   21.70  -3
   4   7  -3  980.10   21.70  -2
  -1   7   4  980.10   21.70   1
   4  -7  -4 1377.57   13.09  -6
   0  -7   4 1377.57   13.09  -5
  -4  -7   0 1377.57   13.09  -4
  -4  -7   0 1377.57   13.09  -3
   4  -7  -4 1377.57   13.09  -2
   0  -7   4 1377.57   13.09   1
   5  -7  -4 1261.94   18.94  -6
  -1  -7   5 1261.94   18.94  -5
  -4  -7  -1 1261.94   18.94  -4
  -5  -7   1 1261.94   18.94  -3
   4  -7  -5 1261.94   18.94  -2
   1  -7   4 1261.94   18.94   1
   5   7  -4 1221.05   29.35  -6
  -1   7   5 1221.05   29.35  -5
  -4   7  -1 1221.05   29.35  -4
  -5   7   1 1221.05   29.35  -3
   4   7  -5 1221.05   29.35  -2
   1   7   4 1221.05   29.35   1
   6  -7  -4 1443.20   14.13  -6
  -2  -7   6 1443.20   14.13  -5
  -4  -7  -2 1443.20   14.13  -4
  -6  -7   2 1443.20   14.13  -3
   4  -7  -6 1443.20   14.13  -2
   2  -7   4 1443.20   14.13   1
   6   7  -4 1522.85   23.66  -6
  -2   7   6 1522.85   23.66  -5
  -4   7  -2 1522.85   23.66  -4
  -6   7   2 1522.85   23.66  -3
   4   7  -6 1522.85   23.66  -2
   2   7   4 1522.85   23.66   1
   7  -7  -4 1270.11   17.34  -6
  -3  -7   7 1270.11   17.34  -5
  -4  -7  -3 1270.11   17.34  -4
  -7  -7   3 1270.11   17.34  -3
   4  -7  -7 1270.11   17.34  -2
   3  -7   4 1270.11   17.34   1
   7   7  -4 1734.33   42.63  -6
  -3   7   7 1734.33   42.63  -5
  -4   7  -3 1734.33   42.63  -4
  -7   7   3 1734.33   42.63  -3
   4   7  -7 1734.33   42.63  -2
   3   7   4 1734.33   42.63   1
   8  -7  -4  933.94   29.93  -6
  -4  -7   8  933.94   29.93  -5
  -4  -7  -4  933.94   29.93  -4
  -8  -7   4  933.94   29.93  -3
   4  -7  -8  933.94   29.93  -2
   4  -7   4  933.94   29.93   1
   9  -7  -4  620.72   44.50  -6
  -5  -7   9  620.72   44.50  -5
  -4  -7  -5  620.72   44.50  -4
  -9  -7   5  620.72   44.50  -3
   4  -7  -9  620.72   44.50  -2
   5  -7   4  620.72   44.50   1
  -5  -8  -4  205.99   31.77  -6
   9  -8  -5  205.99   31.77  -5
  -4  -8   9  205.99   31.77  -4
   5  -8  -9  205.99   31.77  -3
   4  -8   5  205.99   31.77  -2
  -9  -8   4  205.99   31.77   1
  -4  -8  -4  410.20   24.97  -6
   8  -8  -4  410.20   24.97  -5
  -4  -8   8  410.20   24.97  -4
   4  -8  -8  410.20   24.97  -3
   4  -8   4  410.20   24.97  -2
  -8  -8   4  410.20   24.97   1
  -4   8  -4  378.16   24.32  -6
   8   8  -4  378.16   24.32  -5
  -4   8   8  378.16   24.32  -4
   4   8  -8  378.16   24.32  -3
   4   8   4  378.16   24.32  -2
  -8   8   4  378.16   24.32   1
  -3  -8  -4  617.29   25.65  -6
   7  -8  -3  617.29   25.65  -5
  -4  -8   7  617.29   25.65  -4
   3  -8  -7  617.29   25.65  -3
   4  -8   3  617.29   25.65  -2
  -7  -8   4  617.29   25.65   1
  -3   8  -4  585.93   17.83  -6
   7   8  -3  585.93   17.83  -5
  -4   8   7  585.93   17.83  -4
   3   8  -7  585.93   17.83  -3
   4   8   3  585.93   17.83  -2
  -7   8   4  585.93   17.83   1
  -2  -8  -4  699.73   35.67  -6
   6  -8  -2  699.73   35.67  -5
  -4  -8   6  699.73   35.67  -4
   2  -8  -6  699.73   35.67  -3
   4  -8   2  699.73   35.67  -2
  -6  -8   4  699.73   35.67   1
  -2   8  -4  759.23   26.85  -6
   6   8  -2  759.23   26.85  -5
  -4   8   6  759.23   26.85  -4
   2   8  -6  759.23   26.85  -3
   4   8   2  759.23   26.85  -2
  -6   8   4  759.23   26.85   1
  -1  -8  -4 1615.71   39.34  -6
   5  -8  -1 1615.71   39.34  -5
  -4  -8   5 1615.71   39.34  -4
   1  -8  -5 1615.71   39.34  -3
   4  -8   1 1615.71   39.34  -2
  -5  -8   4 1615.71   39.34   1
  -1   8  -4 1688.90   23.79  -6
   5   8  -1 1688.90   23.79  -5
  -4   8   5 1688.90   23.79  -4
   1   8  -5 1688.90   23.79  -3
   4   8   1 1688.90   23.79  -2
  -5   8   4 1688.90   23.79   1
   0  -8  -4 2127.26   39.82  -6
   4  -8   0 2127.26   39.82  -5
  -4  -8   4 2127.26   39.82  -4
   0  -8  -4 2127.26   39.82  -3
   4  -8   0 2127.26   39.82  -2
  -4  -8   4 2127.26   39.82   1
   0   8  -4 1988.76   33.72  -6
   4   8   0 1988.76   33.72  -5
  -4   8   4 1988.76   33.72  -4
   0   8  -4 1988.76   33.72  -3
   4   8   0 1988.76   33.72  -2
  -4   8   4 1988.76   33.72   1
   1   8  -4 1378.54   27.86  -6
   3   8   1 1378.54   27.86  -5
  -4   8   3 1378.54   27.86  -4
  -1   8  -3 1378.54   27.86  -3
   4   8  -1 1378.54   27.86  -2
  -3   8   4 1378.54   27.86   1
   2  -8  -4 1061.90   26.71  -6
   2  -8   2 1061.90   26.71  -5
  -4  -8   2 1061.90   26.71  -4
  -2  -8  -2 1061.90   26.71  -3
   4  -8  -2 1061.90   26.71  -2
  -2  -8   4 1061.90   26.71   1
   2   8  -4 1001.57   12.88  -6
   2   8   2 1001.57   12.88  -5
  -4   8   2 1001.57   12.88  -4
  -2   8  -2 1001.57   12.88  -3
   4   8  -2 1001.57   12.88  -2
  -2   8   4 1001.57   12.88   1
   3  -8  -4 1786.98   19.55  -6
   1  -8   3 1786.98   19.55  -5
  -4  -8   1 1786.98   19.55  -4
  -3  -8  -1 1786.98   19.55  -3
   4  -8  -3 1786.98   19.55  -2
  -1  -8   4 1786.98   19.55   1
   3   8  -4 1750.87   25.69  -6
   1   8   3 1750.87   25.69  -5
  -4   8   1 1750.87   25.69  -4
  -3   8  -1 1750.87   25.69  -3
   4   8  -3 1750.87   25.69  -2
  -1   8   4 1750.87   25.69   1
   4  -8  -4 1656.34   21.34  -6
   0  -8   4 1656.34   21.34  -5
  -4  -8   0 1656.34   21.34  -4
  -4  -8   0 1656.34   21.34  -3
   4  -8  -4 1656.34   21.34  -2
   0  -8   4 1656.34   21.34   1
   5  -8  -4 1601.84   22.35  -6
  -1  -8   5 1601.84   22.35  -5
  -4  -8  -1 1601.84   22.35  -4
  -5  -8   1 1601.84   22.35  -3
   4  -8  -5 1601.84   22.35  -2
   1  -8   4 1601.84   22.35   1
   5   8  -4 1658.01   30.83  -6
  -1   8   5 1658.01   30.83  -5
  -4   8  -1 1658.01   30.83  -4
  -5   8   1 1658.01   30.83  -3
   4   8  -5 1658.01   30.83  -2
   1   8   4 1658.01   30.83   1
   6  -8  -4  669.41   21.45  -6
  -2  -8   6  669.41   21.45  -5
  -4  -8  -2  669.41   21.45  -4
  -6  -8   2  669.41   21.45  -3
   4  -8  -6  669.41   21.45  -2
   2  -8   4  669.41   21.45   1
   7  -8  -4  437.69   24.50  -6
  -3  -8   7  437.69   24.50  -5
  -4  -8  -3  437.69   24.50  -4
  -7  -8   3  437.69   24.50  -3
   4  -8  -7  437.69   24.50  -2
   3  -8   4  437.69   24.50   1
   8  -8  -4  433.93   28.57  -6
  -4  -8   8  433.93   28.57  -5
  -4  -8  -4  433.93   28.57  -4
  -8  -8   4  433.93   28.57  -3
   4  -8  -8  433.93   28.57  -2
   4  -8   4  433.93   28.57   1
   8   8  -4  443.43   37.86  -6
  -4   8   8  443.43   37.86  -5
  -4   8  -4  443.43   37.86  -4
  -8   8   4  443.43   37.86  -3
   4   8  -8  443.43   37.86  -2
   4   8   4  443.43   37.86   1
   9  -8  -4  188.00   40.77  -6
  -5  -8   9  188.00   40.77  -5
  -4  -8  -5  188.00   40.77  -4
  -9  -8   5  188.00   40.77  -3
   4  -8  -9  188.00   40.77  -2
   5  -8   4  188.00   40.77   1
  -5  -9  -4   43.17   30.50  -6
   9  -9  -5   43.17   30.50  -5
  -4  -9   9   43.17   30.50  -4
   5  -9  -9   43.17   30.50  -3
   4  -9   5   43.17   30.50  -2
  -9  -9   4   43.17   30.50   1
  -4  -9  -4  348.69   25.72  -6
   8  -9  -4  348.69   25.72  -5
  -4  -9   8  348.69   25.72  -4
   4  -9  -8  348.69   25.72  -3
   4  -9   4  348.69   25.72  -2
  -8  -9   4  348.69   25.72   1
  -4   9  -4  451.51   25.63  -6
   8   9  -4  451.51   25.63  -5
  -4   9   8  451.51   25.63  -4
   4   9  -8  451.51   25.63  -3
   4   9   4  451.51   25.63  -2
  -8   9   4  451.51   25.63   1
  -3  -9  -4  925.31   40.98  -6
   7  -9  -3  925.31   40.98  -5
  -4  -9   7  925.31   40.98  -4
   3  -9  -7  925.31   40.98  -3
   4  -9   3  925.31   40.98  -2
  -7  -9   4  925.31   40.98   1
  -3   9  -4  992.42   22.56  -6
   7   9  -3  992.42   22.56  -5
  -4   9   7  992.42   22.56  -4
   3   9  -7  992.42   22.56  -3
   4   9   3  992.42   22.56  -2
  -7   9   4  992.42   22.56   1
  -2   9  -4  871.74   21.33  -6
   6   9  -2  871.74   21.33  -5
  -4   9   6  871.74   21.33  -4
   2   9  -6  871.74   21.33  -3
   4   9   2  871.74   21.33  -2
  -6   9   4  871.74   21.33   1
  -1   9  -4  734.22   20.20  -6
   5   9  -1  734.22   20.20  -5
  -4   9   5  734.22   20.20  -4
   1   9  -5  734.22   20.20  -3
   4   9   1  734.22   20.20  -2
  -5   9   4  734.22   20.20   1
   0   9  -4  630.97   19.85  -6
   4   9   0  630.97   19.85  -5
  -4   9   4  630.97   19.85  -4
   0   9  -4  630.97   19.85  -3
   4   9   0  630.97   19.85  -2
  -4   9   4  630.97   19.85   1
   1   9  -4  558.36   25.59  -6
   3   9   1  558.36   25.59  -5
  -4   9   3  558.36   25.59  -4
  -1   9  -3  558.36   25.59  -3
   4   9  -1  558.36   25.59  -2
  -3   9   4  558.36   25.59   1
   2  -9  -4  202.67   21.87  -6
   2  -9   2  202.67   21.87  -5
  -4  -9   2  202.67   21.87  -4
  -2  -9  -2  202.67   21.87  -3
   4  -9  -2  202.67   21.87  -2
  -2  -9   4  202.67   21.87   1
   2   9  -4  233.68   15.71  -6
   2   9   2  233.68   15.71  -5
  -4   9   2  233.68   15.71  -4
  -2   9  -2  233.68   15.71  -3
   4   9  -2  233.68   15.71  -2
  -2   9   4  233.68   15.71   1
   3  -9  -4  526.23   12.89  -6
   1  -9   3  526.23   12.89  -5
  -4  -9   1  526.23   12.89  -4
  -3  -9  -1  526.23   12.89  -3
   4  -9  -3  526.23   12.89  -2
  -1  -9   4  526.23   12.89   1
   3   9  -4  515.53   18.17  -6
   1   9   3  515.53   18.17  -5
  -4   9   1  515.53   18.17  -4
  -3   9  -1  515.53   18.17  -3
   4   9  -3  515.53   18.17  -2
  -1   9   4  515.53   18.17   1
   4  -9  -4  560.81   23.65  -6
   0  -9   4  560.81   23.65  -5
  -4  -9   0  560.81   23.65  -4
  -4  -9   0  560.81   23.65  -3
   4  -9  -4  560.81   23.65  -2
   0  -9   4  560.81   23.65   1
   5  -9  -4  719.60   15.91  -6
  -1  -9   5  719.60   15.91  -5
  -4  -9  -1  719.60   15.91  -4
  -5  -9   1  719.60   15.91  -3
   4  -9  -5  719.60   15.91  -2
   1  -9   4  719.60   15.91   1
   5   9  -4  808.15   28.18  -6
  -1   9   5  808.15   28.18  -5
  -4   9  -1  808.15   28.18  -4
  -5   9   1  808.15   28.18  -3
   4   9  -5  808.15   28.18  -2
   1   9   4  808.15   28.18   1
   6  -9  -4  906.16   15.56  -6
  -2  -9   6  906.16   15.56  -5
  -4  -9  -2  906.16   15.56  -4
  -6  -9   2  906.16   15.56  -3
   4  -9  -6  906.16   15.56  -2
   2  -9   4  906.16   15.56   1
   6   9  -4  939.83   33.37  -6
  -2   9   6  939.83   33.37  -5
  -4   9  -2  939.83   33.37  -4
  -6   9   2  939.83   33.37  -3
   4   9  -6  939.83   33.37  -2
   2   9   4  939.83   33.37   1
   7  -9  -4 1080.11   22.87  -6
  -3  -9   7 1080.11   22.87  -5
  -4  -9  -3 1080.11   22.87  -4
  -7  -9   3 1080.11   22.87  -3
   4  -9  -7 1080.11   22.87  -2
   3  -9   4 1080.11   22.87   1
   7   9  -4 1145.66   39.11  -6
  -3   9   7 1145.66   39.11  -5
  -4   9  -3 1145.66   39.11  -4
  -7   9   3 1145.66   39.11  -3
   4   9  -7 1145.66   39.11  -2
   3   9   4 1145.66   39.11   1
   8  -9  -4  703.90   30.85  -6
  -4  -9   8  703.90   30.85  -5
  -4  -9  -4  703.90   30.85  -4
  -8  -9   4  703.90   30.85  -3
   4  -9  -8  703.90   30.85  -2
   4  -9   4  703.90   30.85   1
   9  -9  -4  344.20   42.65  -6
  -5  -9   9  344.20   42.65  -5
  -4  -9  -5  344.20   42.65  -4
  -9  -9   5  344.20   42.65  -3
   4  -9  -9  344.20   42.65  -2
   5  -9   4  344.20   42.65   1
  -4 -10  -4  271.04   26.55  -6
   8 -10  -4  271.04   26.55  -5
  -4 -10   8  271.04   26.55  -4
   4 -10  -8  271.04   26.55  -3
   4 -10   4  271.04   26.55  -2
  -8 -10   4  271.04   26.55   1
  -3 -10  -4  579.85   38.62  -6
   7 -10  -3  579.85   38.62  -5
  -4 -10   7  579.85   38.62  -4
   3 -10  -7  579.85   38.62  -3
   4 -10   3  579.85   38.62  -2
  -7 -10   4  579.85   38.62   1
  -3  10  -4  510.98   22.37  -6
   7  10  -3  510.98   22.37  -5
  -4  10   7  510.98   22.37  -4
   3  10  -7  510.98   22.37  -3
   4  10   3  510.98   22.37  -2
  -7  10   4  510.98   22.37   1
  -2 -10  -4  615.10   37.42  -6
   6 -10  -2  615.10   37.42  -5
  -4 -10   6  615.10   37.42  -4
   2 -10  -6  615.10   37.42  -3
   4 -10   2  615.10   37.42  -2
  -6 -10   4  615.10   37.42   1
  -2  10  -4  695.04   22.87  -6
   6  10  -2  695.04   22.87  -5
  -4  10   6  695.04   22.87  -4
   2  10  -6  695.04   22.87  -3
   4  10   2  695.04   22.87  -2
  -6  10   4  695.04   22.87   1
  -1  10  -4 1117.36   24.29  -6
   5  10  -1 1117.36   24.29  -5
  -4  10   5 1117.36   24.29  -4
   1  10  -5 1117.36   24.29  -3
   4  10   1 1117.36   24.29  -2
  -5  10   4 1117.36   24.29   1
   0  10  -4 1660.24   25.67  -6
   4  10   0 1660.24   25.67  -5
  -4  10   4 1660.24   25.67  -4
   0  10  -4 1660.24   25.67  -3
   4  10   0 1660.24   25.67  -2
  -4  10   4 1660.24   25.67   1
   1 -10  -4 1252.04   36.39  -6
   3 -10   1 1252.04   36.39  -5
  -4 -10   3 1252.04   36.39  -4
  -1 -10  -3 1252.04   36.39  -3
   4 -10  -1 1252.04   36.39  -2
  -3 -10   4 1252.04   36.39   1
   1  10  -4 1266.12   31.71  -6
   3  10   1 1266.12   31.71  -5
  -4  10   3 1266.12   31.71  -4
  -1  10  -3 1266.12   31.71  -3
   4  10  -1 1266.12   31.71  -2
  -3  10   4 1266.12   31.71   1
   2 -10  -4  947.83   30.53  -6
   2 -10   2  947.83   30.53  -5
  -4 -10   2  947.83   30.53  -4
  -2 -10  -2  947.83   30.53  -3
   4 -10  -2  947.83   30.53  -2
  -2 -10   4  947.83   30.53   1
   3 -10  -4 1509.86   33.32  -6
   1 -10   3 1509.86   33.32  -5
  -4 -10   1 1509.86   33.32  -4
  -3 -10  -1 1509.86   33.32  -3
   4 -10  -3 1509.86   33.32  -2
  -1 -10   4 1509.86   33.32   1
   4 -10  -4 1522.34   30.72  -6
   0 -10   4 1522.34   30.72  -5
  -4 -10   0 1522.34   30.72  -4
  -4 -10   0 1522.34   30.72  -3
   4 -10  -4 1522.34   30.72  -2
   0 -10   4 1522.34   30.72   1
   5 -10  -4 1153.31   24.99  -6
  -1 -10   5 1153.31   24.99  -5
  -4 -10  -1 1153.31   24.99  -4
  -5 -10   1 1153.31   24.99  -3
   4 -10  -5 1153.31   24.99  -2
   1 -10   4 1153.31   24.99   1
   5  10  -4 1057.46   29.33  -6
  -1  10   5 1057.46   29.33  -5
  -4  10  -1 1057.46   29.33  -4
  -5  10   1 1057.46   29.33  -3
   4  10  -5 1057.46   29.33  -2
   1  10   4 1057.46   29.33   1
   6 -10  -4  620.52   18.74  -6
  -2 -10   6  620.52   18.74  -5
  -4 -10  -2  620.52   18.74  -4
  -6 -10   2  620.52   18.74  -3
   4 -10  -6  620.52   18.74  -2
   2 -10   4  620.52   18.74   1
   7 -10  -4  413.27   26.97  -6
  -3 -10   7  413.27   26.97  -5
  -4 -10  -3  413.27   26.97  -4
  -7 -10   3  413.27   26.97  -3
   4 -10  -7  413.27   26.97  -2
   3 -10   4  413.27   26.97   1
  -3  11  -4  801.09   24.33  -6
   7  11  -3  801.09   24.33  -5
  -4  11   7  801.09   24.33  -4
   3  11  -7  801.09   24.33  -3
   4  11   3  801.09   24.33  -2
  -7  11   4  801.09   24.33   1
  -2  11  -4  997.39   24.87  -6
   6  11  -2  997.39   24.87  -5
  -4  11   6  997.39   24.87  -4
   2  11  -6  997.39   24.87  -3
   4  11   2  997.39   24.87  -2
  -6  11   4  997.39   24.87   1
  -1  11  -4  767.63   22.64  -6
   5  11  -1  767.63   22.64  -5
  -4  11   5  767.63   22.64  -4
   1  11  -5  767.63   22.64  -3
   4  11   1  767.63   22.64  -2
  -5  11   4  767.63   22.64   1
   0 -11  -4  869.27   40.04  -6
   4 -11   0  869.27   40.04  -5
  -4 -11   4  869.27   40.04  -4
   0 -11  -4  869.27   40.04  -3
   4 -11   0  869.27   40.04  -2
  -4 -11   4  869.27   40.04   1
   0  11  -4  892.39   22.22  -6
   4  11   0  892.39   22.22  -5
  -4  11   4  892.39   22.22  -4
   0  11  -4  892.39   22.22  -3
   4  11   0  892.39   22.22  -2
  -4  11   4  892.39   22.22   1
   1 -11  -4  633.90   31.98  -6
   3 -11   1  633.90   31.98  -5
  -4 -11   3  633.90   31.98  -4
  -1 -11  -3  633.90   31.98  -3
   4 -11  -1  633.90   31.98  -2
  -3 -11   4  633.90   31.98   1
   1  11  -4  651.82   34.42  -6
   3  11   1  651.82   34.42  -5
  -4  11   3  651.82   34.42  -4
  -1  11  -3  651.82   34.42  -3
   4  11  -1  651.82   34.42  -2
  -3  11   4  651.82   34.42   1
   2 -11  -4  472.77   28.77  -6
   2 -11   2  472.77   28.77  -5
  -4 -11   2  472.77   28.77  -4
  -2 -11  -2  472.77   28.77  -3
   4 -11  -2  472.77   28.77  -2
  -2 -11   4  472.77   28.77   1
   3 -11  -4  659.56   20.05  -6
   1 -11   3  659.56   20.05  -5
  -4 -11   1  659.56   20.05  -4
  -3 -11  -1  659.56   20.05  -3
   4 -11  -3  659.56   20.05  -2
  -1 -11   4  659.56   20.05   1
   4 -11  -4  877.37   27.42  -6
   0 -11   4  877.37   27.42  -5
  -4 -11   0  877.37   27.42  -4
  -4 -11   0  877.37   27.42  -3
   4 -11  -4  877.37   27.42  -2
   0 -11   4  877.37   27.42   1
   5 -11  -4  787.97   23.97  -6
  -1 -11   5  787.97   23.97  -5
  -4 -11  -1  787.97   23.97  -4
  -5 -11   1  787.97   23.97  -3
   4 -11  -5  787.97   23.97  -2
   1 -11   4  787.97   23.97   1
   6 -11  -4 1124.44   30.56  -6
  -2 -11   6 1124.44   30.56  -5
  -4 -11  -2 1124.44   30.56  -4
  -6 -11   2 1124.44   30.56  -3
   4 -11  -6 1124.44   30.56  -2
   2 -11   4 1124.44   30.56   1
   7 -11  -4 1025.58   31.69  -6
  -3 -11   7 1025.58   31.69  -5
  -4 -11  -3 1025.58   31.69  -4
  -7 -11   3 1025.58   31.69  -3
   4 -11  -7 1025.58   31.69  -2
   3 -11   4 1025.58   31.69   1
  -3  12  -4  372.42   29.20  -6
   7  12  -3  372.42   29.20  -5
  -4  12   7  372.42   29.20  -4
   3  12  -7  372.42   29.20  -3
   4  12   3  372.42   29.20  -2
  -7  12   4  372.42   29.20   1
  -2 -12  -4  690.75   42.70  -6
   6 -12  -2  690.75   42.70  -5
  -4 -12   6  690.75   42.70  -4
   2 -12  -6  690.75   42.70  -3
   4 -12   2  690.75   42.70  -2
  -6 -12   4  690.75   42.70   1
  -2  12  -4  760.72   25.62  -6
   6  12  -2  760.72   25.62  -5
  -4  12   6  760.72   25.62  -4
   2  12  -6  760.72   25.62  -3
   4  12   2  760.72   25.62  -2
  -6  12   4  760.72   25.62   1
  -1  12  -4 1157.78   26.81  -6
   5  12  -1 1157.78   26.81  -5
  -4  12   5 1157.78   26.81  -4
   1  12  -5 1157.78   26.81  -3
   4  12   1 1157.78   26.81  -2
  -5  12   4 1157.78   26.81   1
   0 -12  -4 1508.32   45.30  -6
   4 -12   0 1508.32   45.30  -5
  -4 -12   4 1508.32   45.30  -4
   0 -12  -4 1508.32   45.30  -3
   4 -12   0 1508.32   45.30  -2
  -4 -12   4 1508.32   45.30   1
   0  12  -4 1520.11   27.55  -6
   4  12   0 1520.11   27.55  -5
  -4  12   4 1520.11   27.55  -4
   0  12  -4 1520.11   27.55  -3
   4  12   0 1520.11   27.55  -2
  -4  12   4 1520.11   27.55   1
   1 -12  -4 1311.76   38.94  -6
   3 -12   1 1311.76   38.94  -5
  -4 -12   3 1311.76   38.94  -4
  -1 -12  -3 1311.76   38.94  -3
   4 -12  -1 1311.76   38.94  -2
  -3 -12   4 1311.76   38.94   1
   1  12  -4 1299.07   40.35  -6
   3  12   1 1299.07   40.35  -5
  -4  12   3 1299.07   40.35  -4
  -1  12  -3 1299.07   40.35  -3
   4  12  -1 1299.07   40.35  -2
  -3  12   4 1299.07   40.35   1
   2 -12  -4 1392.38   39.67  -6
   2 -12   2 1392.38   39.67  -5
  -4 -12   2 1392.38   39.67  -4
  -2 -12  -2 1392.38   39.67  -3
   4 -12  -2 1392.38   39.67  -2
  -2 -12   4 1392.38   39.67   1
   2  12  -4 1221.12   42.59  -6
   2  12   2 1221.12   42.59  -5
  -4  12   2 1221.12   42.59  -4
  -2  12  -2 1221.12   42.59  -3
   4  12  -2 1221.12   42.59  -2
  -2  12   4 1221.12   42.59   1
   3 -12  -4 1392.93   36.49  -6
   1 -12   3 1392.93   36.49  -5
  -4 -12   1 1392.93   36.49  -4
  -3 -12  -1 1392.93   36.49  -3
   4 -12  -3 1392.93   36.49  -2
  -1 -12   4 1392.93   36.49   1
   3  12  -4 1173.13   43.49  -6
   1  12   3 1173.13   43.49  -5
  -4  12   1 1173.13   43.49  -4
  -3  12  -1 1173.13   43.49  -3
   4  12  -3 1173.13   43.49  -2
  -1  12   4 1173.13   43.49   1
   5 -12  -4 1217.16   31.62  -6
  -1 -12   5 1217.16   31.62  -5
  -4 -12  -1 1217.16   31.62  -4
  -5 -12   1 1217.16   31.62  -3
   4 -12  -5 1217.16   31.62  -2
   1 -12   4 1217.16   31.62   1
   6 -12  -4  791.67   30.32  -6
  -2 -12   6  791.67   30.32  -5
  -4 -12  -2  791.67   30.32  -4
  -6 -12   2  791.67   30.32  -3
   4 -12  -6  791.67   30.32  -2
   2 -12   4  791.67   30.32   1
   7 -12  -4  444.63   47.04  -6
  -3 -12   7  444.63   47.04  -5
  -4 -12  -3  444.63   47.04  -4
  -7 -12   3  444.63   47.04  -3
   4 -12  -7  444.63   47.04  -2
   3 -12   4  444.63   47.04   1
   7  12  -4  303.70   38.25  -6
  -3  12   7  303.70   38.25  -5
  -4  12  -3  303.70   38.25  -4
  -7  12   3  303.70   38.25  -3
   4  12  -7  303.70   38.25  -2
   3  12   4  303.70   38.25   1
  -2  13  -4  782.78   26.20  -6
   6  13  -2  782.78   26.20  -5
  -4  13   6  782.78   26.20  -4
   2  13  -6  782.78   26.20  -3
   4  13   2  782.78   26.20  -2
  -6  13   4  782.78   26.20   1
  -1  13  -4  827.32   24.47  -6
   5  13  -1  827.32   24.47  -5
  -4  13   5  827.32   24.47  -4
   1  13  -5  827.32   24.47  -3
   4  13   1  827.32   24.47  -2
  -5  13   4  827.32   24.47   1
   0  13  -4  626.58   24.21  -6
   4  13   0  626.58   24.21  -5
  -4  13   4  626.58   24.21  -4
   0  13  -4  626.58   24.21  -3
   4  13   0  626.58   24.21  -2
  -4  13   4  626.58   24.21   1
   1 -13  -4  656.72   37.31  -6
   3 -13   1  656.72   37.31  -5
  -4 -13   3  656.72   37.31  -4
  -1 -13  -3  656.72   37.31  -3
   4 -13  -1  656.72   37.31  -2
  -3 -13   4  656.72   37.31   1
   1  13  -4  719.65   39.43  -6
   3  13   1  719.65   39.43  -5
  -4  13   3  719.65   39.43  -4
  -1  13  -3  719.65   39.43  -3
   4  13  -1  719.65   39.43  -2
  -3  13   4  719.65   39.43   1
   2 -13  -4  557.42   34.95  -6
   2 -13   2  557.42   34.95  -5
  -4 -13   2  557.42   34.95  -4
  -2 -13  -2  557.42   34.95  -3
   4 -13  -2  557.42   34.95  -2
  -2 -13   4  557.42   34.95   1
   2  13  -4  584.87   37.59  -6
   2  13   2  584.87   37.59  -5
  -4  13   2  584.87   37.59  -4
  -2  13  -2  584.87   37.59  -3
   4  13  -2  584.87   37.59  -2
  -2  13   4  584.87   37.59   1
   3 -13  -4  622.50   32.95  -6
   1 -13   3  622.50   32.95  -5
  -4 -13   1  622.50   32.95  -4
  -3 -13  -1  622.50   32.95  -3
   4 -13  -3  622.50   32.95  -2
  -1 -13   4  622.50   32.95   1
   3  13  -4  583.61   38.66  -6
   1  13   3  583.61   38.66  -5
  -4  13   1  583.61   38.66  -4
  -3  13  -1  583.61   38.66  -3
   4  13  -3  583.61   38.66  -2
  -1  13   4  583.61   38.66   1
   4  13  -4  495.40   40.30  -6
   0  13   4  495.40   40.30  -5
  -4  13   0  495.40   40.30  -4
  -4  13   0  495.40   40.30  -3
   4  13  -4  495.40   40.30  -2
   0  13   4  495.40   40.30   1
   5 -13  -4  725.08   29.09  -6
  -1 -13   5  725.08   29.09  -5
  -4 -13  -1  725.08   29.09  -4
  -5 -13   1  725.08   29.09  -3
   4 -13  -5  725.08   29.09  -2
   1 -13   4  725.08   29.09   1
   5  13  -4  694.76   41.18  -6
  -1  13   5  694.76   41.18  -5
  -4  13  -1  694.76   41.18  -4
  -5  13   1  694.76   41.18  -3
   4  13  -5  694.76   41.18  -2
   1  13   4  694.76   41.18   1
   6 -13  -4  747.95   30.60  -6
  -2 -13   6  747.95   30.60  -5
  -4 -13  -2  747.95   30.60  -4
  -6 -13   2  747.95   30.60  -3
   4 -13  -6  747.95   30.60  -2
   2 -13   4  747.95   30.60   1
  -1  14  -4  564.24   34.39  -6
   5  14  -1  564.24   34.39  -5
  -4  14   5  564.24   34.39  -4
   1  14  -5  564.24   34.39  -3
   4  14   1  564.24   34.39  -2
  -5  14   4  564.24   34.39   1
   0 -14  -4  800.65   41.44  -6
   4 -14   0  800.65   41.44  -5
  -4 -14   4  800.65   41.44  -4
   0 -14  -4  800.65   41.44  -3
   4 -14   0  800.65   41.44  -2
  -4 -14   4  800.65   41.44   1
   0  14  -4  884.25   28.30  -6
   4  14   0  884.25   28.30  -5
  -4  14   4  884.25   28.30  -4
   0  14  -4  884.25   28.30  -3
   4  14   0  884.25   28.30  -2
  -4  14   4  884.25   28.30   1
   1 -14  -4  867.36   39.74  -6
   3 -14   1  867.36   39.74  -5
  -4 -14   3  867.36   39.74  -4
  -1 -14  -3  867.36   39.74  -3
   4 -14  -1  867.36   39.74  -2
  -3 -14   4  867.36   39.74   1
   1  14  -4  953.47   40.41  -6
   3  14   1  953.47   40.41  -5
  -4  14   3  953.47   40.41  -4
  -1  14  -3  953.47   40.41  -3
   4  14  -1  953.47   40.41  -2
  -3  14   4  953.47   40.41   1
   2 -14  -4  752.23   39.02  -6
   2 -14   2  752.23   39.02  -5
  -4 -14   2  752.23   39.02  -4
  -2 -14  -2  752.23   39.02  -3
   4 -14  -2  752.23   39.02  -2
  -2 -14   4  752.23   39.02   1
   2  14  -4  728.71   40.18  -6
   2  14   2  728.71   40.18  -5
  -4  14   2  728.71   40.18  -4
  -2  14  -2  728.71   40.18  -3
   4  14  -2  728.71   40.18  -2
  -2  14   4  728.71   40.18   1
   3 -14  -4  851.86   38.28  -6
   1 -14   3  851.86   38.28  -5
  -4 -14   1  851.86   38.28  -4
  -3 -14  -1  851.86   38.28  -3
   4 -14  -3  851.86   38.28  -2
  -1 -14   4  851.86   38.28   1
   3  14  -4  896.60   44.06  -6
   1  14   3  896.60   44.06  -5
  -4  14   1  896.60   44.06  -4
  -3  14  -1  896.60   44.06  -3
   4  14  -3  896.60   44.06  -2
  -1  14   4  896.60   44.06   1
   4  14  -4  737.32   41.67  -6
   0  14   4  737.32   41.67  -5
  -4  14   0  737.32   41.67  -4
  -4  14   0  737.32   41.67  -3
   4  14  -4  737.32   41.67  -2
   0  14   4  737.32   41.67   1
   5 -14  -4  553.15   40.37  -6
  -1 -14   5  553.15   40.37  -5
  -4 -14  -1  553.15   40.37  -4
  -5 -14   1  553.15   40.37  -3
   4 -14  -5  553.15   40.37  -2
   1 -14   4  553.15   40.37   1
   5  14  -4  441.02   40.00  -6
  -1  14   5  441.02   40.00  -5
  -4  14  -1  441.02   40.00  -4
  -5  14   1  441.02   40.00  -3
   4  14  -5  441.02   40.00  -2
   1  14   4  441.02   40.00   1
   6 -14  -4  487.07   31.69  -6
  -2 -14   6  487.07   31.69  -5
  -4 -14  -2  487.07   31.69  -4
  -6 -14   2  487.07   31.69  -3
   4 -14  -6  487.07   31.69  -2
   2 -14   4  487.07   31.69   1
   6  14  -4  356.04   40.20  -6
  -2  14   6  356.04   40.20  -5
  -4  14  -2  356.04   40.20  -4
  -6  14   2  356.04   40.20  -3
   4  14  -6  356.04   40.20  -2
   2  14   4  356.04   40.20   1
   2 -15  -4  420.55   37.26  -6
   2 -15   2  420.55   37.26  -5
  -4 -15   2  420.55   37.26  -4
  -2 -15  -2  420.55   37.26  -3
   4 -15  -2  420.55   37.26  -2
  -2 -15   4  420.55   37.26   1
   3 -15  -4  317.55   34.58  -6
   1 -15   3  317.55   34.58  -5
  -4 -15   1  317.55   34.58  -4
  -3 -15  -1  317.55   34.58  -3
   4 -15  -3  317.55   34.58  -2
  -1 -15   4  317.55   34.58   1
  -4   0  -5  455.30   35.53  -6
   9   0  -4  455.30   35.53  -5
  -5   0   9  455.30   35.53  -4
   4   0  -9  455.30   35.53  -3
   5   0   4  455.30   35.53  -2
  -9   0   5  455.30   35.53   1
  -3   0  -5  509.89   31.04  -6
   8   0  -3  509.89   31.04  -5
  -5   0   8  509.89   31.04  -4
   3   0  -8  509.89   31.04  -3
   5   0   3  509.89   31.04  -2
  -8   0   5  509.89   31.04   1
  -2   0  -5  937.20   21.32  -6
   7   0  -2  937.20   21.32  -5
  -5   0   7  937.20   21.32  -4
   2   0  -7  937.20   21.32  -3
   5   0   2  937.20   21.32  -2
  -7   0   5  937.20   21.32   1
  -1   0  -5  858.93   18.00  -6
   6   0  -1  858.93   18.00  -5
  -5   0   6  858.93   18.00  -4
   1   0  -6  858.93   18.00  -3
   5   0   1  858.93   18.00  -2
  -6   0   5  858.93   18.00   1
   0   0  -5 1038.60   16.30  -6
   5   0   0 1038.60   16.30  -5
  -5   0   5 1038.60   16.30  -4
   0   0  -5 1038.60   16.30  -3
   5   0   0 1038.60   16.30  -2
  -5   0   5 1038.60   16.30   1
   1   0  -5 2025.73   15.98  -6
   4   0   1 2025.73   15.98  -5
  -5   0   4 2025.73   15.98  -4
  -1   0  -4 2025.73   15.98  -3
   5   0  -1 2025.73   15.98  -2
  -4   0   5 2025.73   15.98   1
   2   0  -5 3836.12   20.71  -6
   3   0   2 3836.12   20.71  -5
  -5   0   3 3836.12   20.71  -4
  -2   0  -3 3836.12   20.71  -3
   5   0  -2 3836.12   20.71  -2
  -3   0   5 3836.12   20.71   1
   3   0  -5 3680.15   16.80  -6
   2   0   3 3680.15   16.80  -5
  -5   0   2 3680.15   16.80  -4
  -3   0  -2 3680.15   16.80  -3
   5   0  -3 3680.15   16.80  -2
  -2   0   5 3680.15   16.80   1
   5   0  -5 1043.48   20.53  -6
   0   0   5 1043.48   20.53  -5
  -5   0   0 1043.48   20.53  -4
  -5   0   0 1043.48   20.53  -3
   5   0  -5 1043.48   20.53  -2
   0   0   5 1043.48   20.53   1
   6   0  -5  878.27   22.38  -6
  -1   0   6  878.27   22.38  -5
  -5   0  -1  878.27   22.38  -4
  -6   0   1  878.27   22.38  -3
   5   0  -6  878.27   22.38  -2
   1   0   5  878.27   22.38   1
   7   0  -5 1031.93   34.34  -6
  -2   0   7 1031.93   34.34  -5
  -5   0  -2 1031.93   34.34  -4
  -7   0   2 1031.93   34.34  -3
   5   0  -7 1031.93   34.34  -2
   2   0   5 1031.93   34.34   1
   8   0  -5  475.54   24.79  -6
  -3   0   8  475.54   24.79  -5
  -5   0  -3  475.54   24.79  -4
  -8   0   3  475.54   24.79  -3
   5   0  -8  475.54   24.79  -2
   3   0   5  475.54   24.79   1
   9   0  -5  392.13   26.19  -6
  -4   0   9  392.13   26.19  -5
  -5   0  -4  392.13   26.19  -4
  -9   0   4  392.13   26.19  -3
   5   0  -9  392.13   26.19  -2
   4   0   5  392.13   26.19   1
  10   0  -5  286.57   29.40  -6
  -5   0  10  286.57   29.40  -5
  -5   0  -5  286.57   29.40  -4
 -10   0   5  286.57   29.40  -3
   5   0 -10  286.57   29.40  -2
   5   0   5  286.57   29.40   1
  -4  -1  -5  239.48   32.53  -6
   9  -1  -4  239.48   32.53  -5
  -5  -1   9  239.48   32.53  -4
   4  -1  -9  239.48   32.53  -3
   5  -1   4  239.48   32.53  -2
  -9  -1   5  239.48   32.53   1
  -4   1  -5  240.68   31.29  -6
   9   1  -4  240.68   31.29  -5
  -5   1   9  240.68   31.29  -4
   4   1  -9  240.68   31.29  -3
   5   1   4  240.68   31.29  -2
  -9   1   5  240.68   31.29   1
  -3  -1  -5  519.47   30.44  -6
   8  -1  -3  519.47   30.44  -5
  -5  -1   8  519.47   30.44  -4
   3  -1  -8  519.47   30.44  -3
   5  -1   3  519.47   30.44  -2
  -8  -1   5  519.47   30.44   1
  -3   1  -5  591.00   30.15  -6
   8   1  -3  591.00   30.15  -5
  -5   1   8  591.00   30.15  -4
   3   1  -8  591.00   30.15  -3
   5   1   3  591.00   30.15  -2
  -8   1   5  591.00   30.15   1
  -2  -1  -5  475.39   26.87  -6
   7  -1  -2  475.39   26.87  -5
  -5  -1   7  475.39   26.87  -4
   2  -1  -7  475.39   26.87  -3
   5  -1   2  475.39   26.87  -2
  -7  -1   5  475.39   26.87   1
  -2   1  -5  615.99   26.72  -6
   7   1  -2  615.99   26.72  -5
  -5   1   7  615.99   26.72  -4
   2   1  -7  615.99   26.72  -3
   5   1   2  615.99   26.72  -2
  -7   1   5  615.99   26.72   1
  -1  -1  -5 1433.70   26.67  -6
   6  -1  -1 1433.70   26.67  -5
  -5  -1   6 1433.70   26.67  -4
   1  -1  -6 1433.70   26.67  -3
   5  -1   1 1433.70   26.67  -2
  -6  -1   5 1433.70   26.67   1
  -1   1  -5 1290.94   29.29  -6
   6   1  -1 1290.94   29.29  -5
  -5   1   6 1290.94   29.29  -4
   1   1  -6 1290.94   29.29  -3
   5   1   1 1290.94   29.29  -2
  -6   1   5 1290.94   29.29   1
   0  -1  -5 1478.91   16.60  -6
   5  -1   0 1478.91   16.60  -5
  -5  -1   5 1478.91   16.60  -4
   0  -1  -5 1478.91   16.60  -3
   5  -1   0 1478.91   16.60  -2
  -5  -1   5 1478.91   16.60   1
   0   1  -5 1530.17   17.58  -6
   5   1   0 1530.17   17.58  -5
  -5   1   5 1530.17   17.58  -4
   0   1  -5 1530.17   17.58  -3
   5   1   0 1530.17   17.58  -2
  -5   1   5 1530.17   17.58   1
   1  -1  -5 1828.71   12.66  -6
   4  -1   1 1828.71   12.66  -5
  -5  -1   4 1828.71   12.66  -4
  -1  -1  -4 1828.71   12.66  -3
   5  -1  -1 1828.71   12.66  -2
  -4  -1   5 1828.71   12.66   1
   1   1  -5 1922.45   16.67  -6
   4   1   1 1922.45   16.67  -5
  -5   1   4 1922.45   16.67  -4
  -1   1  -4 1922.45   16.67  -3
   5   1  -1 1922.45   16.67  -2
  -4   1   5 1922.45   16.67   1
   2  -1  -5 2531.68   15.96  -6
   3  -1   2 2531.68   15.96  -5
  -5  -1   3 2531.68   15.96  -4
  -2  -1  -3 2531.68   15.96  -3
   5  -1  -2 2531.68   15.96  -2
  -3  -1   5 2531.68   15.96   1
   2   1  -5 2530.46   16.92  -6
   3   1   2 2530.46   16.92  -5
  -5   1   3 2530.46   16.92  -4
  -2   1  -3 2530.46   16.92  -3
   5   1  -2 2530.46   16.92  -2
  -3   1   5 2530.46   16.92   1
   3  -1  -5 2639.89   21.21  -6
   2  -1   3 2639.89   21.21  -5
  -5  -1   2 2639.89   21.21  -4
  -3  -1  -2 2639.89   21.21  -3
   5  -1  -3 2639.89   21.21  -2
  -2  -1   5 2639.89   21.21   1
   3   1  -5 2605.21   21.96  -6
   2   1   3 2605.21   21.96  -5
  -5   1   2 2605.21   21.96  -4
  -3   1  -2 2605.21   21.96  -3
   5   1  -3 2605.21   21.96  -2
  -2   1   5 2605.21   21.96   1
   4  -1  -5 1812.63   33.16  -6
   1  -1   4 1812.63   33.16  -5
  -5  -1   1 1812.63   33.16  -4
  -4  -1  -1 1812.63   33.16  -3
   5  -1  -4 1812.63   33.16  -2
  -1  -1   5 1812.63   33.16   1
   4   1  -5 1847.30   18.30  -6
   1   1   4 1847.30   18.30  -5
  -5   1   1 1847.30   18.30  -4
  -4   1  -1 1847.30   18.30  -3
   5   1  -4 1847.30   18.30  -2
  -1   1   5 1847.30   18.30   1
   5  -1  -5 1073.78   26.42  -6
   0  -1   5 1073.78   26.42  -5
  -5  -1   0 1073.78   26.42  -4
  -5  -1   0 1073.78   26.42  -3
   5  -1  -5 1073.78   26.42  -2
   0  -1   5 1073.78   26.42   1
   5   1  -5 1169.08   28.66  -6
   0   1   5 1169.08   28.66  -5
  -5   1   0 1169.08   28.66  -4
  -5   1   0 1169.08   28.66  -3
   5   1  -5 1169.08   28.66  -2
   0   1   5 1169.08   28.66   1
   6  -1  -5 1221.69   23.75  -6
  -1  -1   6 1221.69   23.75  -5
  -5  -1  -1 1221.69   23.75  -4
  -6  -1   1 1221.69   23.75  -3
   5  -1  -6 1221.69   23.75  -2
   1  -1   5 1221.69   23.75   1
   6   1  -5 1389.60   17.74  -6
  -1   1   6 1389.60   17.74  -5
  -5   1  -1 1389.60   17.74  -4
  -6   1   1 1389.60   17.74  -3
   5   1  -6 1389.60   17.74  -2
   1   1   5 1389.60   17.74   1
   7  -1  -5  825.39   31.76  -6
  -2  -1   7  825.39   31.76  -5
  -5  -1  -2  825.39   31.76  -4
  -7  -1   2  825.39   31.76  -3
   5  -1  -7  825.39   31.76  -2
   2  -1   5  825.39   31.76   1
   7   1  -5 1001.32   33.91  -6
  -2   1   7 1001.32   33.91  -5
  -5   1  -2 1001.32   33.91  -4
  -7   1   2 1001.32   33.91  -3
   5   1  -7 1001.32   33.91  -2
   2   1   5 1001.32   33.91   1
   8  -1  -5 1142.01   39.88  -6
  -3  -1   8 1142.01   39.88  -5
  -5  -1  -3 1142.01   39.88  -4
  -8  -1   3 1142.01   39.88  -3
   5  -1  -8 1142.01   39.88  -2
   3  -1   5 1142.01   39.88   1
   8   1  -5 1083.42   37.59  -6
  -3   1   8 1083.42   37.59  -5
  -5   1  -3 1083.42   37.59  -4
  -8   1   3 1083.42   37.59  -3
   5   1  -8 1083.42   37.59  -2
   3   1   5 1083.42   37.59   1
   9  -1  -5 1547.77   31.77  -6
  -4  -1   9 1547.77   31.77  -5
  -5  -1  -4 1547.77   31.77  -4
  -9  -1   4 1547.77   31.77  -3
   5  -1  -9 1547.77   31.77  -2
   4  -1   5 1547.77   31.77   1
   9   1  -5 1546.81   31.28  -6
  -4   1   9 1546.81   31.28  -5
  -5   1  -4 1546.81   31.28  -4
  -9   1   4 1546.81   31.28  -3
   5   1  -9 1546.81   31.28  -2
   4   1   5 1546.81   31.28   1
  10  -1  -5 1161.65   46.16  -6
  -5  -1  10 1161.65   46.16  -5
  -5  -1  -5 1161.65   46.16  -4
 -10  -1   5 1161.65   46.16  -3
   5  -1 -10 1161.65   46.16  -2
   5  -1   5 1161.65   46.16   1
  10   1  -5 1231.33   45.06  -6
  -5   1  10 1231.33   45.06  -5
  -5   1  -5 1231.33   45.06  -4
 -10   1   5 1231.33   45.06  -3
   5   1 -10 1231.33   45.06  -2
   5   1   5 1231.33   45.06   1
  -4  -2  -5  470.38   33.43  -6
   9  -2  -4  470.38   33.43  -5
  -5  -2   9  470.38   33.43  -4
   4  -2  -9  470.38   33.43  -3
   5  -2   4  470.38   33.43  -2
  -9  -2   5  470.38   33.43   1
  -4   2  -5  541.18   27.06  -6
   9   2  -4  541.18   27.06  -5
  -5   2   9  541.18   27.06  -4
   4   2  -9  541.18   27.06  -3
   5   2   4  541.18   27.06  -2
  -9   2   5  541.18   27.06   1
  -3   2  -5  700.44   23.72  -6
   8   2  -3  700.44   23.72  -5
  -5   2   8  700.44   23.72  -4
   3   2  -8  700.44   23.72  -3
   5   2   3  700.44   23.72  -2
  -8   2   5  700.44   23.72   1
  -2  -2  -5  744.96   20.58  -6
   7  -2  -2  744.96   20.58  -5
  -5  -2   7  744.96   20.58  -4
   2  -2  -7  744.96   20.58  -3
   5  -2   2  744.96   20.58  -2
  -7  -2   5  744.96   20.58   1
  -2   2  -5  761.78   28.20  -6
   7   2  -2  761.78   28.20  -5
  -5   2   7  761.78   28.20  -4
   2   2  -7  761.78   28.20  -3
   5   2   2  761.78   28.20  -2
  -7   2   5  761.78   28.20   1
  -1  -2  -5  960.50   18.70  -6
   6  -2  -1  960.50   18.70  -5
  -5  -2   6  960.50   18.70  -4
   1  -2  -6  960.50   18.70  -3
   5  -2   1  960.50   18.70  -2
  -6  -2   5  960.50   18.70   1
  -1   2  -5  975.89   19.79  -6
   6   2  -1  975.89   19.79  -5
  -5   2   6  975.89   19.79  -4
   1   2  -6  975.89   19.79  -3
   5   2   1  975.89   19.79  -2
  -6   2   5  975.89   19.79   1
   0  -2  -5 1026.60   13.25  -6
   5  -2   0 1026.60   13.25  -5
  -5  -2   5 1026.60   13.25  -4
   0  -2  -5 1026.60   13.25  -3
   5  -2   0 1026.60   13.25  -2
  -5  -2   5 1026.60   13.25   1
   0   2  -5 1312.70   18.32  -6
   5   2   0 1312.70   18.32  -5
  -5   2   5 1312.70   18.32  -4
   0   2  -5 1312.70   18.32  -3
   5   2   0 1312.70   18.32  -2
  -5   2   5 1312.70   18.32   1
   1  -2  -5 1308.28   11.68  -6
   4  -2   1 1308.28   11.68  -5
  -5  -2   4 1308.28   11.68  -4
  -1  -2  -4 1308.28   11.68  -3
   5  -2  -1 1308.28   11.68  -2
  -4  -2   5 1308.28   11.68   1
   1   2  -5 1399.48   23.14  -6
   4   2   1 1399.48   23.14  -5
  -5   2   4 1399.48   23.14  -4
  -1   2  -4 1399.48   23.14  -3
   5   2  -1 1399.48   23.14  -2
  -4   2   5 1399.48   23.14   1
   2  -2  -5 2840.33   25.56  -6
   3  -2   2 2840.33   25.56  -5
  -5  -2   3 2840.33   25.56  -4
  -2  -2  -3 2840.33   25.56  -3
   5  -2  -2 2840.33   25.56  -2
  -3  -2   5 2840.33   25.56   1
   2   2  -5 3015.20   28.97  -6
   3   2   2 3015.20   28.97  -5
  -5   2   3 3015.20   28.97  -4
  -2   2  -3 3015.20   28.97  -3
   5   2  -2 3015.20   28.97  -2
  -3   2   5 3015.20   28.97   1
   3  -2  -5 3044.06   36.69  -6
   2  -2   3 3044.06   36.69  -5
  -5  -2   2 3044.06   36.69  -4
  -3  -2  -2 3044.06   36.69  -3
   5  -2  -3 3044.06   36.69  -2
  -2  -2   5 3044.06   36.69   1
   3   2  -5 3123.74   19.19  -6
   2   2   3 3123.74   19.19  -5
  -5   2   2 3123.74   19.19  -4
  -3   2  -2 3123.74   19.19  -3
   5   2  -3 3123.74   19.19  -2
  -2   2   5 3123.74   19.19   1
   4   2  -5 1330.98   15.80  -6
   1   2   4 1330.98   15.80  -5
  -5   2   1 1330.98   15.80  -4
  -4   2  -1 1330.98   15.80  -3
   5   2  -4 1330.98   15.80  -2
  -1   2   5 1330.98   15.80   1
   5  -2  -5  999.87   19.83  -6
   0  -2   5  999.87   19.83  -5
  -5  -2   0  999.87   19.83  -4
  -5  -2   0  999.87   19.83  -3
   5  -2  -5  999.87   19.83  -2
   0  -2   5  999.87   19.83   1
   5   2  -5  987.64   31.89  -6
   0   2   5  987.64   31.89  -5
  -5   2   0  987.64   31.89  -4
  -5   2   0  987.64   31.89  -3
   5   2  -5  987.64   31.89  -2
   0   2   5  987.64   31.89   1
   6  -2  -5  845.97   21.11  -6
  -1  -2   6  845.97   21.11  -5
  -5  -2  -1  845.97   21.11  -4
  -6  -2   1  845.97   21.11  -3
   5  -2  -6  845.97   21.11  -2
   1  -2   5  845.97   21.11   1
   6   2  -5  697.57   12.10  -6
  -1   2   6  697.57   12.10  -5
  -5   2  -1  697.57   12.10  -4
  -6   2   1  697.57   12.10  -3
   5   2  -6  697.57   12.10  -2
   1   2   5  697.57   12.10   1
   7  -2  -5  774.80   32.02  -6
  -2  -2   7  774.80   32.02  -5
  -5  -2  -2  774.80   32.02  -4
  -7  -2   2  774.80   32.02  -3
   5  -2  -7  774.80   32.02  -2
   2  -2   5  774.80   32.02   1
   7   2  -5  903.76   33.95  -6
  -2   2   7  903.76   33.95  -5
  -5   2  -2  903.76   33.95  -4
  -7   2   2  903.76   33.95  -3
   5   2  -7  903.76   33.95  -2
   2   2   5  903.76   33.95   1
   8  -2  -5  505.35   25.18  -6
  -3  -2   8  505.35   25.18  -5
  -5  -2  -3  505.35   25.18  -4
  -8  -2   3  505.35   25.18  -3
   5  -2  -8  505.35   25.18  -2
   3  -2   5  505.35   25.18   1
   8   2  -5  413.08   13.89  -6
  -3   2   8  413.08   13.89  -5
  -5   2  -3  413.08   13.89  -4
  -8   2   3  413.08   13.89  -3
   5   2  -8  413.08   13.89  -2
   3   2   5  413.08   13.89   1
   9  -2  -5  407.98   26.67  -6
  -4  -2   9  407.98   26.67  -5
  -5  -2  -4  407.98   26.67  -4
  -9  -2   4  407.98   26.67  -3
   5  -2  -9  407.98   26.67  -2
   4  -2   5  407.98   26.67   1
   9   2  -5  423.09   26.15  -6
  -4   2   9  423.09   26.15  -5
  -5   2  -4  423.09   26.15  -4
  -9   2   4  423.09   26.15  -3
   5   2  -9  423.09   26.15  -2
   4   2   5  423.09   26.15   1
  10  -2  -5  246.25   29.46  -6
  -5  -2  10  246.25   29.46  -5
  -5  -2  -5  246.25   29.46  -4
 -10  -2   5  246.25   29.46  -3
   5  -2 -10  246.25   29.46  -2
   5  -2   5  246.25   29.46   1
  10   2  -5  203.81   37.58  -6
  -5   2  10  203.81   37.58  -5
  -5   2  -5  203.81   37.58  -4
 -10   2   5  203.81   37.58  -3
   5   2 -10  203.81   37.58  -2
   5   2   5  203.81   37.58   1
  -4  -3  -5  120.57   30.15  -6
   9  -3  -4  120.57   30.15  -5
  -5  -3   9  120.57   30.15  -4
   4  -3  -9  120.57   30.15  -3
   5  -3   4  120.57   30.15  -2
  -9  -3   5  120.57   30.15   1
  -4   3  -5  145.30   30.43  -6
   9   3  -4  145.30   30.43  -5
  -5   3   9  145.30   30.43  -4
   4   3  -9  145.30   30.43  -3
   5   3   4  145.30   30.43  -2
  -9   3   5  145.30   30.43   1
  -3  -3  -5  421.25   29.87  -6
   8  -3  -3  421.25   29.87  -5
  -5  -3   8  421.25   29.87  -4
   3  -3  -8  421.25   29.87  -3
   5  -3   3  421.25   29.87  -2
  -8  -3   5  421.25   29.87   1
  -3   3  -5  449.81   30.30  -6
   8   3  -3  449.81   30.30  -5
  -5   3   8  449.81   30.30  -4
   3   3  -8  449.81   30.30  -3
   5   3   3  449.81   30.30  -2
  -8   3   5  449.81   30.30   1
  -2  -3  -5  733.47   31.18  -6
   7  -3  -2  733.47   31.18  -5
  -5  -3   7  733.47   31.18  -4
   2  -3  -7  733.47   31.18  -3
   5  -3   2  733.47   31.18  -2
  -7  -3   5  733.47   31.18   1
  -2   3  -5  833.62   30.62  -6
   7   3  -2  833.62   30.62  -5
  -5   3   7  833.62   30.62  -4
   2   3  -7  833.62   30.62  -3
   5   3   2  833.62   30.62  -2
  -7   3   5  833.62   30.62   1
  -1   3  -5  905.80   19.63  -6
   6   3  -1  905.80   19.63  -5
  -5   3   6  905.80   19.63  -4
   1   3  -6  905.80   19.63  -3
   5   3   1  905.80   19.63  -2
  -6   3   5  905.80   19.63   1
   0  -3  -5 1290.91   13.51  -6
   5  -3   0 1290.91   13.51  -5
  -5  -3   5 1290.91   13.51  -4
   0  -3  -5 1290.91   13.51  -3
   5  -3   0 1290.91   13.51  -2
  -5  -3   5 1290.91   13.51   1
   0   3  -5 1370.24   18.63  -6
   5   3   0 1370.24   18.63  -5
  -5   3   5 1370.24   18.63  -4
   0   3  -5 1370.24   18.63  -3
   5   3   0 1370.24   18.63  -2
  -5   3   5 1370.24   18.63   1
   1  -3  -5 1098.50   10.30  -6
   4  -3   1 1098.50   10.30  -5
  -5  -3   4 1098.50   10.30  -4
  -1  -3  -4 1098.50   10.30  -3
   5  -3  -1 1098.50   10.30  -2
  -4  -3   5 1098.50   10.30   1
   1   3  -5 1167.03   24.00  -6
   4   3   1 1167.03   24.00  -5
  -5   3   4 1167.03   24.00  -4
  -1   3  -4 1167.03   24.00  -3
   5   3  -1 1167.03   24.00  -2
  -4   3   5 1167.03   24.00   1
   2  -3  -5 1627.50   13.06  -6
   3  -3   2 1627.50   13.06  -5
  -5  -3   3 1627.50   13.06  -4
  -2  -3  -3 1627.50   13.06  -3
   5  -3  -2 1627.50   13.06  -2
  -3  -3   5 1627.50   13.06   1
   3  -3  -5 1693.58   17.71  -6
   2  -3   3 1693.58   17.71  -5
  -5  -3   2 1693.58   17.71  -4
  -3  -3  -2 1693.58   17.71  -3
   5  -3  -3 1693.58   17.71  -2
  -2  -3   5 1693.58   17.71   1
   3   3  -5 1675.11   12.04  -6
   2   3   3 1675.11   12.04  -5
  -5   3   2 1675.11   12.04  -4
  -3   3  -2 1675.11   12.04  -3
   5   3  -3 1675.11   12.04  -2
  -2   3   5 1675.11   12.04   1
   4  -3  -5 1135.49   24.69  -6
   1  -3   4 1135.49   24.69  -5
  -5  -3   1 1135.49   24.69  -4
  -4  -3  -1 1135.49   24.69  -3
   5  -3  -4 1135.49   24.69  -2
  -1  -3   5 1135.49   24.69   1
   4   3  -5 1131.62   14.07  -6
   1   3   4 1131.62   14.07  -5
  -5   3   1 1131.62   14.07  -4
  -4   3  -1 1131.62   14.07  -3
   5   3  -4 1131.62   14.07  -2
  -1   3   5 1131.62   14.07   1
   5  -3  -5 1247.67   29.77  -6
   0  -3   5 1247.67   29.77  -5
  -5  -3   0 1247.67   29.77  -4
  -5  -3   0 1247.67   29.77  -3
   5  -3  -5 1247.67   29.77  -2
   0  -3   5 1247.67   29.77   1
   5   3  -5 1311.91   29.05  -6
   0   3   5 1311.91   29.05  -5
  -5   3   0 1311.91   29.05  -4
  -5   3   0 1311.91   29.05  -3
   5   3  -5 1311.91   29.05  -2
   0   3   5 1311.91   29.05   1
   6  -3  -5  828.71   20.67  -6
  -1  -3   6  828.71   20.67  -5
  -5  -3  -1  828.71   20.67  -4
  -6  -3   1  828.71   20.67  -3
   5  -3  -6  828.71   20.67  -2
   1  -3   5  828.71   20.67   1
   7  -3  -5  908.61   24.46  -6
  -2  -3   7  908.61   24.46  -5
  -5  -3  -2  908.61   24.46  -4
  -7  -3   2  908.61   24.46  -3
   5  -3  -7  908.61   24.46  -2
   2  -3   5  908.61   24.46   1
   7   3  -5  817.55   18.15  -6
  -2   3   7  817.55   18.15  -5
  -5   3  -2  817.55   18.15  -4
  -7   3   2  817.55   18.15  -3
   5   3  -7  817.55   18.15  -2
   2   3   5  817.55   18.15   1
   8  -3  -5  757.73   26.74  -6
  -3  -3   8  757.73   26.74  -5
  -5  -3  -3  757.73   26.74  -4
  -8  -3   3  757.73   26.74  -3
   5  -3  -8  757.73   26.74  -2
   3  -3   5  757.73   26.74   1
   8   3  -5  785.74   33.26  -6
  -3   3   8  785.74   33.26  -5
  -5   3  -3  785.74   33.26  -4
  -8   3   3  785.74   33.26  -3
   5   3  -8  785.74   33.26  -2
   3   3   5  785.74   33.26   1
   9  -3  -5  998.30   42.92  -6
  -4  -3   9  998.30   42.92  -5
  -5  -3  -4  998.30   42.92  -4
  -9  -3   4  998.30   42.92  -3
   5  -3  -9  998.30   42.92  -2
   4  -3   5  998.30   42.92   1
   9   3  -5 1011.84   45.12  -6
  -4   3   9 1011.84   45.12  -5
  -5   3  -4 1011.84   45.12  -4
  -9   3   4 1011.84   45.12  -3
   5   3  -9 1011.84   45.12  -2
   4   3   5 1011.84   45.12   1
  10   3  -5  911.32   39.67  -6
  -5   3  10  911.32   39.67  -5
  -5   3  -5  911.32   39.67  -4
 -10   3   5  911.32   39.67  -3
   5   3 -10  911.32   39.67  -2
   5   3   5  911.32   39.67   1
  -4  -4  -5  420.19   23.10  -6
   9  -4  -4  420.19   23.10  -5
  -5  -4   9  420.19   23.10  -4
   4  -4  -9  420.19   23.10  -3
   5  -4   4  420.19   23.10  -2
  -9  -4   5  420.19   23.10   1
  -4   4  -5  400.20   24.67  -6
   9   4  -4  400.20   24.67  -5
  -5   4   9  400.20   24.67  -4
   4   4  -9  400.20   24.67  -3
   5   4   4  400.20   24.67  -2
  -9   4   5  400.20   24.67   1
  -3  -4  -5  515.12   30.72  -6
   8  -4  -3  515.12   30.72  -5
  -5  -4   8  515.12   30.72  -4
   3  -4  -8  515.12   30.72  -3
   5  -4   3  515.12   30.72  -2
  -8  -4   5  515.12   30.72   1
  -3   4  -5  550.20   23.26  -6
   8   4  -3  550.20   23.26  -5
  -5   4   8  550.20   23.26  -4
   3   4  -8  550.20   23.26  -3
   5   4   3  550.20   23.26  -2
  -8   4   5  550.20   23.26   1
  -2   4  -5  808.02   23.44  -6
   7   4  -2  808.02   23.44  -5
  -5   4   7  808.02   23.44  -4
   2   4  -7  808.02   23.44  -3
   5   4   2  808.02   23.44  -2
  -7   4   5  808.02   23.44   1
  -1   4  -5  891.41   20.29  -6
   6   4  -1  891.41   20.29  -5
  -5   4   6  891.41   20.29  -4
   1   4  -6  891.41   20.29  -3
   5   4   1  891.41   20.29  -2
  -6   4   5  891.41   20.29   1
   0  -4  -5 1101.21   15.53  -6
   5  -4   0 1101.21   15.53  -5
  -5  -4   5 1101.21   15.53  -4
   0  -4  -5 1101.21   15.53  -3
   5  -4   0 1101.21   15.53  -2
  -5  -4   5 1101.21   15.53   1
   0   4  -5 1022.01   26.40  -6
   5   4   0 1022.01   26.40  -5
  -5   4   5 1022.01   26.40  -4
   0   4  -5 1022.01   26.40  -3
   5   4   0 1022.01   26.40  -2
  -5   4   5 1022.01   26.40   1
   1  -4  -5 1943.95   16.61  -6
   4  -4   1 1943.95   16.61  -5
  -5  -4   4 1943.95   16.61  -4
  -1  -4  -4 1943.95   16.61  -3
   5  -4  -1 1943.95   16.61  -2
  -4  -4   5 1943.95   16.61   1
   1   4  -5 2017.54   29.09  -6
   4   4   1 2017.54   29.09  -5
  -5   4   4 2017.54   29.09  -4
  -1   4  -4 2017.54   29.09  -3
   5   4  -1 2017.54   29.09  -2
  -4   4   5 2017.54   29.09   1
   2  -4  -5 1626.14   12.65  -6
   3  -4   2 1626.14   12.65  -5
  -5  -4   3 1626.14   12.65  -4
  -2  -4  -3 1626.14   12.65  -3
   5  -4  -2 1626.14   12.65  -2
  -3  -4   5 1626.14   12.65   1
   2   4  -5 1835.92   22.66  -6
   3   4   2 1835.92   22.66  -5
  -5   4   3 1835.92   22.66  -4
  -2   4  -3 1835.92   22.66  -3
   5   4  -2 1835.92   22.66  -2
  -3   4   5 1835.92   22.66   1
   3  -4  -5 2033.00   32.51  -6
   2  -4   3 2033.00   32.51  -5
  -5  -4   2 2033.00   32.51  -4
  -3  -4  -2 2033.00   32.51  -3
   5  -4  -3 2033.00   32.51  -2
  -2  -4   5 2033.00   32.51   1
   3   4  -5 1995.36   15.04  -6
   2   4   3 1995.36   15.04  -5
  -5   4   2 1995.36   15.04  -4
  -3   4  -2 1995.36   15.04  -3
   5   4  -3 1995.36   15.04  -2
  -2   4   5 1995.36   15.04   1
   4  -4  -5 1899.92   18.48  -6
   1  -4   4 1899.92   18.48  -5
  -5  -4   1 1899.92   18.48  -4
  -4  -4  -1 1899.92   18.48  -3
   5  -4  -4 1899.92   18.48  -2
  -1  -4   5 1899.92   18.48   1
   4   4  -5 1860.16   15.45  -6
   1   4   4 1860.16   15.45  -5
  -5   4   1 1860.16   15.45  -4
  -4   4  -1 1860.16   15.45  -3
   5   4  -4 1860.16   15.45  -2
  -1   4   5 1860.16   15.45   1
   5  -4  -5 1028.30   18.27  -6
   0  -4   5 1028.30   18.27  -5
  -5  -4   0 1028.30   18.27  -4
  -5  -4   0 1028.30   18.27  -3
   5  -4  -5 1028.30   18.27  -2
   0  -4   5 1028.30   18.27   1
   6  -4  -5  724.99   31.12  -6
  -1  -4   6  724.99   31.12  -5
  -5  -4  -1  724.99   31.12  -4
  -6  -4   1  724.99   31.12  -3
   5  -4  -6  724.99   31.12  -2
   1  -4   5  724.99   31.12   1
   6   4  -5  769.31   29.22  -6
  -1   4   6  769.31   29.22  -5
  -5   4  -1  769.31   29.22  -4
  -6   4   1  769.31   29.22  -3
   5   4  -6  769.31   29.22  -2
   1   4   5  769.31   29.22   1
   7  -4  -5  580.39   13.82  -6
  -2  -4   7  580.39   13.82  -5
  -5  -4  -2  580.39   13.82  -4
  -7  -4   2  580.39   13.82  -3
   5  -4  -7  580.39   13.82  -2
   2  -4   5  580.39   13.82   1
   7   4  -5  873.37   34.26  -6
  -2   4   7  873.37   34.26  -5
  -5   4  -2  873.37   34.26  -4
  -7   4   2  873.37   34.26  -3
   5   4  -7  873.37   34.26  -2
   2   4   5  873.37   34.26   1
   8  -4  -5  441.33   25.81  -6
  -3  -4   8  441.33   25.81  -5
  -5  -4  -3  441.33   25.81  -4
  -8  -4   3  441.33   25.81  -3
   5  -4  -8  441.33   25.81  -2
   3  -4   5  441.33   25.81   1
   8   4  -5  420.02   22.04  -6
  -3   4   8  420.02   22.04  -5
  -5   4  -3  420.02   22.04  -4
  -8   4   3  420.02   22.04  -3
   5   4  -8  420.02   22.04  -2
   3   4   5  420.02   22.04   1
   9  -4  -5  289.32   26.63  -6
  -4  -4   9  289.32   26.63  -5
  -5  -4  -4  289.32   26.63  -4
  -9  -4   4  289.32   26.63  -3
   5  -4  -9  289.32   26.63  -2
   4  -4   5  289.32   26.63   1
   9   4  -5  319.61   24.87  -6
  -4   4   9  319.61   24.87  -5
  -5   4  -4  319.61   24.87  -4
  -9   4   4  319.61   24.87  -3
   5   4  -9  319.61   24.87  -2
   4   4   5  319.61   24.87   1
  -4  -5  -5  192.86   23.52  -6
   9  -5  -4  192.86   23.52  -5
  -5  -5   9  192.86   23.52  -4
   4  -5  -9  192.86   23.52  -3
   5  -5   4  192.86   23.52  -2
  -9  -5   5  192.86   23.52   1
  -4   5  -5  177.30   35.08  -6
   9   5  -4  177.30   35.08  -5
  -5   5   9  177.30   35.08  -4
   4   5  -9  177.30   35.08  -3
   5   5   4  177.30   35.08  -2
  -9   5   5  177.30   35.08   1
  -3  -5  -5  685.83   33.26  -6
   8  -5  -3  685.83   33.26  -5
  -5  -5   8  685.83   33.26  -4
   3  -5  -8  685.83   33.26  -3
   5  -5   3  685.83   33.26  -2
  -8  -5   5  685.83   33.26   1
  -3   5  -5  673.78   35.06  -6
   8   5  -3  673.78   35.06  -5
  -5   5   8  673.78   35.06  -4
   3   5  -8  673.78   35.06  -3
   5   5   3  673.78   35.06  -2
  -8   5   5  673.78   35.06   1
  -2   5  -5 1279.96   21.37  -6
   7   5  -2 1279.96   21.37  -5
  -5   5   7 1279.96   21.37  -4
   2   5  -7 1279.96   21.37  -3
   5   5   2 1279.96   21.37  -2
  -7   5   5 1279.96   21.37   1
  -1   5  -5 1552.40   23.70  -6
   6   5  -1 1552.40   23.70  -5
  -5   5   6 1552.40   23.70  -4
   1   5  -6 1552.40   23.70  -3
   5   5   1 1552.40   23.70  -2
  -6   5   5 1552.40   23.70   1
   0  -5  -5 1327.87   17.95  -6
   5  -5   0 1327.87   17.95  -5
  -5  -5   5 1327.87   17.95  -4
   0  -5  -5 1327.87   17.95  -3
   5  -5   0 1327.87   17.95  -2
  -5  -5   5 1327.87   17.95   1
   0   5  -5 1399.52   28.09  -6
   5   5   0 1399.52   28.09  -5
  -5   5   5 1399.52   28.09  -4
   0   5  -5 1399.52   28.09  -3
   5   5   0 1399.52   28.09  -2
  -5   5   5 1399.52   28.09   1
   1  -5  -5 1562.81   33.27  -6
   4  -5   1 1562.81   33.27  -5
  -5  -5   4 1562.81   33.27  -4
  -1  -5  -4 1562.81   33.27  -3
   5  -5  -1 1562.81   33.27  -2
  -4  -5   5 1562.81   33.27   1
   1   5  -5 1505.83   28.31  -6
   4   5   1 1505.83   28.31  -5
  -5   5   4 1505.83   28.31  -4
  -1   5  -4 1505.83   28.31  -3
   5   5  -1 1505.83   28.31  -2
  -4   5   5 1505.83   28.31   1
   2  -5  -5 1452.87   31.07  -6
   3  -5   2 1452.87   31.07  -5
  -5  -5   3 1452.87   31.07  -4
  -2  -5  -3 1452.87   31.07  -3
   5  -5  -2 1452.87   31.07  -2
  -3  -5   5 1452.87   31.07   1
   2   5  -5 1156.13   25.01  -6
   3   5   2 1156.13   25.01  -5
  -5   5   3 1156.13   25.01  -4
  -2   5  -3 1156.13   25.01  -3
   5   5  -2 1156.13   25.01  -2
  -3   5   5 1156.13   25.01   1
   3  -5  -5 1489.77   30.10  -6
   2  -5   3 1489.77   30.10  -5
  -5  -5   2 1489.77   30.10  -4
  -3  -5  -2 1489.77   30.10  -3
   5  -5  -3 1489.77   30.10  -2
  -2  -5   5 1489.77   30.10   1
   3   5  -5 1262.46   20.15  -6
   2   5   3 1262.46   20.15  -5
  -5   5   2 1262.46   20.15  -4
  -3   5  -2 1262.46   20.15  -3
   5   5  -3 1262.46   20.15  -2
  -2   5   5 1262.46   20.15   1
   4  -5  -5 1516.42   16.31  -6
   1  -5   4 1516.42   16.31  -5
  -5  -5   1 1516.42   16.31  -4
  -4  -5  -1 1516.42   16.31  -3
   5  -5  -4 1516.42   16.31  -2
  -1  -5   5 1516.42   16.31   1
   4   5  -5 1431.96   28.04  -6
   1   5   4 1431.96   28.04  -5
  -5   5   1 1431.96   28.04  -4
  -4   5  -1 1431.96   28.04  -3
   5   5  -4 1431.96   28.04  -2
  -1   5   5 1431.96   28.04   1
   5  -5  -5 1144.87   18.59  -6
   0  -5   5 1144.87   18.59  -5
  -5  -5   0 1144.87   18.59  -4
  -5  -5   0 1144.87   18.59  -3
   5  -5  -5 1144.87   18.59  -2
   0  -5   5 1144.87   18.59   1
   6  -5  -5 1516.26   17.34  -6
  -1  -5   6 1516.26   17.34  -5
  -5  -5  -1 1516.26   17.34  -4
  -6  -5   1 1516.26   17.34  -3
   5  -5  -6 1516.26   17.34  -2
   1  -5   5 1516.26   17.34   1
   6   5  -5 1524.13   34.03  -6
  -1   5   6 1524.13   34.03  -5
  -5   5  -1 1524.13   34.03  -4
  -6   5   1 1524.13   34.03  -3
   5   5  -6 1524.13   34.03  -2
   1   5   5 1524.13   34.03   1
   7  -5  -5 1240.54   21.02  -6
  -2  -5   7 1240.54   21.02  -5
  -5  -5  -2 1240.54   21.02  -4
  -7  -5   2 1240.54   21.02  -3
   5  -5  -7 1240.54   21.02  -2
   2  -5   5 1240.54   21.02   1
   8  -5  -5 1094.43   29.27  -6
  -3  -5   8 1094.43   29.27  -5
  -5  -5  -3 1094.43   29.27  -4
  -8  -5   3 1094.43   29.27  -3
   5  -5  -8 1094.43   29.27  -2
   3  -5   5 1094.43   29.27   1
   8   5  -5 1053.47   32.05  -6
  -3   5   8 1053.47   32.05  -5
  -5   5  -3 1053.47   32.05  -4
  -8   5   3 1053.47   32.05  -3
   5   5  -8 1053.47   32.05  -2
   3   5   5 1053.47   32.05   1
   9  -5  -5  936.44   30.10  -6
  -4  -5   9  936.44   30.10  -5
  -5  -5  -4  936.44   30.10  -4
  -9  -5   4  936.44   30.10  -3
   5  -5  -9  936.44   30.10  -2
   4  -5   5  936.44   30.10   1
   9   5  -5  940.29   44.73  -6
  -4   5   9  940.29   44.73  -5
  -5   5  -4  940.29   44.73  -4
  -9   5   4  940.29   44.73  -3
   5   5  -9  940.29   44.73  -2
   4   5   5  940.29   44.73   1
  -4  -6  -5  254.62   30.97  -6
   9  -6  -4  254.62   30.97  -5
  -5  -6   9  254.62   30.97  -4
   4  -6  -9  254.62   30.97  -3
   5  -6   4  254.62   30.97  -2
  -9  -6   5  254.62   30.97   1
  -4   6  -5  238.59   24.69  -6
   9   6  -4  238.59   24.69  -5
  -5   6   9  238.59   24.69  -4
   4   6  -9  238.59   24.69  -3
   5   6   4  238.59   24.69  -2
  -9   6   5  238.59   24.69   1
  -3   6  -5  425.94   23.49  -6
   8   6  -3  425.94   23.49  -5
  -5   6   8  425.94   23.49  -4
   3   6  -8  425.94   23.49  -3
   5   6   3  425.94   23.49  -2
  -8   6   5  425.94   23.49   1
  -2   6  -5  545.93   16.99  -6
   7   6  -2  545.93   16.99  -5
  -5   6   7  545.93   16.99  -4
   2   6  -7  545.93   16.99  -3
   5   6   2  545.93   16.99  -2
  -7   6   5  545.93   16.99   1
  -1   6  -5 1189.22   23.60  -6
   6   6  -1 1189.22   23.60  -5
  -5   6   6 1189.22   23.60  -4
   1   6  -6 1189.22   23.60  -3
   5   6   1 1189.22   23.60  -2
  -6   6   5 1189.22   23.60   1
   0  -6  -5 2142.17   39.42  -6
   5  -6   0 2142.17   39.42  -5
  -5  -6   5 2142.17   39.42  -4
   0  -6  -5 2142.17   39.42  -3
   5  -6   0 2142.17   39.42  -2
  -5  -6   5 2142.17   39.42   1
   0   6  -5 2224.95   33.54  -6
   5   6   0 2224.95   33.54  -5
  -5   6   5 2224.95   33.54  -4
   0   6  -5 2224.95   33.54  -3
   5   6   0 2224.95   33.54  -2
  -5   6   5 2224.95   33.54   1
   1  -6  -5 1549.23   34.08  -6
   4  -6   1 1549.23   34.08  -5
  -5  -6   4 1549.23   34.08  -4
  -1  -6  -4 1549.23   34.08  -3
   5  -6  -1 1549.23   34.08  -2
  -4  -6   5 1549.23   34.08   1
   1   6  -5 1525.09   31.05  -6
   4   6   1 1525.09   31.05  -5
  -5   6   4 1525.09   31.05  -4
  -1   6  -4 1525.09   31.05  -3
   5   6  -1 1525.09   31.05  -2
  -4   6   5 1525.09   31.05   1
   2  -6  -5 1574.45   35.19  -6
   3  -6   2 1574.45   35.19  -5
  -5  -6   3 1574.45   35.19  -4
  -2  -6  -3 1574.45   35.19  -3
   5  -6  -2 1574.45   35.19  -2
  -3  -6   5 1574.45   35.19   1
   2   6  -5 1599.04   30.14  -6
   3   6   2 1599.04   30.14  -5
  -5   6   3 1599.04   30.14  -4
  -2   6  -3 1599.04   30.14  -3
   5   6  -2 1599.04   30.14  -2
  -3   6   5 1599.04   30.14   1
   3  -6  -5  865.55    7.06  -6
   2  -6   3  865.55    7.06  -5
  -5  -6   2  865.55    7.06  -4
  -3  -6  -2  865.55    7.06  -3
   5  -6  -3  865.55    7.06  -2
  -2  -6   5  865.55    7.06   1
   4  -6  -5 1349.87   29.11  -6
   1  -6   4 1349.87   29.11  -5
  -5  -6   1 1349.87   29.11  -4
  -4  -6  -1 1349.87   29.11  -3
   5  -6  -4 1349.87   29.11  -2
  -1  -6   5 1349.87   29.11   1
   4   6  -5 1572.01   28.08  -6
   1   6   4 1572.01   28.08  -5
  -5   6   1 1572.01   28.08  -4
  -4   6  -1 1572.01   28.08  -3
   5   6  -4 1572.01   28.08  -2
  -1   6   5 1572.01   28.08   1
   5  -6  -5 1953.49   21.90  -6
   0  -6   5 1953.49   21.90  -5
  -5  -6   0 1953.49   21.90  -4
  -5  -6   0 1953.49   21.90  -3
   5  -6  -5 1953.49   21.90  -2
   0  -6   5 1953.49   21.90   1
   6  -6  -5 1234.12   34.67  -6
  -1  -6   6 1234.12   34.67  -5
  -5  -6  -1 1234.12   34.67  -4
  -6  -6   1 1234.12   34.67  -3
   5  -6  -6 1234.12   34.67  -2
   1  -6   5 1234.12   34.67   1
   6   6  -5 1200.79   33.01  -6
  -1   6   6 1200.79   33.01  -5
  -5   6  -1 1200.79   33.01  -4
  -6   6   1 1200.79   33.01  -3
   5   6  -6 1200.79   33.01  -2
   1   6   5 1200.79   33.01   1
   7  -6  -5  606.98   32.60  -6
  -2  -6   7  606.98   32.60  -5
  -5  -6  -2  606.98   32.60  -4
  -7  -6   2  606.98   32.60  -3
   5  -6  -7  606.98   32.60  -2
   2  -6   5  606.98   32.60   1
   7   6  -5  699.27   34.92  -6
  -2   6   7  699.27   34.92  -5
  -5   6  -2  699.27   34.92  -4
  -7   6   2  699.27   34.92  -3
   5   6  -7  699.27   34.92  -2
   2   6   5  699.27   34.92   1
   8  -6  -5  399.02   20.59  -6
  -3  -6   8  399.02   20.59  -5
  -5  -6  -3  399.02   20.59  -4
  -8  -6   3  399.02   20.59  -3
   5  -6  -8  399.02   20.59  -2
   3  -6   5  399.02   20.59   1
   8   6  -5  604.00   38.59  -6
  -3   6   8  604.00   38.59  -5
  -5   6  -3  604.00   38.59  -4
  -8   6   3  604.00   38.59  -3
   5   6  -8  604.00   38.59  -2
   3   6   5  604.00   38.59   1
   9  -6  -5  247.17   27.10  -6
  -4  -6   9  247.17   27.10  -5
  -5  -6  -4  247.17   27.10  -4
  -9  -6   4  247.17   27.10  -3
   5  -6  -9  247.17   27.10  -2
   4  -6   5  247.17   27.10   1
   9   6  -5  291.59   40.93  -6
  -4   6   9  291.59   40.93  -5
  -5   6  -4  291.59   40.93  -4
  -9   6   4  291.59   40.93  -3
   5   6  -9  291.59   40.93  -2
   4   6   5  291.59   40.93   1
  -4  -7  -5  113.91   31.61  -6
   9  -7  -4  113.91   31.61  -5
  -5  -7   9  113.91   31.61  -4
   4  -7  -9  113.91   31.61  -3
   5  -7   4  113.91   31.61  -2
  -9  -7   5  113.91   31.61   1
  -3  -7  -5  579.11   34.34  -6
   8  -7  -3  579.11   34.34  -5
  -5  -7   8  579.11   34.34  -4
   3  -7  -8  579.11   34.34  -3
   5  -7   3  579.11   34.34  -2
  -8  -7   5  579.11   34.34   1
  -3   7  -5  630.40   37.45  -6
   8   7  -3  630.40   37.45  -5
  -5   7   8  630.40   37.45  -4
   3   7  -8  630.40   37.45  -3
   5   7   3  630.40   37.45  -2
  -8   7   5  630.40   37.45   1
  -2  -7  -5  909.16   38.44  -6
   7  -7  -2  909.16   38.44  -5
  -5  -7   7  909.16   38.44  -4
   2  -7  -7  909.16   38.44  -3
   5  -7   2  909.16   38.44  -2
  -7  -7   5  909.16   38.44   1
  -2   7  -5 1486.59   20.72  -6
   7   7  -2 1486.59   20.72  -5
  -5   7   7 1486.59   20.72  -4
   2   7  -7 1486.59   20.72  -3
   5   7   2 1486.59   20.72  -2
  -7   7   5 1486.59   20.72   1
  -1  -7  -5  903.83   37.50  -6
   6  -7  -1  903.83   37.50  -5
  -5  -7   6  903.83   37.50  -4
   1  -7  -6  903.83   37.50  -3
   5  -7   1  903.83   37.50  -2
  -6  -7   5  903.83   37.50   1
  -1   7  -5 1628.75   34.70  -6
   6   7  -1 1628.75   34.70  -5
  -5   7   6 1628.75   34.70  -4
   1   7  -6 1628.75   34.70  -3
   5   7   1 1628.75   34.70  -2
  -6   7   5 1628.75   34.70   1
   0  -7  -5 1406.48   13.73  -6
   5  -7   0 1406.48   13.73  -5
  -5  -7   5 1406.48   13.73  -4
   0  -7  -5 1406.48   13.73  -3
   5  -7   0 1406.48   13.73  -2
  -5  -7   5 1406.48   13.73   1
   1  -7  -5 1229.28   34.21  -6
   4  -7   1 1229.28   34.21  -5
  -5  -7   4 1229.28   34.21  -4
  -1  -7  -4 1229.28   34.21  -3
   5  -7  -1 1229.28   34.21  -2
  -4  -7   5 1229.28   34.21   1
   1   7  -5 1299.29   28.88  -6
   4   7   1 1299.29   28.88  -5
  -5   7   4 1299.29   28.88  -4
  -1   7  -4 1299.29   28.88  -3
   5   7  -1 1299.29   28.88  -2
  -4   7   5 1299.29   28.88   1
   2  -7  -5  868.18   31.05  -6
   3  -7   2  868.18   31.05  -5
  -5  -7   3  868.18   31.05  -4
  -2  -7  -3  868.18   31.05  -3
   5  -7  -2  868.18   31.05  -2
  -3  -7   5  868.18   31.05   1
   2   7  -5  828.60   27.03  -6
   3   7   2  828.60   27.03  -5
  -5   7   3  828.60   27.03  -4
  -2   7  -3  828.60   27.03  -3
   5   7  -2  828.60   27.03  -2
  -3   7   5  828.60   27.03   1
   3  -7  -5  848.04   17.36  -6
   2  -7   3  848.04   17.36  -5
  -5  -7   2  848.04   17.36  -4
  -3  -7  -2  848.04   17.36  -3
   5  -7  -3  848.04   17.36  -2
  -2  -7   5  848.04   17.36   1
   4  -7  -5 1211.52   21.56  -6
   1  -7   4 1211.52   21.56  -5
  -5  -7   1 1211.52   21.56  -4
  -4  -7  -1 1211.52   21.56  -3
   5  -7  -4 1211.52   21.56  -2
  -1  -7   5 1211.52   21.56   1
   4   7  -5 1197.18   27.22  -6
   1   7   4 1197.18   27.22  -5
  -5   7   1 1197.18   27.22  -4
  -4   7  -1 1197.18   27.22  -3
   5   7  -4 1197.18   27.22  -2
  -1   7   5 1197.18   27.22   1
   5  -7  -5 1535.81   29.52  -6
   0  -7   5 1535.81   29.52  -5
  -5  -7   0 1535.81   29.52  -4
  -5  -7   0 1535.81   29.52  -3
   5  -7  -5 1535.81   29.52  -2
   0  -7   5 1535.81   29.52   1
   5   7  -5 1604.35   31.89  -6
   0   7   5 1604.35   31.89  -5
  -5   7   0 1604.35   31.89  -4
  -5   7   0 1604.35   31.89  -3
   5   7  -5 1604.35   31.89  -2
   0   7   5 1604.35   31.89   1
   6  -7  -5 1332.09   20.81  -6
  -1  -7   6 1332.09   20.81  -5
  -5  -7  -1 1332.09   20.81  -4
  -6  -7   1 1332.09   20.81  -3
   5  -7  -6 1332.09   20.81  -2
   1  -7   5 1332.09   20.81   1
   7  -7  -5 1312.60   24.87  -6
  -2  -7   7 1312.60   24.87  -5
  -5  -7  -2 1312.60   24.87  -4
  -7  -7   2 1312.60   24.87  -3
   5  -7  -7 1312.60   24.87  -2
   2  -7   5 1312.60   24.87   1
   8  -7  -5 1033.17   30.05  -6
  -3  -7   8 1033.17   30.05  -5
  -5  -7  -3 1033.17   30.05  -4
  -8  -7   3 1033.17   30.05  -3
   5  -7  -8 1033.17   30.05  -2
   3  -7   5 1033.17   30.05   1
   9  -7  -5  670.10   41.17  -6
  -4  -7   9  670.10   41.17  -5
  -5  -7  -4  670.10   41.17  -4
  -9  -7   4  670.10   41.17  -3
   5  -7  -9  670.10   41.17  -2
   4  -7   5  670.10   41.17   1
   9   7  -5  669.75   43.59  -6
  -4   7   9  669.75   43.59  -5
  -5   7  -4  669.75   43.59  -4
  -9   7   4  669.75   43.59  -3
   5   7  -9  669.75   43.59  -2
   4   7   5  669.75   43.59   1
  -4  -8  -5  195.94   33.79  -6
   9  -8  -4  195.94   33.79  -5
  -5  -8   9  195.94   33.79  -4
   4  -8  -9  195.94   33.79  -3
   5  -8   4  195.94   33.79  -2
  -9  -8   5  195.94   33.79   1
  -3  -8  -5  324.97   35.63  -6
   8  -8  -3  324.97   35.63  -5
  -5  -8   8  324.97   35.63  -4
   3  -8  -8  324.97   35.63  -3
   5  -8   3  324.97   35.63  -2
  -8  -8   5  324.97   35.63   1
  -3   8  -5  401.46   24.60  -6
   8   8  -3  401.46   24.60  -5
  -5   8   8  401.46   24.60  -4
   3   8  -8  401.46   24.60  -3
   5   8   3  401.46   24.60  -2
  -8   8   5  401.46   24.60   1
  -2   8  -5  520.18   21.48  -6
   7   8  -2  520.18   21.48  -5
  -5   8   7  520.18   21.48  -4
   2   8  -7  520.18   21.48  -3
   5   8   2  520.18   21.48  -2
  -7   8   5  520.18   21.48   1
  -1  -8  -5  909.50   37.26  -6
   6  -8  -1  909.50   37.26  -5
  -5  -8   6  909.50   37.26  -4
   1  -8  -6  909.50   37.26  -3
   5  -8   1  909.50   37.26  -2
  -6  -8   5  909.50   37.26   1
  -1   8  -5  906.21   22.54  -6
   6   8  -1  906.21   22.54  -5
  -5   8   6  906.21   22.54  -4
   1   8  -6  906.21   22.54  -3
   5   8   1  906.21   22.54  -2
  -6   8   5  906.21   22.54   1
   0  -8  -5 1444.10   40.40  -6
   5  -8   0 1444.10   40.40  -5
  -5  -8   5 1444.10   40.40  -4
   0  -8  -5 1444.10   40.40  -3
   5  -8   0 1444.10   40.40  -2
  -5  -8   5 1444.10   40.40   1
   0   8  -5 1424.82   33.78  -6
   5   8   0 1424.82   33.78  -5
  -5   8   5 1424.82   33.78  -4
   0   8  -5 1424.82   33.78  -3
   5   8   0 1424.82   33.78  -2
  -5   8   5 1424.82   33.78   1
   1  -8  -5 1694.89   40.33  -6
   4  -8   1 1694.89   40.33  -5
  -5  -8   4 1694.89   40.33  -4
  -1  -8  -4 1694.89   40.33  -3
   5  -8  -1 1694.89   40.33  -2
  -4  -8   5 1694.89   40.33   1
   1   8  -5 1478.97   29.84  -6
   4   8   1 1478.97   29.84  -5
  -5   8   4 1478.97   29.84  -4
  -1   8  -4 1478.97   29.84  -3
   5   8  -1 1478.97   29.84  -2
  -4   8   5 1478.97   29.84   1
   2  -8  -5  736.47   31.96  -6
   3  -8   2  736.47   31.96  -5
  -5  -8   3  736.47   31.96  -4
  -2  -8  -3  736.47   31.96  -3
   5  -8  -2  736.47   31.96  -2
  -3  -8   5  736.47   31.96   1
   2   8  -5  692.69   28.31  -6
   3   8   2  692.69   28.31  -5
  -5   8   3  692.69   28.31  -4
  -2   8  -3  692.69   28.31  -3
   5   8  -2  692.69   28.31  -2
  -3   8   5  692.69   28.31   1
   3  -8  -5  796.00   18.55  -6
   2  -8   3  796.00   18.55  -5
  -5  -8   2  796.00   18.55  -4
  -3  -8  -2  796.00   18.55  -3
   5  -8  -3  796.00   18.55  -2
  -2  -8   5  796.00   18.55   1
   4  -8  -5 1608.40   18.18  -6
   1  -8   4 1608.40   18.18  -5
  -5  -8   1 1608.40   18.18  -4
  -4  -8  -1 1608.40   18.18  -3
   5  -8  -4 1608.40   18.18  -2
  -1  -8   5 1608.40   18.18   1
   5  -8  -5 1250.37   21.99  -6
   0  -8   5 1250.37   21.99  -5
  -5  -8   0 1250.37   21.99  -4
  -5  -8   0 1250.37   21.99  -3
   5  -8  -5 1250.37   21.99  -2
   0  -8   5 1250.37   21.99   1
   5   8  -5 1321.10   30.29  -6
   0   8   5 1321.10   30.29  -5
  -5   8   0 1321.10   30.29  -4
  -5   8   0 1321.10   30.29  -3
   5   8  -5 1321.10   30.29  -2
   0   8   5 1321.10   30.29   1
   6  -8  -5  732.66   18.94  -6
  -1  -8   6  732.66   18.94  -5
  -5  -8  -1  732.66   18.94  -4
  -6  -8   1  732.66   18.94  -3
   5  -8  -6  732.66   18.94  -2
   1  -8   5  732.66   18.94   1
   7  -8  -5  509.97   33.57  -6
  -2  -8   7  509.97   33.57  -5
  -5  -8  -2  509.97   33.57  -4
  -7  -8   2  509.97   33.57  -3
   5  -8  -7  509.97   33.57  -2
   2  -8   5  509.97   33.57   1
   7   8  -5  620.19   35.07  -6
  -2   8   7  620.19   35.07  -5
  -5   8  -2  620.19   35.07  -4
  -7   8   2  620.19   35.07  -3
   5   8  -7  620.19   35.07  -2
   2   8   5  620.19   35.07   1
   8  -8  -5  440.58   36.12  -6
  -3  -8   8  440.58   36.12  -5
  -5  -8  -3  440.58   36.12  -4
  -8  -8   3  440.58   36.12  -3
   5  -8  -8  440.58   36.12  -2
   3  -8   5  440.58   36.12   1
   8   8  -5  455.87   38.01  -6
  -3   8   8  455.87   38.01  -5
  -5   8  -3  455.87   38.01  -4
  -8   8   3  455.87   38.01  -3
   5   8  -8  455.87   38.01  -2
   3   8   5  455.87   38.01   1
   9  -8  -5  203.22   37.26  -6
  -4  -8   9  203.22   37.26  -5
  -5  -8  -4  203.22   37.26  -4
  -9  -8   4  203.22   37.26  -3
   5  -8  -9  203.22   37.26  -2
   4  -8   5  203.22   37.26   1
   9   8  -5  194.07   39.08  -6
  -4   8   9  194.07   39.08  -5
  -5   8  -4  194.07   39.08  -4
  -9   8   4  194.07   39.08  -3
   5   8  -9  194.07   39.08  -2
   4   8   5  194.07   39.08   1
  -3  -9  -5  470.93   36.44  -6
   8  -9  -3  470.93   36.44  -5
  -5  -9   8  470.93   36.44  -4
   3  -9  -8  470.93   36.44  -3
   5  -9   3  470.93   36.44  -2
  -8  -9   5  470.93   36.44   1
  -2   9  -5  892.13   23.16  -6
   7   9  -2  892.13   23.16  -5
  -5   9   7  892.13   23.16  -4
   2   9  -7  892.13   23.16  -3
   5   9   2  892.13   23.16  -2
  -7   9   5  892.13   23.16   1
  -1   9  -5  921.10   23.04  -6
   6   9  -1  921.10   23.04  -5
  -5   9   6  921.10   23.04  -4
   1   9  -6  921.10   23.04  -3
   5   9   1  921.10   23.04  -2
  -6   9   5  921.10   23.04   1
   0  -9  -5  661.22   37.85  -6
   5  -9   0  661.22   37.85  -5
  -5  -9   5  661.22   37.85  -4
   0  -9  -5  661.22   37.85  -3
   5  -9   0  661.22   37.85  -2
  -5  -9   5  661.22   37.85   1
   0   9  -5  956.27   31.73  -6
   5   9   0  956.27   31.73  -5
  -5   9   5  956.27   31.73  -4
   0   9  -5  956.27   31.73  -3
   5   9   0  956.27   31.73  -2
  -5   9   5  956.27   31.73   1
   1  -9  -5  583.24   35.76  -6
   4  -9   1  583.24   35.76  -5
  -5  -9   4  583.24   35.76  -4
  -1  -9  -4  583.24   35.76  -3
   5  -9  -1  583.24   35.76  -2
  -4  -9   5  583.24   35.76   1
   1   9  -5  771.65   28.00  -6
   4   9   1  771.65   28.00  -5
  -5   9   4  771.65   28.00  -4
  -1   9  -4  771.65   28.00  -3
   5   9  -1  771.65   28.00  -2
  -4   9   5  771.65   28.00   1
   2  -9  -5  430.43   20.25  -6
   3  -9   2  430.43   20.25  -5
  -5  -9   3  430.43   20.25  -4
  -2  -9  -3  430.43   20.25  -3
   5  -9  -2  430.43   20.25  -2
  -3  -9   5  430.43   20.25   1
   3  -9  -5  421.91   18.28  -6
   2  -9   3  421.91   18.28  -5
  -5  -9   2  421.91   18.28  -4
  -3  -9  -2  421.91   18.28  -3
   5  -9  -3  421.91   18.28  -2
  -2  -9   5  421.91   18.28   1
   4  -9  -5  709.78   18.83  -6
   1  -9   4  709.78   18.83  -5
  -5  -9   1  709.78   18.83  -4
  -4  -9  -1  709.78   18.83  -3
   5  -9  -4  709.78   18.83  -2
  -1  -9   5  709.78   18.83   1
   5  -9  -5  915.54   21.17  -6
   0  -9   5  915.54   21.17  -5
  -5  -9   0  915.54   21.17  -4
  -5  -9   0  915.54   21.17  -3
   5  -9  -5  915.54   21.17  -2
   0  -9   5  915.54   21.17   1
   5   9  -5  942.34   28.49  -6
   0   9   5  942.34   28.49  -5
  -5   9   0  942.34   28.49  -4
  -5   9   0  942.34   28.49  -3
   5   9  -5  942.34   28.49  -2
   0   9   5  942.34   28.49   1
   6  -9  -5  871.59   34.40  -6
  -1  -9   6  871.59   34.40  -5
  -5  -9  -1  871.59   34.40  -4
  -6  -9   1  871.59   34.40  -3
   5  -9  -6  871.59   34.40  -2
   1  -9   5  871.59   34.40   1
   6   9  -5  904.41   32.16  -6
  -1   9   6  904.41   32.16  -5
  -5   9  -1  904.41   32.16  -4
  -6   9   1  904.41   32.16  -3
   5   9  -6  904.41   32.16  -2
   1   9   5  904.41   32.16   1
   7  -9  -5 1017.56   45.21  -6
  -2  -9   7 1017.56   45.21  -5
  -5  -9  -2 1017.56   45.21  -4
  -7  -9   2 1017.56   45.21  -3
   5  -9  -7 1017.56   45.21  -2
   2  -9   5 1017.56   45.21   1
   7   9  -5 1105.83   39.55  -6
  -2   9   7 1105.83   39.55  -5
  -5   9  -2 1105.83   39.55  -4
  -7   9   2 1105.83   39.55  -3
   5   9  -7 1105.83   39.55  -2
   2   9   5 1105.83   39.55   1
   8  -9  -5  758.24   43.07  -6
  -3  -9   8  758.24   43.07  -5
  -5  -9  -3  758.24   43.07  -4
  -8  -9   3  758.24   43.07  -3
   5  -9  -8  758.24   43.07  -2
   3  -9   5  758.24   43.07   1
   8   9  -5  819.00   42.34  -6
  -3   9   8  819.00   42.34  -5
  -5   9  -3  819.00   42.34  -4
  -8   9   3  819.00   42.34  -3
   5   9  -8  819.00   42.34  -2
   3   9   5  819.00   42.34   1
   9  -9  -5  286.20   40.05  -6
  -4  -9   9  286.20   40.05  -5
  -5  -9  -4  286.20   40.05  -4
  -9  -9   4  286.20   40.05  -3
   5  -9  -9  286.20   40.05  -2
   4  -9   5  286.20   40.05   1
  -2 -10  -5  469.86   38.08  -6
   7 -10  -2  469.86   38.08  -5
  -5 -10   7  469.86   38.08  -4
   2 -10  -7  469.86   38.08  -3
   5 -10   2  469.86   38.08  -2
  -7 -10   5  469.86   38.08   1
  -2  10  -5  460.68   22.59  -6
   7  10  -2  460.68   22.59  -5
  -5  10   7  460.68   22.59  -4
   2  10  -7  460.68   22.59  -3
   5  10   2  460.68   22.59  -2
  -7  10   5  460.68   22.59   1
  -1 -10  -5  703.89   40.47  -6
   6 -10  -1  703.89   40.47  -5
  -5 -10   6  703.89   40.47  -4
   1 -10  -6  703.89   40.47  -3
   5 -10   1  703.89   40.47  -2
  -6 -10   5  703.89   40.47   1
  -1  10  -5  641.60   23.89  -6
   6  10  -1  641.60   23.89  -5
  -5  10   6  641.60   23.89  -4
   1  10  -6  641.60   23.89  -3
   5  10   1  641.60   23.89  -2
  -6  10   5  641.60   23.89   1
   0  10  -5 1049.98   25.38  -6
   5  10   0 1049.98   25.38  -5
  -5  10   5 1049.98   25.38  -4
   0  10  -5 1049.98   25.38  -3
   5  10   0 1049.98   25.38  -2
  -5  10   5 1049.98   25.38   1
   1 -10  -5 1085.88   39.72  -6
   4 -10   1 1085.88   39.72  -5
  -5 -10   4 1085.88   39.72  -4
  -1 -10  -4 1085.88   39.72  -3
   5 -10  -1 1085.88   39.72  -2
  -4 -10   5 1085.88   39.72   1
   1  10  -5 1008.61   33.02  -6
   4  10   1 1008.61   33.02  -5
  -5  10   4 1008.61   33.02  -4
  -1  10  -4 1008.61   33.02  -3
   5  10  -1 1008.61   33.02  -2
  -4  10   5 1008.61   33.02   1
   2 -10  -5  627.95   21.91  -6
   3 -10   2  627.95   21.91  -5
  -5 -10   3  627.95   21.91  -4
  -2 -10  -3  627.95   21.91  -3
   5 -10  -2  627.95   21.91  -2
  -3 -10   5  627.95   21.91   1
   3 -10  -5  631.22   20.42  -6
   2 -10   3  631.22   20.42  -5
  -5 -10   2  631.22   20.42  -4
  -3 -10  -2  631.22   20.42  -3
   5 -10  -3  631.22   20.42  -2
  -2 -10   5  631.22   20.42   1
   4 -10  -5 1044.02   18.12  -6
   1 -10   4 1044.02   18.12  -5
  -5 -10   1 1044.02   18.12  -4
  -4 -10  -1 1044.02   18.12  -3
   5 -10  -4 1044.02   18.12  -2
  -1 -10   5 1044.02   18.12   1
   5 -10  -5 1132.91   22.70  -6
   0 -10   5 1132.91   22.70  -5
  -5 -10   0 1132.91   22.70  -4
  -5 -10   0 1132.91   22.70  -3
   5 -10  -5 1132.91   22.70  -2
   0 -10   5 1132.91   22.70   1
   6 -10  -5  623.88   21.35  -6
  -1 -10   6  623.88   21.35  -5
  -5 -10  -1  623.88   21.35  -4
  -6 -10   1  623.88   21.35  -3
   5 -10  -6  623.88   21.35  -2
   1 -10   5  623.88   21.35   1
   7 -10  -5  360.46   26.03  -6
  -2 -10   7  360.46   26.03  -5
  -5 -10  -2  360.46   26.03  -4
  -7 -10   2  360.46   26.03  -3
   5 -10  -7  360.46   26.03  -2
   2 -10   5  360.46   26.03   1
   8 -10  -5  248.94   36.24  -6
  -3 -10   8  248.94   36.24  -5
  -5 -10  -3  248.94   36.24  -4
  -8 -10   3  248.94   36.24  -3
   5 -10  -8  248.94   36.24  -2
   3 -10   5  248.94   36.24   1
  -2 -11  -5  612.54   43.51  -6
   7 -11  -2  612.54   43.51  -5
  -5 -11   7  612.54   43.51  -4
   2 -11  -7  612.54   43.51  -3
   5 -11   2  612.54   43.51  -2
  -7 -11   5  612.54   43.51   1
  -2  11  -5 1013.09   40.23  -6
   7  11  -2 1013.09   40.23  -5
  -5  11   7 1013.09   40.23  -4
   2  11  -7 1013.09   40.23  -3
   5  11   2 1013.09   40.23  -2
  -7  11   5 1013.09   40.23   1
  -1  11  -5  883.21   25.32  -6
   6  11  -1  883.21   25.32  -5
  -5  11   6  883.21   25.32  -4
   1  11  -6  883.21   25.32  -3
   5  11   1  883.21   25.32  -2
  -6  11   5  883.21   25.32   1
   0  11  -5  955.14   24.36  -6
   5  11   0  955.14   24.36  -5
  -5  11   5  955.14   24.36  -4
   0  11  -5  955.14   24.36  -3
   5  11   0  955.14   24.36  -2
  -5  11   5  955.14   24.36   1
   1 -11  -5  640.12   26.60  -6
   4 -11   1  640.12   26.60  -5
  -5 -11   4  640.12   26.60  -4
  -1 -11  -4  640.12   26.60  -3
   5 -11  -1  640.12   26.60  -2
  -4 -11   5  640.12   26.60   1
   1  11  -5  727.96   24.20  -6
   4  11   1  727.96   24.20  -5
  -5  11   4  727.96   24.20  -4
  -1  11  -4  727.96   24.20  -3
   5  11  -1  727.96   24.20  -2
  -4  11   5  727.96   24.20   1
   2 -11  -5  648.88   23.03  -6
   3 -11   2  648.88   23.03  -5
  -5 -11   3  648.88   23.03  -4
  -2 -11  -3  648.88   23.03  -3
   5 -11  -2  648.88   23.03  -2
  -3 -11   5  648.88   23.03   1
   3 -11  -5  655.13   22.25  -6
   2 -11   3  655.13   22.25  -5
  -5 -11   2  655.13   22.25  -4
  -3 -11  -2  655.13   22.25  -3
   5 -11  -3  655.13   22.25  -2
  -2 -11   5  655.13   22.25   1
   4 -11  -5  717.84   17.45  -6
   1 -11   4  717.84   17.45  -5
  -5 -11   1  717.84   17.45  -4
  -4 -11  -1  717.84   17.45  -3
   5 -11  -4  717.84   17.45  -2
  -1 -11   5  717.84   17.45   1
   5 -11  -5  980.05   23.55  -6
   0 -11   5  980.05   23.55  -5
  -5 -11   0  980.05   23.55  -4
  -5 -11   0  980.05   23.55  -3
   5 -11  -5  980.05   23.55  -2
   0 -11   5  980.05   23.55   1
   6 -11  -5  935.97   23.68  -6
  -1 -11   6  935.97   23.68  -5
  -5 -11  -1  935.97   23.68  -4
  -6 -11   1  935.97   23.68  -3
   5 -11  -6  935.97   23.68  -2
   1 -11   5  935.97   23.68   1
   7 -11  -5 1003.30   47.16  -6
  -2 -11   7 1003.30   47.16  -5
  -5 -11  -2 1003.30   47.16  -4
  -7 -11   2 1003.30   47.16  -3
   5 -11  -7 1003.30   47.16  -2
   2 -11   5 1003.30   47.16   1
  -2  12  -5  417.01   34.42  -6
   7  12  -2  417.01   34.42  -5
  -5  12   7  417.01   34.42  -4
   2  12  -7  417.01   34.42  -3
   5  12   2  417.01   34.42  -2
  -7  12   5  417.01   34.42   1
  -1  12  -5  566.66   25.05  -6
   6  12  -1  566.66   25.05  -5
  -5  12   6  566.66   25.05  -4
   1  12  -6  566.66   25.05  -3
   5  12   1  566.66   25.05  -2
  -6  12   5  566.66   25.05   1
   0 -12  -5  783.74   44.10  -6
   5 -12   0  783.74   44.10  -5
  -5 -12   5  783.74   44.10  -4
   0 -12  -5  783.74   44.10  -3
   5 -12   0  783.74   44.10  -2
  -5 -12   5  783.74   44.10   1
   0  12  -5  792.65   25.99  -6
   5  12   0  792.65   25.99  -5
  -5  12   5  792.65   25.99  -4
   0  12  -5  792.65   25.99  -3
   5  12   0  792.65   25.99  -2
  -5  12   5  792.65   25.99   1
   1 -12  -5 1043.95   29.47  -6
   4 -12   1 1043.95   29.47  -5
  -5 -12   4 1043.95   29.47  -4
  -1 -12  -4 1043.95   29.47  -3
   5 -12  -1 1043.95   29.47  -2
  -4 -12   5 1043.95   29.47   1
   1  12  -5 1026.83   28.70  -6
   4  12   1 1026.83   28.70  -5
  -5  12   4 1026.83   28.70  -4
  -1  12  -4 1026.83   28.70  -3
   5  12  -1 1026.83   28.70  -2
  -4  12   5 1026.83   28.70   1
   2 -12  -5  951.29   26.94  -6
   3 -12   2  951.29   26.94  -5
  -5 -12   3  951.29   26.94  -4
  -2 -12  -3  951.29   26.94  -3
   5 -12  -2  951.29   26.94  -2
  -3 -12   5  951.29   26.94   1
   3 -12  -5  943.15   26.25  -6
   2 -12   3  943.15   26.25  -5
  -5 -12   2  943.15   26.25  -4
  -3 -12  -2  943.15   26.25  -3
   5 -12  -3  943.15   26.25  -2
  -2 -12   5  943.15   26.25   1
   4 -12  -5 1116.49   26.02  -6
   1 -12   4 1116.49   26.02  -5
  -5 -12   1 1116.49   26.02  -4
  -4 -12  -1 1116.49   26.02  -3
   5 -12  -4 1116.49   26.02  -2
  -1 -12   5 1116.49   26.02   1
   5 -12  -5  759.86   35.01  -6
   0 -12   5  759.86   35.01  -5
  -5 -12   0  759.86   35.01  -4
  -5 -12   0  759.86   35.01  -3
   5 -12  -5  759.86   35.01  -2
   0 -12   5  759.86   35.01   1
   6 -12  -5  497.11   43.44  -6
  -1 -12   6  497.11   43.44  -5
  -5 -12  -1  497.11   43.44  -4
  -6 -12   1  497.11   43.44  -3
   5 -12  -6  497.11   43.44  -2
   1 -12   5  497.11   43.44   1
   7 -12  -5  354.08   42.41  -6
  -2 -12   7  354.08   42.41  -5
  -5 -12  -2  354.08   42.41  -4
  -7 -12   2  354.08   42.41  -3
   5 -12  -7  354.08   42.41  -2
   2 -12   5  354.08   42.41   1
   0  13  -5  655.70   25.52  -6
   5  13   0  655.70   25.52  -5
  -5  13   5  655.70   25.52  -4
   0  13  -5  655.70   25.52  -3
   5  13   0  655.70   25.52  -2
  -5  13   5  655.70   25.52   1
   1 -13  -5  677.95   27.58  -6
   4 -13   1  677.95   27.58  -5
  -5 -13   4  677.95   27.58  -4
  -1 -13  -4  677.95   27.58  -3
   5 -13  -1  677.95   27.58  -2
  -4 -13   5  677.95   27.58   1
   1  13  -5  729.68   39.63  -6
   4  13   1  729.68   39.63  -5
  -5  13   4  729.68   39.63  -4
  -1  13  -4  729.68   39.63  -3
   5  13  -1  729.68   39.63  -2
  -4  13   5  729.68   39.63   1
   2 -13  -5  744.18   26.56  -6
   3 -13   2  744.18   26.56  -5
  -5 -13   3  744.18   26.56  -4
  -2 -13  -3  744.18   26.56  -3
   5 -13  -2  744.18   26.56  -2
  -3 -13   5  744.18   26.56   1
   2  13  -5  823.35   43.70  -6
   3  13   2  823.35   43.70  -5
  -5  13   3  823.35   43.70  -4
  -2  13  -3  823.35   43.70  -3
   5  13  -2  823.35   43.70  -2
  -3  13   5  823.35   43.70   1
   3 -13  -5  763.85   26.37  -6
   2 -13   3  763.85   26.37  -5
  -5 -13   2  763.85   26.37  -4
  -3 -13  -2  763.85   26.37  -3
   5 -13  -3  763.85   26.37  -2
  -2 -13   5  763.85   26.37   1
   3  13  -5  720.10   41.90  -6
   2  13   3  720.10   41.90  -5
  -5  13   2  720.10   41.90  -4
  -3  13  -2  720.10   41.90  -3
   5  13  -3  720.10   41.90  -2
  -2  13   5  720.10   41.90   1
   4 -13  -5  675.08   24.28  -6
   1 -13   4  675.08   24.28  -5
  -5 -13   1  675.08   24.28  -4
  -4 -13  -1  675.08   24.28  -3
   5 -13  -4  675.08   24.28  -2
  -1 -13   5  675.08   24.28   1
   4  13  -5  681.59   43.05  -6
   1  13   4  681.59   43.05  -5
  -5  13   1  681.59   43.05  -4
  -4  13  -1  681.59   43.05  -3
   5  13  -4  681.59   43.05  -2
  -1  13   5  681.59   43.05   1
   5 -13  -5  619.96   33.97  -6
   0 -13   5  619.96   33.97  -5
  -5 -13   0  619.96   33.97  -4
  -5 -13   0  619.96   33.97  -3
   5 -13  -5  619.96   33.97  -2
   0 -13   5  619.96   33.97   1
   6 -13  -5  673.03   45.11  -6
  -1 -13   6  673.03   45.11  -5
  -5 -13  -1  673.03   45.11  -4
  -6 -13   1  673.03   45.11  -3
   5 -13  -6  673.03   45.11  -2
   1 -13   5  673.03   45.11   1
   1 -14  -5  554.56   39.66  -6
   4 -14   1  554.56   39.66  -5
  -5 -14   4  554.56   39.66  -4
  -1 -14  -4  554.56   39.66  -3
   5 -14  -1  554.56   39.66  -2
  -4 -14   5  554.56   39.66   1
   2 -14  -5  729.82   39.42  -6
   3 -14   2  729.82   39.42  -5
  -5 -14   3  729.82   39.42  -4
  -2 -14  -3  729.82   39.42  -3
   5 -14  -2  729.82   39.42  -2
  -3 -14   5  729.82   39.42   1
   3 -14  -5  747.20   37.61  -6
   2 -14   3  747.20   37.61  -5
  -5 -14   2  747.20   37.61  -4
  -3 -14  -2  747.20   37.61  -3
   5 -14  -3  747.20   37.61  -2
  -2 -14   5  747.20   37.61   1
   4 -14  -5  474.86   37.08  -6
   1 -14   4  474.86   37.08  -5
  -5 -14   1  474.86   37.08  -4
  -4 -14  -1  474.86   37.08  -3
   5 -14  -4  474.86   37.08  -2
  -1 -14   5  474.86   37.08   1
   5 -14  -5  382.51   26.31  -6
   0 -14   5  382.51   26.31  -5
  -5 -14   0  382.51   26.31  -4
  -5 -14   0  382.51   26.31  -3
   5 -14  -5  382.51   26.31  -2
   0 -14   5  382.51   26.31   1
   6 -14  -5  393.28   42.26  -6
  -1 -14   6  393.28   42.26  -5
  -5 -14  -1  393.28   42.26  -4
  -6 -14   1  393.28   42.26  -3
   5 -14  -6  393.28   42.26  -2
   1 -14   5  393.28   42.26   1
  -4   0  -6  173.44   23.37  -6
  10   0  -4  173.44   23.37  -5
  -6   0  10  173.44   23.37  -4
   4   0 -10  173.44   23.37  -3
   6   0   4  173.44   23.37  -2
 -10   0   6  173.44   23.37   1
  -3   0  -6  254.10   21.57  -6
   9   0  -3  254.10   21.57  -5
  -6   0   9  254.10   21.57  -4
   3   0  -9  254.10   21.57  -3
   6   0   3  254.10   21.57  -2
  -9   0   6  254.10   21.57   1
  -2   0  -6  293.15   19.38  -6
   8   0  -2  293.15   19.38  -5
  -6   0   8  293.15   19.38  -4
   2   0  -8  293.15   19.38  -3
   6   0   2  293.15   19.38  -2
  -8   0   6  293.15   19.38   1
  -1   0  -6 1091.35   22.33  -6
   7   0  -1 1091.35   22.33  -5
  -6   0   7 1091.35   22.33  -4
   1   0  -7 1091.35   22.33  -3
   6   0   1 1091.35   22.33  -2
  -7   0   6 1091.35   22.33   1
   0   0  -6 1080.46   17.93  -6
   6   0   0 1080.46   17.93  -5
  -6   0   6 1080.46   17.93  -4
   0   0  -6 1080.46   17.93  -3
   6   0   0 1080.46   17.93  -2
  -6   0   6 1080.46   17.93   1
   1   0  -6  810.90   14.49  -6
   5   0   1  810.90   14.49  -5
  -6   0   5  810.90   14.49  -4
  -1   0  -5  810.90   14.49  -3
   6   0  -1  810.90   14.49  -2
  -5   0   6  810.90   14.49   1
   2   0  -6 1252.82   22.25  -6
   4   0   2 1252.82   22.25  -5
  -6   0   4 1252.82   22.25  -4
  -2   0  -4 1252.82   22.25  -3
   6   0  -2 1252.82   22.25  -2
  -4   0   6 1252.82   22.25   1
   3   0  -6 1541.90   34.51  -6
   3   0   3 1541.90   34.51  -5
  -6   0   3 1541.90   34.51  -4
  -3   0  -3 1541.90   34.51  -3
   6   0  -3 1541.90   34.51  -2
  -3   0   6 1541.90   34.51   1
   4   0  -6 1074.35   11.89  -6
   2   0   4 1074.35   11.89  -5
  -6   0   2 1074.35   11.89  -4
  -4   0  -2 1074.35   11.89  -3
   6   0  -4 1074.35   11.89  -2
  -2   0   6 1074.35   11.89   1
   5   0  -6  917.73   22.05  -6
   1   0   5  917.73   22.05  -5
  -6   0   1  917.73   22.05  -4
  -5   0  -1  917.73   22.05  -3
   6   0  -5  917.73   22.05  -2
  -1   0   6  917.73   22.05   1
   6   0  -6 1160.20   24.73  -6
   0   0   6 1160.20   24.73  -5
  -6   0   0 1160.20   24.73  -4
  -6   0   0 1160.20   24.73  -3
   6   0  -6 1160.20   24.73  -2
   0   0   6 1160.20   24.73   1
   7   0  -6 1060.18   26.79  -6
  -1   0   7 1060.18   26.79  -5
  -6   0  -1 1060.18   26.79  -4
  -7   0   1 1060.18   26.79  -3
   6   0  -7 1060.18   26.79  -2
   1   0   6 1060.18   26.79   1
   8   0  -6  453.99   34.75  -6
  -2   0   8  453.99   34.75  -5
  -6   0  -2  453.99   34.75  -4
  -8   0   2  453.99   34.75  -3
   6   0  -8  453.99   34.75  -2
   2   0   6  453.99   34.75   1
   9   0  -6  305.19   25.89  -6
  -3   0   9  305.19   25.89  -5
  -6   0  -3  305.19   25.89  -4
  -9   0   3  305.19   25.89  -3
   6   0  -9  305.19   25.89  -2
   3   0   6  305.19   25.89   1
  10   0  -6  219.17   36.01  -6
  -4   0  10  219.17   36.01  -5
  -6   0  -4  219.17   36.01  -4
 -10   0   4  219.17   36.01  -3
   6   0 -10  219.17   36.01  -2
   4   0   6  219.17   36.01   1
  -4  -1  -6  180.61   35.11  -6
  10  -1  -4  180.61   35.11  -5
  -6  -1  10  180.61   35.11  -4
   4  -1 -10  180.61   35.11  -3
   6  -1   4  180.61   35.11  -2
 -10  -1   6  180.61   35.11   1
  -4   1  -6  241.99   36.57  -6
  10   1  -4  241.99   36.57  -5
  -6   1  10  241.99   36.57  -4
   4   1 -10  241.99   36.57  -3
   6   1   4  241.99   36.57  -2
 -10   1   6  241.99   36.57   1
  -3  -1  -6  418.34   23.35  -6
   9  -1  -3  418.34   23.35  -5
  -6  -1   9  418.34   23.35  -4
   3  -1  -9  418.34   23.35  -3
   6  -1   3  418.34   23.35  -2
  -9  -1   6  418.34   23.35   1
  -3   1  -6  436.77   24.57  -6
   9   1  -3  436.77   24.57  -5
  -6   1   9  436.77   24.57  -4
   3   1  -9  436.77   24.57  -3
   6   1   3  436.77   24.57  -2
  -9   1   6  436.77   24.57   1
  -2  -1  -6  627.08   31.00  -6
   8  -1  -2  627.08   31.00  -5
  -6  -1   8  627.08   31.00  -4
   2  -1  -8  627.08   31.00  -3
   6  -1   2  627.08   31.00  -2
  -8  -1   6  627.08   31.00   1
  -2   1  -6  695.29   30.35  -6
   8   1  -2  695.29   30.35  -5
  -6   1   8  695.29   30.35  -4
   2   1  -8  695.29   30.35  -3
   6   1   2  695.29   30.35  -2
  -8   1   6  695.29   30.35   1
  -1  -1  -6 1154.18   21.19  -6
   7  -1  -1 1154.18   21.19  -5
  -6  -1   7 1154.18   21.19  -4
   1  -1  -7 1154.18   21.19  -3
   6  -1   1 1154.18   21.19  -2
  -7  -1   6 1154.18   21.19   1
  -1   1  -6 1145.09   21.18  -6
   7   1  -1 1145.09   21.18  -5
  -6   1   7 1145.09   21.18  -4
   1   1  -7 1145.09   21.18  -3
   6   1   1 1145.09   21.18  -2
  -7   1   6 1145.09   21.18   1
   0  -1  -6 1921.24   27.81  -6
   6  -1   0 1921.24   27.81  -5
  -6  -1   6 1921.24   27.81  -4
   0  -1  -6 1921.24   27.81  -3
   6  -1   0 1921.24   27.81  -2
  -6  -1   6 1921.24   27.81   1
   0   1  -6 1834.09   30.58  -6
   6   1   0 1834.09   30.58  -5
  -6   1   6 1834.09   30.58  -4
   0   1  -6 1834.09   30.58  -3
   6   1   0 1834.09   30.58  -2
  -6   1   6 1834.09   30.58   1
   1  -1  -6 1267.68   15.48  -6
   5  -1   1 1267.68   15.48  -5
  -6  -1   5 1267.68   15.48  -4
  -1  -1  -5 1267.68   15.48  -3
   6  -1  -1 1267.68   15.48  -2
  -5  -1   6 1267.68   15.48   1
   1   1  -6 1309.44   23.64  -6
   5   1   1 1309.44   23.64  -5
  -6   1   5 1309.44   23.64  -4
  -1   1  -5 1309.44   23.64  -3
   6   1  -1 1309.44   23.64  -2
  -5   1   6 1309.44   23.64   1
   2  -1  -6 1323.65   13.54  -6
   4  -1   2 1323.65   13.54  -5
  -6  -1   4 1323.65   13.54  -4
  -2  -1  -4 1323.65   13.54  -3
   6  -1  -2 1323.65   13.54  -2
  -4  -1   6 1323.65   13.54   1
   2   1  -6 1355.20   22.67  -6
   4   1   2 1355.20   22.67  -5
  -6   1   4 1355.20   22.67  -4
  -2   1  -4 1355.20   22.67  -3
   6   1  -2 1355.20   22.67  -2
  -4   1   6 1355.20   22.67   1
   3  -1  -6 1839.59   20.65  -6
   3  -1   3 1839.59   20.65  -5
  -6  -1   3 1839.59   20.65  -4
  -3  -1  -3 1839.59   20.65  -3
   6  -1  -3 1839.59   20.65  -2
  -3  -1   6 1839.59   20.65   1
   3   1  -6 2056.74   36.98  -6
   3   1   3 2056.74   36.98  -5
  -6   1   3 2056.74   36.98  -4
  -3   1  -3 2056.74   36.98  -3
   6   1  -3 2056.74   36.98  -2
  -3   1   6 2056.74   36.98   1
   4  -1  -6 1473.76   32.96  -6
   2  -1   4 1473.76   32.96  -5
  -6  -1   2 1473.76   32.96  -4
  -4  -1  -2 1473.76   32.96  -3
   6  -1  -4 1473.76   32.96  -2
  -2  -1   6 1473.76   32.96   1
   4   1  -6 1574.20   33.90  -6
   2   1   4 1574.20   33.90  -5
  -6   1   2 1574.20   33.90  -4
  -4   1  -2 1574.20   33.90  -3
   6   1  -4 1574.20   33.90  -2
  -2   1   6 1574.20   33.90   1
   5  -1  -6 1208.56   22.70  -6
   1  -1   5 1208.56   22.70  -5
  -6  -1   1 1208.56   22.70  -4
  -5  -1  -1 1208.56   22.70  -3
   6  -1  -5 1208.56   22.70  -2
  -1  -1   6 1208.56   22.70   1
   5   1  -6 1303.17   30.84  -6
   1   1   5 1303.17   30.84  -5
  -6   1   1 1303.17   30.84  -4
  -5   1  -1 1303.17   30.84  -3
   6   1  -5 1303.17   30.84  -2
  -1   1   6 1303.17   30.84   1
   6  -1  -6 1884.68   26.55  -6
   0  -1   6 1884.68   26.55  -5
  -6  -1   0 1884.68   26.55  -4
  -6  -1   0 1884.68   26.55  -3
   6  -1  -6 1884.68   26.55  -2
   0  -1   6 1884.68   26.55   1
   6   1  -6 1892.93   35.15  -6
   0   1   6 1892.93   35.15  -5
  -6   1   0 1892.93   35.15  -4
  -6   1   0 1892.93   35.15  -3
   6   1  -6 1892.93   35.15  -2
   0   1   6 1892.93   35.15   1
   7  -1  -6 1437.41   28.42  -6
  -1  -1   7 1437.41   28.42  -5
  -6  -1  -1 1437.41   28.42  -4
  -7  -1   1 1437.41   28.42  -3
   6  -1  -7 1437.41   28.42  -2
   1  -1   6 1437.41   28.42   1
   7   1  -6 1559.32   39.96  -6
  -1   1   7 1559.32   39.96  -5
  -6   1  -1 1559.32   39.96  -4
  -7   1   1 1559.32   39.96  -3
   6   1  -7 1559.32   39.96  -2
   1   1   6 1559.32   39.96   1
   8  -1  -6 1050.19   38.09  -6
  -2  -1   8 1050.19   38.09  -5
  -6  -1  -2 1050.19   38.09  -4
  -8  -1   2 1050.19   38.09  -3
   6  -1  -8 1050.19   38.09  -2
   2  -1   6 1050.19   38.09   1
   8   1  -6 1175.58   38.88  -6
  -2   1   8 1175.58   38.88  -5
  -6   1  -2 1175.58   38.88  -4
  -8   1   2 1175.58   38.88  -3
   6   1  -8 1175.58   38.88  -2
   2   1   6 1175.58   38.88   1
   9  -1  -6 1050.72   30.22  -6
  -3  -1   9 1050.72   30.22  -5
  -6  -1  -3 1050.72   30.22  -4
  -9  -1   3 1050.72   30.22  -3
   6  -1  -9 1050.72   30.22  -2
   3  -1   6 1050.72   30.22   1
   9   1  -6 1073.20   29.45  -6
  -3   1   9 1073.20   29.45  -5
  -6   1  -3 1073.20   29.45  -4
  -9   1   3 1073.20   29.45  -3
   6   1  -9 1073.20   29.45  -2
   3   1   6 1073.20   29.45   1
  10  -1  -6  928.17   42.25  -6
  -4  -1  10  928.17   42.25  -5
  -6  -1  -4  928.17   42.25  -4
 -10  -1   4  928.17   42.25  -3
   6  -1 -10  928.17   42.25  -2
   4  -1   6  928.17   42.25   1
  10   1  -6  931.60   40.83  -6
  -4   1  10  931.60   40.83  -5
  -6   1  -4  931.60   40.83  -4
 -10   1   4  931.60   40.83  -3
   6   1 -10  931.60   40.83  -2
   4   1   6  931.60   40.83   1
  -4  -2  -6  264.68   33.62  -6
  10  -2  -4  264.68   33.62  -5
  -6  -2  10  264.68   33.62  -4
   4  -2 -10  264.68   33.62  -3
   6  -2   4  264.68   33.62  -2
 -10  -2   6  264.68   33.62   1
  -3  -2  -6  315.78   22.65  -6
   9  -2  -3  315.78   22.65  -5
  -6  -2   9  315.78   22.65  -4
   3  -2  -9  315.78   22.65  -3
   6  -2   3  315.78   22.65  -2
  -9  -2   6  315.78   22.65   1
  -3   2  -6  327.70   22.95  -6
   9   2  -3  327.70   22.95  -5
  -6   2   9  327.70   22.95  -4
   3   2  -9  327.70   22.95  -3
   6   2   3  327.70   22.95  -2
  -9   2   6  327.70   22.95   1
  -2  -2  -6  312.91   19.78  -6
   8  -2  -2  312.91   19.78  -5
  -6  -2   8  312.91   19.78  -4
   2  -2  -8  312.91   19.78  -3
   6  -2   2  312.91   19.78  -2
  -8  -2   6  312.91   19.78   1
  -2   2  -6  384.11   21.38  -6
   8   2  -2  384.11   21.38  -5
  -6   2   8  384.11   21.38  -4
   2   2  -8  384.11   21.38  -3
   6   2   2  384.11   21.38  -2
  -8   2   6  384.11   21.38   1
  -1  -2  -6  934.45   30.54  -6
   7  -2  -1  934.45   30.54  -5
  -6  -2   7  934.45   30.54  -4
   1  -2  -7  934.45   30.54  -3
   6  -2   1  934.45   30.54  -2
  -7  -2   6  934.45   30.54   1
  -1   2  -6  900.24   29.04  -6
   7   2  -1  900.24   29.04  -5
  -6   2   7  900.24   29.04  -4
   1   2  -7  900.24   29.04  -3
   6   2   1  900.24   29.04  -2
  -7   2   6  900.24   29.04   1
   0  -2  -6  937.96   21.84  -6
   6  -2   0  937.96   21.84  -5
  -6  -2   6  937.96   21.84  -4
   0  -2  -6  937.96   21.84  -3
   6  -2   0  937.96   21.84  -2
  -6  -2   6  937.96   21.84   1
   0   2  -6  924.84   25.52  -6
   6   2   0  924.84   25.52  -5
  -6   2   6  924.84   25.52  -4
   0   2  -6  924.84   25.52  -3
   6   2   0  924.84   25.52  -2
  -6   2   6  924.84   25.52   1
   1  -2  -6  908.07   12.94  -6
   5  -2   1  908.07   12.94  -5
  -6  -2   5  908.07   12.94  -4
  -1  -2  -5  908.07   12.94  -3
   6  -2  -1  908.07   12.94  -2
  -5  -2   6  908.07   12.94   1
   2  -2  -6  987.97   18.26  -6
   4  -2   2  987.97   18.26  -5
  -6  -2   4  987.97   18.26  -4
  -2  -2  -4  987.97   18.26  -3
   6  -2  -2  987.97   18.26  -2
  -4  -2   6  987.97   18.26   1
   2   2  -6  886.45   22.29  -6
   4   2   2  886.45   22.29  -5
  -6   2   4  886.45   22.29  -4
  -2   2  -4  886.45   22.29  -3
   6   2  -2  886.45   22.29  -2
  -4   2   6  886.45   22.29   1
   3   2  -6 1265.35   16.39  -6
   3   2   3 1265.35   16.39  -5
  -6   2   3 1265.35   16.39  -4
  -3   2  -3 1265.35   16.39  -3
   6   2  -3 1265.35   16.39  -2
  -3   2   6 1265.35   16.39   1
   4  -2  -6  540.29   15.12  -6
   2  -2   4  540.29   15.12  -5
  -6  -2   2  540.29   15.12  -4
  -4  -2  -2  540.29   15.12  -3
   6  -2  -4  540.29   15.12  -2
  -2  -2   6  540.29   15.12   1
   4   2  -6  765.51    9.09  -6
   2   2   4  765.51    9.09  -5
  -6   2   2  765.51    9.09  -4
  -4   2  -2  765.51    9.09  -3
   6   2  -4  765.51    9.09  -2
  -2   2   6  765.51    9.09   1
   5  -2  -6  903.87   21.94  -6
   1  -2   5  903.87   21.94  -5
  -6  -2   1  903.87   21.94  -4
  -5  -2  -1  903.87   21.94  -3
   6  -2  -5  903.87   21.94  -2
  -1  -2   6  903.87   21.94   1
   5   2  -6  908.71   23.53  -6
   1   2   5  908.71   23.53  -5
  -6   2   1  908.71   23.53  -4
  -5   2  -1  908.71   23.53  -3
   6   2  -5  908.71   23.53  -2
  -1   2   6  908.71   23.53   1
   6  -2  -6  924.07   31.98  -6
   0  -2   6  924.07   31.98  -5
  -6  -2   0  924.07   31.98  -4
  -6  -2   0  924.07   31.98  -3
   6  -2  -6  924.07   31.98  -2
   0  -2   6  924.07   31.98   1
   6   2  -6  986.49   31.75  -6
   0   2   6  986.49   31.75  -5
  -6   2   0  986.49   31.75  -4
  -6   2   0  986.49   31.75  -3
   6   2  -6  986.49   31.75  -2
   0   2   6  986.49   31.75   1
   7  -2  -6  882.55   32.75  -6
  -1  -2   7  882.55   32.75  -5
  -6  -2  -1  882.55   32.75  -4
  -7  -2   1  882.55   32.75  -3
   6  -2  -7  882.55   32.75  -2
   1  -2   6  882.55   32.75   1
   7   2  -6 1016.53   39.39  -6
  -1   2   7 1016.53   39.39  -5
  -6   2  -1 1016.53   39.39  -4
  -7   2   1 1016.53   39.39  -3
   6   2  -7 1016.53   39.39  -2
   1   2   6 1016.53   39.39   1
   8  -2  -6  388.40   34.08  -6
  -2  -2   8  388.40   34.08  -5
  -6  -2  -2  388.40   34.08  -4
  -8  -2   2  388.40   34.08  -3
   6  -2  -8  388.40   34.08  -2
   2  -2   6  388.40   34.08   1
   8   2  -6  411.99   33.62  -6
  -2   2   8  411.99   33.62  -5
  -6   2  -2  411.99   33.62  -4
  -8   2   2  411.99   33.62  -3
   6   2  -8  411.99   33.62  -2
   2   2   6  411.99   33.62   1
   9  -2  -6  224.24   25.46  -6
  -3  -2   9  224.24   25.46  -5
  -6  -2  -3  224.24   25.46  -4
  -9  -2   3  224.24   25.46  -3
   6  -2  -9  224.24   25.46  -2
   3  -2   6  224.24   25.46   1
   9   2  -6  220.22   24.39  -6
  -3   2   9  220.22   24.39  -5
  -6   2  -3  220.22   24.39  -4
  -9   2   3  220.22   24.39  -3
   6   2  -9  220.22   24.39  -2
   3   2   6  220.22   24.39   1
  10  -2  -6  150.84   36.78  -6
  -4  -2  10  150.84   36.78  -5
  -6  -2  -4  150.84   36.78  -4
 -10  -2   4  150.84   36.78  -3
   6  -2 -10  150.84   36.78  -2
   4  -2   6  150.84   36.78   1
  10   2  -6  146.86   34.57  -6
  -4   2  10  146.86   34.57  -5
  -6   2  -4  146.86   34.57  -4
 -10   2   4  146.86   34.57  -3
   6   2 -10  146.86   34.57  -2
   4   2   6  146.86   34.57   1
  -4  -3  -6   64.67   32.30  -6
  10  -3  -4   64.67   32.30  -5
  -6  -3  10   64.67   32.30  -4
   4  -3 -10   64.67   32.30  -3
   6  -3   4   64.67   32.30  -2
 -10  -3   6   64.67   32.30   1
  -3  -3  -6  249.65   30.73  -6
   9  -3  -3  249.65   30.73  -5
  -6  -3   9  249.65   30.73  -4
   3  -3  -9  249.65   30.73  -3
   6  -3   3  249.65   30.73  -2
  -9  -3   6  249.65   30.73   1
  -3   3  -6  374.37   32.69  -6
   9   3  -3  374.37   32.69  -5
  -6   3   9  374.37   32.69  -4
   3   3  -9  374.37   32.69  -3
   6   3   3  374.37   32.69  -2
  -9   3   6  374.37   32.69   1
  -2  -3  -6  439.31   16.84  -6
   8  -3  -2  439.31   16.84  -5
  -6  -3   8  439.31   16.84  -4
   2  -3  -8  439.31   16.84  -3
   6  -3   2  439.31   16.84  -2
  -8  -3   6  439.31   16.84   1
  -2   3  -6  536.58   21.52  -6
   8   3  -2  536.58   21.52  -5
  -6   3   8  536.58   21.52  -4
   2   3  -8  536.58   21.52  -3
   6   3   2  536.58   21.52  -2
  -8   3   6  536.58   21.52   1
  -1  -3  -6  887.11   16.93  -6
   7  -3  -1  887.11   16.93  -5
  -6  -3   7  887.11   16.93  -4
   1  -3  -7  887.11   16.93  -3
   6  -3   1  887.11   16.93  -2
  -7  -3   6  887.11   16.93   1
  -1   3  -6  965.20   17.11  -6
   7   3  -1  965.20   17.11  -5
  -6   3   7  965.20   17.11  -4
   1   3  -7  965.20   17.11  -3
   6   3   1  965.20   17.11  -2
  -7   3   6  965.20   17.11   1
   0  -3  -6 1078.92   14.73  -6
   6  -3   0 1078.92   14.73  -5
  -6  -3   6 1078.92   14.73  -4
   0  -3  -6 1078.92   14.73  -3
   6  -3   0 1078.92   14.73  -2
  -6  -3   6 1078.92   14.73   1
   0   3  -6 1091.14   16.42  -6
   6   3   0 1091.14   16.42  -5
  -6   3   6 1091.14   16.42  -4
   0   3  -6 1091.14   16.42  -3
   6   3   0 1091.14   16.42  -2
  -6   3   6 1091.14   16.42   1
   1  -3  -6  886.44   12.17  -6
   5  -3   1  886.44   12.17  -5
  -6  -3   5  886.44   12.17  -4
  -1  -3  -5  886.44   12.17  -3
   6  -3  -1  886.44   12.17  -2
  -5  -3   6  886.44   12.17   1
   1   3  -6 1024.33   18.72  -6
   5   3   1 1024.33   18.72  -5
  -6   3   5 1024.33   18.72  -4
  -1   3  -5 1024.33   18.72  -3
   6   3  -1 1024.33   18.72  -2
  -5   3   6 1024.33   18.72   1
   2  -3  -6  810.29   29.69  -6
   4  -3   2  810.29   29.69  -5
  -6  -3   4  810.29   29.69  -4
  -2  -3  -4  810.29   29.69  -3
   6  -3  -2  810.29   29.69  -2
  -4  -3   6  810.29   29.69   1
   2   3  -6  826.05   22.90  -6
   4   3   2  826.05   22.90  -5
  -6   3   4  826.05   22.90  -4
  -2   3  -4  826.05   22.90  -3
   6   3  -2  826.05   22.90  -2
  -4   3   6  826.05   22.90   1
   3  -3  -6 1242.77   31.31  -6
   3  -3   3 1242.77   31.31  -5
  -6  -3   3 1242.77   31.31  -4
  -3  -3  -3 1242.77   31.31  -3
   6  -3  -3 1242.77   31.31  -2
  -3  -3   6 1242.77   31.31   1
   3   3  -6 1314.51   34.10  -6
   3   3   3 1314.51   34.10  -5
  -6   3   3 1314.51   34.10  -4
  -3   3  -3 1314.51   34.10  -3
   6   3  -3 1314.51   34.10  -2
  -3   3   6 1314.51   34.10   1
   4  -3  -6  855.90   27.39  -6
   2  -3   4  855.90   27.39  -5
  -6  -3   2  855.90   27.39  -4
  -4  -3  -2  855.90   27.39  -3
   6  -3  -4  855.90   27.39  -2
  -2  -3   6  855.90   27.39   1
   4   3  -6  911.45   13.47  -6
   2   3   4  911.45   13.47  -5
  -6   3   2  911.45   13.47  -4
  -4   3  -2  911.45   13.47  -3
   6   3  -4  911.45   13.47  -2
  -2   3   6  911.45   13.47   1
   5  -3  -6  870.42   21.61  -6
   1  -3   5  870.42   21.61  -5
  -6  -3   1  870.42   21.61  -4
  -5  -3  -1  870.42   21.61  -3
   6  -3  -5  870.42   21.61  -2
  -1  -3   6  870.42   21.61   1
   5   3  -6  881.21   27.56  -6
   1   3   5  881.21   27.56  -5
  -6   3   1  881.21   27.56  -4
  -5   3  -1  881.21   27.56  -3
   6   3  -5  881.21   27.56  -2
  -1   3   6  881.21   27.56   1
   6  -3  -6 1008.06   23.14  -6
   0  -3   6 1008.06   23.14  -5
  -6  -3   0 1008.06   23.14  -4
  -6  -3   0 1008.06   23.14  -3
   6  -3  -6 1008.06   23.14  -2
   0  -3   6 1008.06   23.14   1
   6   3  -6 1046.17   32.89  -6
   0   3   6 1046.17   32.89  -5
  -6   3   0 1046.17   32.89  -4
  -6   3   0 1046.17   32.89  -3
   6   3  -6 1046.17   32.89  -2
   0   3   6 1046.17   32.89   1
   7  -3  -6 1016.62   23.99  -6
  -1  -3   7 1016.62   23.99  -5
  -6  -3  -1 1016.62   23.99  -4
  -7  -3   1 1016.62   23.99  -3
   6  -3  -7 1016.62   23.99  -2
   1  -3   6 1016.62   23.99   1
   8  -3  -6  705.78   34.93  -6
  -2  -3   8  705.78   34.93  -5
  -6  -3  -2  705.78   34.93  -4
  -8  -3   2  705.78   34.93  -3
   6  -3  -8  705.78   34.93  -2
   2  -3   6  705.78   34.93   1
   8   3  -6  805.07   36.21  -6
  -2   3   8  805.07   36.21  -5
  -6   3  -2  805.07   36.21  -4
  -8   3   2  805.07   36.21  -3
   6   3  -8  805.07   36.21  -2
   2   3   6  805.07   36.21   1
   9  -3  -6  829.19   29.59  -6
  -3  -3   9  829.19   29.59  -5
  -6  -3  -3  829.19   29.59  -4
  -9  -3   3  829.19   29.59  -3
   6  -3  -9  829.19   29.59  -2
   3  -3   6  829.19   29.59   1
   9   3  -6  781.44   27.56  -6
  -3   3   9  781.44   27.56  -5
  -6   3  -3  781.44   27.56  -4
  -9   3   3  781.44   27.56  -3
   6   3  -9  781.44   27.56  -2
   3   3   6  781.44   27.56   1
  10   3  -6  804.53   41.77  -6
  -4   3  10  804.53   41.77  -5
  -6   3  -4  804.53   41.77  -4
 -10   3   4  804.53   41.77  -3
   6   3 -10  804.53   41.77  -2
   4   3   6  804.53   41.77   1
  -3  -4  -6  286.95   33.97  -6
   9  -4  -3  286.95   33.97  -5
  -6  -4   9  286.95   33.97  -4
   3  -4  -9  286.95   33.97  -3
   6  -4   3  286.95   33.97  -2
  -9  -4   6  286.95   33.97   1
  -3   4  -6  384.91   24.04  -6
   9   4  -3  384.91   24.04  -5
  -6   4   9  384.91   24.04  -4
   3   4  -9  384.91   24.04  -3
   6   4   3  384.91   24.04  -2
  -9   4   6  384.91   24.04   1
  -2  -4  -6  345.89   15.94  -6
   8  -4  -2  345.89   15.94  -5
  -6  -4   8  345.89   15.94  -4
   2  -4  -8  345.89   15.94  -3
   6  -4   2  345.89   15.94  -2
  -8  -4   6  345.89   15.94   1
  -2   4  -6  370.91   21.92  -6
   8   4  -2  370.91   21.92  -5
  -6   4   8  370.91   21.92  -4
   2   4  -8  370.91   21.92  -3
   6   4   2  370.91   21.92  -2
  -8   4   6  370.91   21.92   1
  -1  -4  -6  645.62   15.77  -6
   7  -4  -1  645.62   15.77  -5
  -6  -4   7  645.62   15.77  -4
   1  -4  -7  645.62   15.77  -3
   6  -4   1  645.62   15.77  -2
  -7  -4   6  645.62   15.77   1
  -1   4  -6  636.87   20.65  -6
   7   4  -1  636.87   20.65  -5
  -6   4   7  636.87   20.65  -4
   1   4  -7  636.87   20.65  -3
   6   4   1  636.87   20.65  -2
  -7   4   6  636.87   20.65   1
   0  -4  -6 1026.03   14.21  -6
   6  -4   0 1026.03   14.21  -5
  -6  -4   6 1026.03   14.21  -4
   0  -4  -6 1026.03   14.21  -3
   6  -4   0 1026.03   14.21  -2
  -6  -4   6 1026.03   14.21   1
   0   4  -6 1106.43   16.75  -6
   6   4   0 1106.43   16.75  -5
  -6   4   6 1106.43   16.75  -4
   0   4  -6 1106.43   16.75  -3
   6   4   0 1106.43   16.75  -2
  -6   4   6 1106.43   16.75   1
   1  -4  -6  777.12   11.56  -6
   5  -4   1  777.12   11.56  -5
  -6  -4   5  777.12   11.56  -4
  -1  -4  -5  777.12   11.56  -3
   6  -4  -1  777.12   11.56  -2
  -5  -4   6  777.12   11.56   1
   1   4  -6  885.29   26.66  -6
   5   4   1  885.29   26.66  -5
  -6   4   5  885.29   26.66  -4
  -1   4  -5  885.29   26.66  -3
   6   4  -1  885.29   26.66  -2
  -5   4   6  885.29   26.66   1
   2  -4  -6  711.29   11.91  -6
   4  -4   2  711.29   11.91  -5
  -6  -4   4  711.29   11.91  -4
  -2  -4  -4  711.29   11.91  -3
   6  -4  -2  711.29   11.91  -2
  -4  -4   6  711.29   11.91   1
   2   4  -6  773.12   24.67  -6
   4   4   2  773.12   24.67  -5
  -6   4   4  773.12   24.67  -4
  -2   4  -4  773.12   24.67  -3
   6   4  -2  773.12   24.67  -2
  -4   4   6  773.12   24.67   1
   3  -4  -6 1026.74   29.45  -6
   3  -4   3 1026.74   29.45  -5
  -6  -4   3 1026.74   29.45  -4
  -3  -4  -3 1026.74   29.45  -3
   6  -4  -3 1026.74   29.45  -2
  -3  -4   6 1026.74   29.45   1
   3   4  -6 1475.47   39.94  -6
   3   4   3 1475.47   39.94  -5
  -6   4   3 1475.47   39.94  -4
  -3   4  -3 1475.47   39.94  -3
   6   4  -3 1475.47   39.94  -2
  -3   4   6 1475.47   39.94   1
   4  -4  -6  837.05   14.19  -6
   2  -4   4  837.05   14.19  -5
  -6  -4   2  837.05   14.19  -4
  -4  -4  -2  837.05   14.19  -3
   6  -4  -4  837.05   14.19  -2
  -2  -4   6  837.05   14.19   1
   4   4  -6  973.43   13.38  -6
   2   4   4  973.43   13.38  -5
  -6   4   2  973.43   13.38  -4
  -4   4  -2  973.43   13.38  -3
   6   4  -4  973.43   13.38  -2
  -2   4   6  973.43   13.38   1
   5  -4  -6  774.63   30.18  -6
   1  -4   5  774.63   30.18  -5
  -6  -4   1  774.63   30.18  -4
  -5  -4  -1  774.63   30.18  -3
   6  -4  -5  774.63   30.18  -2
  -1  -4   6  774.63   30.18   1
   5   4  -6  884.49   29.13  -6
   1   4   5  884.49   29.13  -5
  -6   4   1  884.49   29.13  -4
  -5   4  -1  884.49   29.13  -3
   6   4  -5  884.49   29.13  -2
  -1   4   6  884.49   29.13   1
   6  -4  -6  784.46   31.81  -6
   0  -4   6  784.46   31.81  -5
  -6  -4   0  784.46   31.81  -4
  -6  -4   0  784.46   31.81  -3
   6  -4  -6  784.46   31.81  -2
   0  -4   6  784.46   31.81   1
   6   4  -6  960.00   31.14  -6
   0   4   6  960.00   31.14  -5
  -6   4   0  960.00   31.14  -4
  -6   4   0  960.00   31.14  -3
   6   4  -6  960.00   31.14  -2
   0   4   6  960.00   31.14   1
   7  -4  -6  731.59   32.72  -6
  -1  -4   7  731.59   32.72  -5
  -6  -4  -1  731.59   32.72  -4
  -7  -4   1  731.59   32.72  -3
   6  -4  -7  731.59   32.72  -2
   1  -4   6  731.59   32.72   1
   7   4  -6  708.56   32.57  -6
  -1   4   7  708.56   32.57  -5
  -6   4  -1  708.56   32.57  -4
  -7   4   1  708.56   32.57  -3
   6   4  -7  708.56   32.57  -2
   1   4   6  708.56   32.57   1
   8  -4  -6  378.52   32.99  -6
  -2  -4   8  378.52   32.99  -5
  -6  -4  -2  378.52   32.99  -4
  -8  -4   2  378.52   32.99  -3
   6  -4  -8  378.52   32.99  -2
   2  -4   6  378.52   32.99   1
   8   4  -6  457.07   34.87  -6
  -2   4   8  457.07   34.87  -5
  -6   4  -2  457.07   34.87  -4
  -8   4   2  457.07   34.87  -3
   6   4  -8  457.07   34.87  -2
   2   4   6  457.07   34.87   1
   9  -4  -6  271.87   26.72  -6
  -3  -4   9  271.87   26.72  -5
  -6  -4  -3  271.87   26.72  -4
  -9  -4   3  271.87   26.72  -3
   6  -4  -9  271.87   26.72  -2
   3  -4   6  271.87   26.72   1
   9   4  -6  266.91   23.27  -6
  -3   4   9  266.91   23.27  -5
  -6   4  -3  266.91   23.27  -4
  -9   4   3  266.91   23.27  -3
   6   4  -9  266.91   23.27  -2
   3   4   6  266.91   23.27   1
  -3  -5  -6  258.45   22.41  -6
   9  -5  -3  258.45   22.41  -5
  -6  -5   9  258.45   22.41  -4
   3  -5  -9  258.45   22.41  -3
   6  -5   3  258.45   22.41  -2
  -9  -5   6  258.45   22.41   1
  -3   5  -6  308.40   36.33  -6
   9   5  -3  308.40   36.33  -5
  -6   5   9  308.40   36.33  -4
   3   5  -9  308.40   36.33  -3
   6   5   3  308.40   36.33  -2
  -9   5   6  308.40   36.33   1
  -2  -5  -6  559.16   22.77  -6
   8  -5  -2  559.16   22.77  -5
  -6  -5   8  559.16   22.77  -4
   2  -5  -8  559.16   22.77  -3
   6  -5   2  559.16   22.77  -2
  -8  -5   6  559.16   22.77   1
  -1  -5  -6  855.00   16.61  -6
   7  -5  -1  855.00   16.61  -5
  -6  -5   7  855.00   16.61  -4
   1  -5  -7  855.00   16.61  -3
   6  -5   1  855.00   16.61  -2
  -7  -5   6  855.00   16.61   1
  -1   5  -6  970.01   22.51  -6
   7   5  -1  970.01   22.51  -5
  -6   5   7  970.01   22.51  -4
   1   5  -7  970.01   22.51  -3
   6   5   1  970.01   22.51  -2
  -7   5   6  970.01   22.51   1
   0  -5  -6 1319.98   15.30  -6
   6  -5   0 1319.98   15.30  -5
  -6  -5   6 1319.98   15.30  -4
   0  -5  -6 1319.98   15.30  -3
   6  -5   0 1319.98   15.30  -2
  -6  -5   6 1319.98   15.30   1
   0   5  -6 1413.29   23.30  -6
   6   5   0 1413.29   23.30  -5
  -6   5   6 1413.29   23.30  -4
   0   5  -6 1413.29   23.30  -3
   6   5   0 1413.29   23.30  -2
  -6   5   6 1413.29   23.30   1
   1  -5  -6 1497.77   12.99  -6
   5  -5   1 1497.77   12.99  -5
  -6  -5   5 1497.77   12.99  -4
  -1  -5  -5 1497.77   12.99  -3
   6  -5  -1 1497.77   12.99  -2
  -5  -5   6 1497.77   12.99   1
   1   5  -6 1823.15   24.78  -6
   5   5   1 1823.15   24.78  -5
  -6   5   5 1823.15   24.78  -4
  -1   5  -5 1823.15   24.78  -3
   6   5  -1 1823.15   24.78  -2
  -5   5   6 1823.15   24.78   1
   2  -5  -6 1580.38   15.61  -6
   4  -5   2 1580.38   15.61  -5
  -6  -5   4 1580.38   15.61  -4
  -2  -5  -4 1580.38   15.61  -3
   6  -5  -2 1580.38   15.61  -2
  -4  -5   6 1580.38   15.61   1
   2   5  -6 1594.44   30.34  -6
   4   5   2 1594.44   30.34  -5
  -6   5   4 1594.44   30.34  -4
  -2   5  -4 1594.44   30.34  -3
   6   5  -2 1594.44   30.34  -2
  -4   5   6 1594.44   30.34   1
   3  -5  -6 1352.03   32.36  -6
   3  -5   3 1352.03   32.36  -5
  -6  -5   3 1352.03   32.36  -4
  -3  -5  -3 1352.03   32.36  -3
   6  -5  -3 1352.03   32.36  -2
  -3  -5   6 1352.03   32.36   1
   4  -5  -6 1486.40   16.91  -6
   2  -5   4 1486.40   16.91  -5
  -6  -5   2 1486.40   16.91  -4
  -4  -5  -2 1486.40   16.91  -3
   6  -5  -4 1486.40   16.91  -2
  -2  -5   6 1486.40   16.91   1
   4   5  -6 1437.16   16.09  -6
   2   5   4 1437.16   16.09  -5
  -6   5   2 1437.16   16.09  -4
  -4   5  -2 1437.16   16.09  -3
   6   5  -4 1437.16   16.09  -2
  -2   5   6 1437.16   16.09   1
   5  -5  -6 1431.86   22.56  -6
   1  -5   5 1431.86   22.56  -5
  -6  -5   1 1431.86   22.56  -4
  -5  -5  -1 1431.86   22.56  -3
   6  -5  -5 1431.86   22.56  -2
  -1  -5   6 1431.86   22.56   1
   5   5  -6 1479.38   31.51  -6
   1   5   5 1479.38   31.51  -5
  -6   5   1 1479.38   31.51  -4
  -5   5  -1 1479.38   31.51  -3
   6   5  -5 1479.38   31.51  -2
  -1   5   6 1479.38   31.51   1
   6  -5  -6 1331.83   18.87  -6
   0  -5   6 1331.83   18.87  -5
  -6  -5   0 1331.83   18.87  -4
  -6  -5   0 1331.83   18.87  -3
   6  -5  -6 1331.83   18.87  -2
   0  -5   6 1331.83   18.87   1
   6   5  -6 1270.85   35.21  -6
   0   5   6 1270.85   35.21  -5
  -6   5   0 1270.85   35.21  -4
  -6   5   0 1270.85   35.21  -3
   6   5  -6 1270.85   35.21  -2
   0   5   6 1270.85   35.21   1
   7  -5  -6 1096.04   23.97  -6
  -1  -5   7 1096.04   23.97  -5
  -6  -5  -1 1096.04   23.97  -4
  -7  -5   1 1096.04   23.97  -3
   6  -5  -7 1096.04   23.97  -2
   1  -5   6 1096.04   23.97   1
   7   5  -6 1102.48   35.95  -6
  -1   5   7 1102.48   35.95  -5
  -6   5  -1 1102.48   35.95  -4
  -7   5   1 1102.48   35.95  -3
   6   5  -7 1102.48   35.95  -2
   1   5   6 1102.48   35.95   1
   8  -5  -6  984.40   37.19  -6
  -2  -5   8  984.40   37.19  -5
  -6  -5  -2  984.40   37.19  -4
  -8  -5   2  984.40   37.19  -3
   6  -5  -8  984.40   37.19  -2
   2  -5   6  984.40   37.19   1
   8   5  -6 1158.75   40.05  -6
  -2   5   8 1158.75   40.05  -5
  -6   5  -2 1158.75   40.05  -4
  -8   5   2 1158.75   40.05  -3
   6   5  -8 1158.75   40.05  -2
   2   5   6 1158.75   40.05   1
   9  -5  -6  849.45   30.18  -6
  -3  -5   9  849.45   30.18  -5
  -6  -5  -3  849.45   30.18  -4
  -9  -5   3  849.45   30.18  -3
   6  -5  -9  849.45   30.18  -2
   3  -5   6  849.45   30.18   1
   9   5  -6  882.90   41.91  -6
  -3   5   9  882.90   41.91  -5
  -6   5  -3  882.90   41.91  -4
  -9   5   3  882.90   41.91  -3
   6   5  -9  882.90   41.91  -2
   3   5   6  882.90   41.91   1
  -3  -6  -6  233.94   34.39  -6
   9  -6  -3  233.94   34.39  -5
  -6  -6   9  233.94   34.39  -4
   3  -6  -9  233.94   34.39  -3
   6  -6   3  233.94   34.39  -2
  -9  -6   6  233.94   34.39   1
  -3   6  -6  283.66   35.23  -6
   9   6  -3  283.66   35.23  -5
  -6   6   9  283.66   35.23  -4
   3   6  -9  283.66   35.23  -3
   6   6   3  283.66   35.23  -2
  -9   6   6  283.66   35.23   1
  -2  -6  -6  382.22   34.69  -6
   8  -6  -2  382.22   34.69  -5
  -6  -6   8  382.22   34.69  -4
   2  -6  -8  382.22   34.69  -3
   6  -6   2  382.22   34.69  -2
  -8  -6   6  382.22   34.69   1
  -2   6  -6  403.84   23.19  -6
   8   6  -2  403.84   23.19  -5
  -6   6   8  403.84   23.19  -4
   2   6  -8  403.84   23.19  -3
   6   6   2  403.84   23.19  -2
  -8   6   6  403.84   23.19   1
  -1  -6  -6  611.15   36.40  -6
   7  -6  -1  611.15   36.40  -5
  -6  -6   7  611.15   36.40  -4
   1  -6  -7  611.15   36.40  -3
   6  -6   1  611.15   36.40  -2
  -7  -6   6  611.15   36.40   1
  -1   6  -6  520.84   29.88  -6
   7   6  -1  520.84   29.88  -5
  -6   6   7  520.84   29.88  -4
   1   6  -7  520.84   29.88  -3
   6   6   1  520.84   29.88  -2
  -7   6   6  520.84   29.88   1
   0  -6  -6  774.34   35.61  -6
   6  -6   0  774.34   35.61  -5
  -6  -6   6  774.34   35.61  -4
   0  -6  -6  774.34   35.61  -3
   6  -6   0  774.34   35.61  -2
  -6  -6   6  774.34   35.61   1
   0   6  -6  678.44   28.83  -6
   6   6   0  678.44   28.83  -5
  -6   6   6  678.44   28.83  -4
   0   6  -6  678.44   28.83  -3
   6   6   0  678.44   28.83  -2
  -6   6   6  678.44   28.83   1
   1  -6  -6 1191.94   37.47  -6
   5  -6   1 1191.94   37.47  -5
  -6  -6   5 1191.94   37.47  -4
  -1  -6  -5 1191.94   37.47  -3
   6  -6  -1 1191.94   37.47  -2
  -5  -6   6 1191.94   37.47   1
   1   6  -6 1212.29   33.43  -6
   5   6   1 1212.29   33.43  -5
  -6   6   5 1212.29   33.43  -4
  -1   6  -5 1212.29   33.43  -3
   6   6  -1 1212.29   33.43  -2
  -5   6   6 1212.29   33.43   1
   2  -6  -6 1133.67   35.32  -6
   4  -6   2 1133.67   35.32  -5
  -6  -6   4 1133.67   35.32  -4
  -2  -6  -4 1133.67   35.32  -3
   6  -6  -2 1133.67   35.32  -2
  -4  -6   6 1133.67   35.32   1
   2   6  -6 1088.45   31.32  -6
   4   6   2 1088.45   31.32  -5
  -6   6   4 1088.45   31.32  -4
  -2   6  -4 1088.45   31.32  -3
   6   6  -2 1088.45   31.32  -2
  -4   6   6 1088.45   31.32   1
   3  -6  -6  894.57   31.71  -6
   3  -6   3  894.57   31.71  -5
  -6  -6   3  894.57   31.71  -4
  -3  -6  -3  894.57   31.71  -3
   6  -6  -3  894.57   31.71  -2
  -3  -6   6  894.57   31.71   1
   4  -6  -6 1086.17   31.91  -6
   2  -6   4 1086.17   31.91  -5
  -6  -6   2 1086.17   31.91  -4
  -4  -6  -2 1086.17   31.91  -3
   6  -6  -4 1086.17   31.91  -2
  -2  -6   6 1086.17   31.91   1
   4   6  -6 1254.71   29.16  -6
   2   6   4 1254.71   29.16  -5
  -6   6   2 1254.71   29.16  -4
  -4   6  -2 1254.71   29.16  -3
   6   6  -4 1254.71   29.16  -2
  -2   6   6 1254.71   29.16   1
   5  -6  -6 1178.89   22.15  -6
   1  -6   5 1178.89   22.15  -5
  -6  -6   1 1178.89   22.15  -4
  -5  -6  -1 1178.89   22.15  -3
   6  -6  -5 1178.89   22.15  -2
  -1  -6   6 1178.89   22.15   1
   6  -6  -6  781.97   32.89  -6
   0  -6   6  781.97   32.89  -5
  -6  -6   0  781.97   32.89  -4
  -6  -6   0  781.97   32.89  -3
   6  -6  -6  781.97   32.89  -2
   0  -6   6  781.97   32.89   1
   6   6  -6  804.65   34.30  -6
   0   6   6  804.65   34.30  -5
  -6   6   0  804.65   34.30  -4
  -6   6   0  804.65   34.30  -3
   6   6  -6  804.65   34.30  -2
   0   6   6  804.65   34.30   1
   7  -6  -6  630.88   32.50  -6
  -1  -6   7  630.88   32.50  -5
  -6  -6  -1  630.88   32.50  -4
  -7  -6   1  630.88   32.50  -3
   6  -6  -7  630.88   32.50  -2
   1  -6   6  630.88   32.50   1
   7   6  -6  572.28   32.71  -6
  -1   6   7  572.28   32.71  -5
  -6   6  -1  572.28   32.71  -4
  -7   6   1  572.28   32.71  -3
   6   6  -7  572.28   32.71  -2
   1   6   6  572.28   32.71   1
   8  -6  -6  419.76   35.47  -6
  -2  -6   8  419.76   35.47  -5
  -6  -6  -2  419.76   35.47  -4
  -8  -6   2  419.76   35.47  -3
   6  -6  -8  419.76   35.47  -2
   2  -6   6  419.76   35.47   1
   8   6  -6  483.44   36.66  -6
  -2   6   8  483.44   36.66  -5
  -6   6  -2  483.44   36.66  -4
  -8   6   2  483.44   36.66  -3
   6   6  -8  483.44   36.66  -2
   2   6   6  483.44   36.66   1
   9  -6  -6  326.51   38.20  -6
  -3  -6   9  326.51   38.20  -5
  -6  -6  -3  326.51   38.20  -4
  -9  -6   3  326.51   38.20  -3
   6  -6  -9  326.51   38.20  -2
   3  -6   6  326.51   38.20   1
   9   6  -6  358.26   39.60  -6
  -3   6   9  358.26   39.60  -5
  -6   6  -3  358.26   39.60  -4
  -9   6   3  358.26   39.60  -3
   6   6  -9  358.26   39.60  -2
   3   6   6  358.26   39.60   1
  -3  -7  -6  258.40   34.22  -6
   9  -7  -3  258.40   34.22  -5
  -6  -7   9  258.40   34.22  -4
   3  -7  -9  258.40   34.22  -3
   6  -7   3  258.40   34.22  -2
  -9  -7   6  258.40   34.22   1
  -2  -7  -6  508.14   38.83  -6
   8  -7  -2  508.14   38.83  -5
  -6  -7   8  508.14   38.83  -4
   2  -7  -8  508.14   38.83  -3
   6  -7   2  508.14   38.83  -2
  -8  -7   6  508.14   38.83   1
  -2   7  -6  737.41   19.06  -6
   8   7  -2  737.41   19.06  -5
  -6   7   8  737.41   19.06  -4
   2   7  -8  737.41   19.06  -3
   6   7   2  737.41   19.06  -2
  -8   7   6  737.41   19.06   1
  -1  -7  -6  625.92   36.66  -6
   7  -7  -1  625.92   36.66  -5
  -6  -7   7  625.92   36.66  -4
   1  -7  -7  625.92   36.66  -3
   6  -7   1  625.92   36.66  -2
  -7  -7   6  625.92   36.66   1
  -1   7  -6  931.09   32.78  -6
   7   7  -1  931.09   32.78  -5
  -6   7   7  931.09   32.78  -4
   1   7  -7  931.09   32.78  -3
   6   7   1  931.09   32.78  -2
  -7   7   6  931.09   32.78   1
   0  -7  -6  723.00   37.78  -6
   6  -7   0  723.00   37.78  -5
  -6  -7   6  723.00   37.78  -4
   0  -7  -6  723.00   37.78  -3
   6  -7   0  723.00   37.78  -2
  -6  -7   6  723.00   37.78   1
   0   7  -6 1215.10   34.24  -6
   6   7   0 1215.10   34.24  -5
  -6   7   6 1215.10   34.24  -4
   0   7  -6 1215.10   34.24  -3
   6   7   0 1215.10   34.24  -2
  -6   7   6 1215.10   34.24   1
   1  -7  -6 1321.05   39.27  -6
   5  -7   1 1321.05   39.27  -5
  -6  -7   5 1321.05   39.27  -4
  -1  -7  -5 1321.05   39.27  -3
   6  -7  -1 1321.05   39.27  -2
  -5  -7   6 1321.05   39.27   1
   1   7  -6 1587.73   33.51  -6
   5   7   1 1587.73   33.51  -5
  -6   7   5 1587.73   33.51  -4
  -1   7  -5 1587.73   33.51  -3
   6   7  -1 1587.73   33.51  -2
  -5   7   6 1587.73   33.51   1
   2  -7  -6 1578.43   38.64  -6
   4  -7   2 1578.43   38.64  -5
  -6  -7   4 1578.43   38.64  -4
  -2  -7  -4 1578.43   38.64  -3
   6  -7  -2 1578.43   38.64  -2
  -4  -7   6 1578.43   38.64   1
   2   7  -6 1657.36   34.36  -6
   4   7   2 1657.36   34.36  -5
  -6   7   4 1657.36   34.36  -4
  -2   7  -4 1657.36   34.36  -3
   6   7  -2 1657.36   34.36  -2
  -4   7   6 1657.36   34.36   1
   3  -7  -6 1199.88   34.03  -6
   3  -7   3 1199.88   34.03  -5
  -6  -7   3 1199.88   34.03  -4
  -3  -7  -3 1199.88   34.03  -3
   6  -7  -3 1199.88   34.03  -2
  -3  -7   6 1199.88   34.03   1
   3   7  -6 1232.00   29.14  -6
   3   7   3 1232.00   29.14  -5
  -6   7   3 1232.00   29.14  -4
  -3   7  -3 1232.00   29.14  -3
   6   7  -3 1232.00   29.14  -2
  -3   7   6 1232.00   29.14   1
   4  -7  -6 1392.12   19.99  -6
   2  -7   4 1392.12   19.99  -5
  -6  -7   2 1392.12   19.99  -4
  -4  -7  -2 1392.12   19.99  -3
   6  -7  -4 1392.12   19.99  -2
  -2  -7   6 1392.12   19.99   1
   5  -7  -6 1333.68   23.82  -6
   1  -7   5 1333.68   23.82  -5
  -6  -7   1 1333.68   23.82  -4
  -5  -7  -1 1333.68   23.82  -3
   6  -7  -5 1333.68   23.82  -2
  -1  -7   6 1333.68   23.82   1
   5   7  -6 1313.11   30.57  -6
   1   7   5 1313.11   30.57  -5
  -6   7   1 1313.11   30.57  -4
  -5   7  -1 1313.11   30.57  -3
   6   7  -5 1313.11   30.57  -2
  -1   7   6 1313.11   30.57   1
   6  -7  -6  941.64   20.72  -6
   0  -7   6  941.64   20.72  -5
  -6  -7   0  941.64   20.72  -4
  -6  -7   0  941.64   20.72  -3
   6  -7  -6  941.64   20.72  -2
   0  -7   6  941.64   20.72   1
   6   7  -6  987.71   32.45  -6
   0   7   6  987.71   32.45  -5
  -6   7   0  987.71   32.45  -4
  -6   7   0  987.71   32.45  -3
   6   7  -6  987.71   32.45  -2
   0   7   6  987.71   32.45   1
   7  -7  -6  826.74   34.43  -6
  -1  -7   7  826.74   34.43  -5
  -6  -7  -1  826.74   34.43  -4
  -7  -7   1  826.74   34.43  -3
   6  -7  -7  826.74   34.43  -2
   1  -7   6  826.74   34.43   1
   7   7  -6  964.33   36.46  -6
  -1   7   7  964.33   36.46  -5
  -6   7  -1  964.33   36.46  -4
  -7   7   1  964.33   36.46  -3
   6   7  -7  964.33   36.46  -2
   1   7   6  964.33   36.46   1
   8  -7  -6  902.98   38.32  -6
  -2  -7   8  902.98   38.32  -5
  -6  -7  -2  902.98   38.32  -4
  -8  -7   2  902.98   38.32  -3
   6  -7  -8  902.98   38.32  -2
   2  -7   6  902.98   38.32   1
   8   7  -6 1091.93   39.41  -6
  -2   7   8 1091.93   39.41  -5
  -6   7  -2 1091.93   39.41  -4
  -8   7   2 1091.93   39.41  -3
   6   7  -8 1091.93   39.41  -2
   2   7   6 1091.93   39.41   1
   9  -7  -6  605.55   40.64  -6
  -3  -7   9  605.55   40.64  -5
  -6  -7  -3  605.55   40.64  -4
  -9  -7   3  605.55   40.64  -3
   6  -7  -9  605.55   40.64  -2
   3  -7   6  605.55   40.64   1
   9   7  -6  731.34   43.14  -6
  -3   7   9  731.34   43.14  -5
  -6   7  -3  731.34   43.14  -4
  -9   7   3  731.34   43.14  -3
   6   7  -9  731.34   43.14  -2
   3   7   6  731.34   43.14   1
  -2  -8  -6  267.76   35.28  -6
   8  -8  -2  267.76   35.28  -5
  -6  -8   8  267.76   35.28  -4
   2  -8  -8  267.76   35.28  -3
   6  -8   2  267.76   35.28  -2
  -8  -8   6  267.76   35.28   1
  -2   8  -6  300.32   21.46  -6
   8   8  -2  300.32   21.46  -5
  -6   8   8  300.32   21.46  -4
   2   8  -8  300.32   21.46  -3
   6   8   2  300.32   21.46  -2
  -8   8   6  300.32   21.46   1
  -1  -8  -6  357.45   36.24  -6
   7  -8  -1  357.45   36.24  -5
  -6  -8   7  357.45   36.24  -4
   1  -8  -7  357.45   36.24  -3
   6  -8   1  357.45   36.24  -2
  -7  -8   6  357.45   36.24   1
  -1   8  -6  289.85   20.34  -6
   7   8  -1  289.85   20.34  -5
  -6   8   7  289.85   20.34  -4
   1   8  -7  289.85   20.34  -3
   6   8   1  289.85   20.34  -2
  -7   8   6  289.85   20.34   1
   0  -8  -6  598.42   35.59  -6
   6  -8   0  598.42   35.59  -5
  -6  -8   6  598.42   35.59  -4
   0  -8  -6  598.42   35.59  -3
   6  -8   0  598.42   35.59  -2
  -6  -8   6  598.42   35.59   1
   0   8  -6  624.67   31.06  -6
   6   8   0  624.67   31.06  -5
  -6   8   6  624.67   31.06  -4
   0   8  -6  624.67   31.06  -3
   6   8   0  624.67   31.06  -2
  -6   8   6  624.67   31.06   1
   1  -8  -6  893.32   37.14  -6
   5  -8   1  893.32   37.14  -5
  -6  -8   5  893.32   37.14  -4
  -1  -8  -5  893.32   37.14  -3
   6  -8  -1  893.32   37.14  -2
  -5  -8   6  893.32   37.14   1
   1   8  -6  753.00   28.36  -6
   5   8   1  753.00   28.36  -5
  -6   8   5  753.00   28.36  -4
  -1   8  -5  753.00   28.36  -3
   6   8  -1  753.00   28.36  -2
  -5   8   6  753.00   28.36   1
   2  -8  -6  638.57   32.27  -6
   4  -8   2  638.57   32.27  -5
  -6  -8   4  638.57   32.27  -4
  -2  -8  -4  638.57   32.27  -3
   6  -8  -2  638.57   32.27  -2
  -4  -8   6  638.57   32.27   1
   2   8  -6  672.19   31.70  -6
   4   8   2  672.19   31.70  -5
  -6   8   4  672.19   31.70  -4
  -2   8  -4  672.19   31.70  -3
   6   8  -2  672.19   31.70  -2
  -4   8   6  672.19   31.70   1
   3  -8  -6  804.51   26.27  -6
   3  -8   3  804.51   26.27  -5
  -6  -8   3  804.51   26.27  -4
  -3  -8  -3  804.51   26.27  -3
   6  -8  -3  804.51   26.27  -2
  -3  -8   6  804.51   26.27   1
   3   8  -6  927.26   26.42  -6
   3   8   3  927.26   26.42  -5
  -6   8   3  927.26   26.42  -4
  -3   8  -3  927.26   26.42  -3
   6   8  -3  927.26   26.42  -2
  -3   8   6  927.26   26.42   1
   4  -8  -6  670.51   18.16  -6
   2  -8   4  670.51   18.16  -5
  -6  -8   2  670.51   18.16  -4
  -4  -8  -2  670.51   18.16  -3
   6  -8  -4  670.51   18.16  -2
  -2  -8   6  670.51   18.16   1
   5  -8  -6  789.51   22.41  -6
   1  -8   5  789.51   22.41  -5
  -6  -8   1  789.51   22.41  -4
  -5  -8  -1  789.51   22.41  -3
   6  -8  -5  789.51   22.41  -2
  -1  -8   6  789.51   22.41   1
   6  -8  -6  554.27   19.78  -6
   0  -8   6  554.27   19.78  -5
  -6  -8   0  554.27   19.78  -4
  -6  -8   0  554.27   19.78  -3
   6  -8  -6  554.27   19.78  -2
   0  -8   6  554.27   19.78   1
   6   8  -6  562.63   29.44  -6
   0   8   6  562.63   29.44  -5
  -6   8   0  562.63   29.44  -4
  -6   8   0  562.63   29.44  -3
   6   8  -6  562.63   29.44  -2
   0   8   6  562.63   29.44   1
   7  -8  -6  365.77   34.51  -6
  -1  -8   7  365.77   34.51  -5
  -6  -8  -1  365.77   34.51  -4
  -7  -8   1  365.77   34.51  -3
   6  -8  -7  365.77   34.51  -2
   1  -8   6  365.77   34.51   1
   7   8  -6  316.61   31.94  -6
  -1   8   7  316.61   31.94  -5
  -6   8  -1  316.61   31.94  -4
  -7   8   1  316.61   31.94  -3
   6   8  -7  316.61   31.94  -2
   1   8   6  316.61   31.94   1
   8  -8  -6  294.54   34.76  -6
  -2  -8   8  294.54   34.76  -5
  -6  -8  -2  294.54   34.76  -4
  -8  -8   2  294.54   34.76  -3
   6  -8  -8  294.54   34.76  -2
   2  -8   6  294.54   34.76   1
   8   8  -6  361.29   35.18  -6
  -2   8   8  361.29   35.18  -5
  -6   8  -2  361.29   35.18  -4
  -8   8   2  361.29   35.18  -3
   6   8  -8  361.29   35.18  -2
   2   8   6  361.29   35.18   1
   9  -8  -6  313.08   37.96  -6
  -3  -8   9  313.08   37.96  -5
  -6  -8  -3  313.08   37.96  -4
  -9  -8   3  313.08   37.96  -3
   6  -8  -9  313.08   37.96  -2
   3  -8   6  313.08   37.96   1
   9   8  -6  282.46   40.57  -6
  -3   8   9  282.46   40.57  -5
  -6   8  -3  282.46   40.57  -4
  -9   8   3  282.46   40.57  -3
   6   8  -9  282.46   40.57  -2
   3   8   6  282.46   40.57   1
  -2  -9  -6  355.48   38.28  -6
   8  -9  -2  355.48   38.28  -5
  -6  -9   8  355.48   38.28  -4
   2  -9  -8  355.48   38.28  -3
   6  -9   2  355.48   38.28  -2
  -8  -9   6  355.48   38.28   1
  -2   9  -6  410.10   28.19  -6
   8   9  -2  410.10   28.19  -5
  -6   9   8  410.10   28.19  -4
   2   9  -8  410.10   28.19  -3
   6   9   2  410.10   28.19  -2
  -8   9   6  410.10   28.19   1
  -1   9  -6  590.31   23.89  -6
   7   9  -1  590.31   23.89  -5
  -6   9   7  590.31   23.89  -4
   1   9  -7  590.31   23.89  -3
   6   9   1  590.31   23.89  -2
  -7   9   6  590.31   23.89   1
   0  -9  -6  411.45   33.14  -6
   6  -9   0  411.45   33.14  -5
  -6  -9   6  411.45   33.14  -4
   0  -9  -6  411.45   33.14  -3
   6  -9   0  411.45   33.14  -2
  -6  -9   6  411.45   33.14   1
   0   9  -6  518.20   31.27  -6
   6   9   0  518.20   31.27  -5
  -6   9   6  518.20   31.27  -4
   0   9  -6  518.20   31.27  -3
   6   9   0  518.20   31.27  -2
  -6   9   6  518.20   31.27   1
   1  -9  -6  813.19   40.44  -6
   5  -9   1  813.19   40.44  -5
  -6  -9   5  813.19   40.44  -4
  -1  -9  -5  813.19   40.44  -3
   6  -9  -1  813.19   40.44  -2
  -5  -9   6  813.19   40.44   1
   1   9  -6  931.75   32.26  -6
   5   9   1  931.75   32.26  -5
  -6   9   5  931.75   32.26  -4
  -1   9  -5  931.75   32.26  -3
   6   9  -1  931.75   32.26  -2
  -5   9   6  931.75   32.26   1
   2  -9  -6  888.29   38.10  -6
   4  -9   2  888.29   38.10  -5
  -6  -9   4  888.29   38.10  -4
  -2  -9  -4  888.29   38.10  -3
   6  -9  -2  888.29   38.10  -2
  -4  -9   6  888.29   38.10   1
   2   9  -6  868.13   33.27  -6
   4   9   2  868.13   33.27  -5
  -6   9   4  868.13   33.27  -4
  -2   9  -4  868.13   33.27  -3
   6   9  -2  868.13   33.27  -2
  -4   9   6  868.13   33.27   1
   3  -9  -6  614.58   20.11  -6
   3  -9   3  614.58   20.11  -5
  -6  -9   3  614.58   20.11  -4
  -3  -9  -3  614.58   20.11  -3
   6  -9  -3  614.58   20.11  -2
  -3  -9   6  614.58   20.11   1
   4  -9  -6  879.24   20.51  -6
   2  -9   4  879.24   20.51  -5
  -6  -9   2  879.24   20.51  -4
  -4  -9  -2  879.24   20.51  -3
   6  -9  -4  879.24   20.51  -2
  -2  -9   6  879.24   20.51   1
   4   9  -6  812.71   25.71  -6
   2   9   4  812.71   25.71  -5
  -6   9   2  812.71   25.71  -4
  -4   9  -2  812.71   25.71  -3
   6   9  -4  812.71   25.71  -2
  -2   9   6  812.71   25.71   1
   5  -9  -6  867.73   22.25  -6
   1  -9   5  867.73   22.25  -5
  -6  -9   1  867.73   22.25  -4
  -5  -9  -1  867.73   22.25  -3
   6  -9  -5  867.73   22.25  -2
  -1  -9   6  867.73   22.25   1
   5   9  -6  896.92   29.34  -6
   1   9   5  896.92   29.34  -5
  -6   9   1  896.92   29.34  -4
  -5   9  -1  896.92   29.34  -3
   6   9  -5  896.92   29.34  -2
  -1   9   6  896.92   29.34   1
   6  -9  -6  470.69   19.75  -6
   0  -9   6  470.69   19.75  -5
  -6  -9   0  470.69   19.75  -4
  -6  -9   0  470.69   19.75  -3
   6  -9  -6  470.69   19.75  -2
   0  -9   6  470.69   19.75   1
   6   9  -6  504.88   30.18  -6
   0   9   6  504.88   30.18  -5
  -6   9   0  504.88   30.18  -4
  -6   9   0  504.88   30.18  -3
   6   9  -6  504.88   30.18  -2
   0   9   6  504.88   30.18   1
   7  -9  -6  620.60   36.76  -6
  -1  -9   7  620.60   36.76  -5
  -6  -9  -1  620.60   36.76  -4
  -7  -9   1  620.60   36.76  -3
   6  -9  -7  620.60   36.76  -2
   1  -9   6  620.60   36.76   1
   7   9  -6  715.30   33.88  -6
  -1   9   7  715.30   33.88  -5
  -6   9  -1  715.30   33.88  -4
  -7   9   1  715.30   33.88  -3
   6   9  -7  715.30   33.88  -2
   1   9   6  715.30   33.88   1
   8  -9  -6  525.11   28.30  -6
  -2  -9   8  525.11   28.30  -5
  -6  -9  -2  525.11   28.30  -4
  -8  -9   2  525.11   28.30  -3
   6  -9  -8  525.11   28.30  -2
   2  -9   6  525.11   28.30   1
   9  -9  -6  445.66   39.48  -6
  -3  -9   9  445.66   39.48  -5
  -6  -9  -3  445.66   39.48  -4
  -9  -9   3  445.66   39.48  -3
   6  -9  -9  445.66   39.48  -2
   3  -9   6  445.66   39.48   1
   9   9  -6  569.24   42.88  -6
  -3   9   9  569.24   42.88  -5
  -6   9  -3  569.24   42.88  -4
  -9   9   3  569.24   42.88  -3
   6   9  -9  569.24   42.88  -2
   3   9   6  569.24   42.88   1
  -2  10  -6  354.73   30.28  -6
   8  10  -2  354.73   30.28  -5
  -6  10   8  354.73   30.28  -4
   2  10  -8  354.73   30.28  -3
   6  10   2  354.73   30.28  -2
  -8  10   6  354.73   30.28   1
  -1 -10  -6  272.32   36.22  -6
   7 -10  -1  272.32   36.22  -5
  -6 -10   7  272.32   36.22  -4
   1 -10  -7  272.32   36.22  -3
   6 -10   1  272.32   36.22  -2
  -7 -10   6  272.32   36.22   1
  -1  10  -6  269.87   22.14  -6
   7  10  -1  269.87   22.14  -5
  -6  10   7  269.87   22.14  -4
   1  10  -7  269.87   22.14  -3
   6  10   1  269.87   22.14  -2
  -7  10   6  269.87   22.14   1
   0 -10  -6  433.95   39.88  -6
   6 -10   0  433.95   39.88  -5
  -6 -10   6  433.95   39.88  -4
   0 -10  -6  433.95   39.88  -3
   6 -10   0  433.95   39.88  -2
  -6 -10   6  433.95   39.88   1
   0  10  -6  392.31   22.86  -6
   6  10   0  392.31   22.86  -5
  -6  10   6  392.31   22.86  -4
   0  10  -6  392.31   22.86  -3
   6  10   0  392.31   22.86  -2
  -6  10   6  392.31   22.86   1
   1 -10  -6  596.37   39.47  -6
   5 -10   1  596.37   39.47  -5
  -6 -10   5  596.37   39.47  -4
  -1 -10  -5  596.37   39.47  -3
   6 -10  -1  596.37   39.47  -2
  -5 -10   6  596.37   39.47   1
   1  10  -6  585.43   32.56  -6
   5  10   1  585.43   32.56  -5
  -6  10   5  585.43   32.56  -4
  -1  10  -5  585.43   32.56  -3
   6  10  -1  585.43   32.56  -2
  -5  10   6  585.43   32.56   1
   2 -10  -6  626.25   24.83  -6
   4 -10   2  626.25   24.83  -5
  -6 -10   4  626.25   24.83  -4
  -2 -10  -4  626.25   24.83  -3
   6 -10  -2  626.25   24.83  -2
  -4 -10   6  626.25   24.83   1
   3 -10  -6  569.27   21.82  -6
   3 -10   3  569.27   21.82  -5
  -6 -10   3  569.27   21.82  -4
  -3 -10  -3  569.27   21.82  -3
   6 -10  -3  569.27   21.82  -2
  -3 -10   6  569.27   21.82   1
   4 -10  -6  714.53   21.88  -6
   2 -10   4  714.53   21.88  -5
  -6 -10   2  714.53   21.88  -4
  -4 -10  -2  714.53   21.88  -3
   6 -10  -4  714.53   21.88  -2
  -2 -10   6  714.53   21.88   1
   5 -10  -6  609.41   21.97  -6
   1 -10   5  609.41   21.97  -5
  -6 -10   1  609.41   21.97  -4
  -5 -10  -1  609.41   21.97  -3
   6 -10  -5  609.41   21.97  -2
  -1 -10   6  609.41   21.97   1
   6 -10  -6  405.66   20.45  -6
   0 -10   6  405.66   20.45  -5
  -6 -10   0  405.66   20.45  -4
  -6 -10   0  405.66   20.45  -3
   6 -10  -6  405.66   20.45  -2
   0 -10   6  405.66   20.45   1
   7 -10  -6  295.58   37.80  -6
  -1 -10   7  295.58   37.80  -5
  -6 -10  -1  295.58   37.80  -4
  -7 -10   1  295.58   37.80  -3
   6 -10  -7  295.58   37.80  -2
   1 -10   6  295.58   37.80   1
   8 -10  -6  305.82   34.92  -6
  -2 -10   8  305.82   34.92  -5
  -6 -10  -2  305.82   34.92  -4
  -8 -10   2  305.82   34.92  -3
   6 -10  -8  305.82   34.92  -2
   2 -10   6  305.82   34.92   1
  -2  11  -6  622.79   38.93  -6
   8  11  -2  622.79   38.93  -5
  -6  11   8  622.79   38.93  -4
   2  11  -8  622.79   38.93  -3
   6  11   2  622.79   38.93  -2
  -8  11   6  622.79   38.93   1
  -1  11  -6  537.52   33.58  -6
   7  11  -1  537.52   33.58  -5
  -6  11   7  537.52   33.58  -4
   1  11  -7  537.52   33.58  -3
   6  11   1  537.52   33.58  -2
  -7  11   6  537.52   33.58   1
   0 -11  -6  678.11   41.35  -6
   6 -11   0  678.11   41.35  -5
  -6 -11   6  678.11   41.35  -4
   0 -11  -6  678.11   41.35  -3
   6 -11   0  678.11   41.35  -2
  -6 -11   6  678.11   41.35   1
   0  11  -6  779.82   25.20  -6
   6  11   0  779.82   25.20  -5
  -6  11   6  779.82   25.20  -4
   0  11  -6  779.82   25.20  -3
   6  11   0  779.82   25.20  -2
  -6  11   6  779.82   25.20   1
   1 -11  -6  892.03   44.29  -6
   5 -11   1  892.03   44.29  -5
  -6 -11   5  892.03   44.29  -4
  -1 -11  -5  892.03   44.29  -3
   6 -11  -1  892.03   44.29  -2
  -5 -11   6  892.03   44.29   1
   1  11  -6  830.17   35.50  -6
   5  11   1  830.17   35.50  -5
  -6  11   5  830.17   35.50  -4
  -1  11  -5  830.17   35.50  -3
   6  11  -1  830.17   35.50  -2
  -5  11   6  830.17   35.50   1
   2 -11  -6 1056.42   27.65  -6
   4 -11   2 1056.42   27.65  -5
  -6 -11   4 1056.42   27.65  -4
  -2 -11  -4 1056.42   27.65  -3
   6 -11  -2 1056.42   27.65  -2
  -4 -11   6 1056.42   27.65   1
   3 -11  -6  851.67   24.42  -6
   3 -11   3  851.67   24.42  -5
  -6 -11   3  851.67   24.42  -4
  -3 -11  -3  851.67   24.42  -3
   6 -11  -3  851.67   24.42  -2
  -3 -11   6  851.67   24.42   1
   4 -11  -6 1042.04   20.44  -6
   2 -11   4 1042.04   20.44  -5
  -6 -11   2 1042.04   20.44  -4
  -4 -11  -2 1042.04   20.44  -3
   6 -11  -4 1042.04   20.44  -2
  -2 -11   6 1042.04   20.44   1
   5 -11  -6  923.34   24.07  -6
   1 -11   5  923.34   24.07  -5
  -6 -11   1  923.34   24.07  -4
  -5 -11  -1  923.34   24.07  -3
   6 -11  -5  923.34   24.07  -2
  -1 -11   6  923.34   24.07   1
   6 -11  -6  771.58   23.40  -6
   0 -11   6  771.58   23.40  -5
  -6 -11   0  771.58   23.40  -4
  -6 -11   0  771.58   23.40  -3
   6 -11  -6  771.58   23.40  -2
   0 -11   6  771.58   23.40   1
   0  12  -6  239.72   35.06  -6
   6  12   0  239.72   35.06  -5
  -6  12   6  239.72   35.06  -4
   0  12  -6  239.72   35.06  -3
   6  12   0  239.72   35.06  -2
  -6  12   6  239.72   35.06   1
   1 -12  -6  518.50   38.68  -6
   5 -12   1  518.50   38.68  -5
  -6 -12   5  518.50   38.68  -4
  -1 -12  -5  518.50   38.68  -3
   6 -12  -1  518.50   38.68  -2
  -5 -12   6  518.50   38.68   1
   1  12  -6  477.79   27.00  -6
   5  12   1  477.79   27.00  -5
  -6  12   5  477.79   27.00  -4
  -1  12  -5  477.79   27.00  -3
   6  12  -1  477.79   27.00  -2
  -5  12   6  477.79   27.00   1
   2 -12  -6  721.02   27.45  -6
   4 -12   2  721.02   27.45  -5
  -6 -12   4  721.02   27.45  -4
  -2 -12  -4  721.02   27.45  -3
   6 -12  -2  721.02   27.45  -2
  -4 -12   6  721.02   27.45   1
   3 -12  -6  771.19   25.95  -6
   3 -12   3  771.19   25.95  -5
  -6 -12   3  771.19   25.95  -4
  -3 -12  -3  771.19   25.95  -3
   6 -12  -3  771.19   25.95  -2
  -3 -12   6  771.19   25.95   1
   4 -12  -6  759.46   25.92  -6
   2 -12   4  759.46   25.92  -5
  -6 -12   2  759.46   25.92  -4
  -4 -12  -2  759.46   25.92  -3
   6 -12  -4  759.46   25.92  -2
  -2 -12   6  759.46   25.92   1
   5 -12  -6  516.13   34.17  -6
   1 -12   5  516.13   34.17  -5
  -6 -12   1  516.13   34.17  -4
  -5 -12  -1  516.13   34.17  -3
   6 -12  -5  516.13   34.17  -2
  -1 -12   6  516.13   34.17   1
   1 -13  -6  568.18   39.50  -6
   5 -13   1  568.18   39.50  -5
  -6 -13   5  568.18   39.50  -4
  -1 -13  -5  568.18   39.50  -3
   6 -13  -1  568.18   39.50  -2
  -5 -13   6  568.18   39.50   1
   2 -13  -6  695.51   37.98  -6
   4 -13   2  695.51   37.98  -5
  -6 -13   4  695.51   37.98  -4
  -2 -13  -4  695.51   37.98  -3
   6 -13  -2  695.51   37.98  -2
  -4 -13   6  695.51   37.98   1
   3 -13  -6  707.42   27.09  -6
   3 -13   3  707.42   27.09  -5
  -6 -13   3  707.42   27.09  -4
  -3 -13  -3  707.42   27.09  -3
   6 -13  -3  707.42   27.09  -2
  -3 -13   6  707.42   27.09   1
   4 -13  -6  664.66   25.09  -6
   2 -13   4  664.66   25.09  -5
  -6 -13   2  664.66   25.09  -4
  -4 -13  -2  664.66   25.09  -3
   6 -13  -4  664.66   25.09  -2
  -2 -13   6  664.66   25.09   1
   5 -13  -6  686.22   37.76  -6
   1 -13   5  686.22   37.76  -5
  -6 -13   1  686.22   37.76  -4
  -5 -13  -1  686.22   37.76  -3
   6 -13  -5  686.22   37.76  -2
  -1 -13   6  686.22   37.76   1
   3 -14  -6  531.78   37.34  -6
   3 -14   3  531.78   37.34  -5
  -6 -14   3  531.78   37.34  -4
  -3 -14  -3  531.78   37.34  -3
   6 -14  -3  531.78   37.34  -2
  -3 -14   6  531.78   37.34   1
   5 -14  -6  411.62   38.68  -6
   1 -14   5  411.62   38.68  -5
  -6 -14   1  411.62   38.68  -4
  -5 -14  -1  411.62   38.68  -3
   6 -14  -5  411.62   38.68  -2
  -1 -14   6  411.62   38.68   1
  -3   0  -7  101.01   22.24  -6
  10   0  -3  101.01   22.24  -5
  -7   0  10  101.01   22.24  -4
   3   0 -10  101.01   22.24  -3
   7   0   3  101.01   22.24  -2
 -10   0   7  101.01   22.24   1
  -2   0  -7   88.03   19.18  -6
   9   0  -2   88.03   19.18  -5
  -7   0   9   88.03   19.18  -4
   2   0  -9   88.03   19.18  -3
   7   0   2   88.03   19.18  -2
  -9   0   7   88.03   19.18   1
  -1   0  -7  179.21   18.34  -6
   8   0  -1  179.21   18.34  -5
  -7   0   8  179.21   18.34  -4
   1   0  -8  179.21   18.34  -3
   7   0   1  179.21   18.34  -2
  -8   0   7  179.21   18.34   1
   0   0  -7  720.30   19.11  -6
   7   0   0  720.30   19.11  -5
  -7   0   7  720.30   19.11  -4
   0   0  -7  720.30   19.11  -3
   7   0   0  720.30   19.11  -2
  -7   0   7  720.30   19.11   1
   1   0  -7  784.96   17.42  -6
   6   0   1  784.96   17.42  -5
  -7   0   6  784.96   17.42  -4
  -1   0  -6  784.96   17.42  -3
   7   0  -1  784.96   17.42  -2
  -6   0   7  784.96   17.42   1
   2   0  -7  696.50   22.11  -6
   5   0   2  696.50   22.11  -5
  -7   0   5  696.50   22.11  -4
  -2   0  -5  696.50   22.11  -3
   7   0  -2  696.50   22.11  -2
  -5   0   7  696.50   22.11   1
   3   0  -7  648.17   31.29  -6
   4   0   3  648.17   31.29  -5
  -7   0   4  648.17   31.29  -4
  -3   0  -4  648.17   31.29  -3
   7   0  -3  648.17   31.29  -2
  -4   0   7  648.17   31.29   1
   4   0  -7  539.84   31.91  -6
   3   0   4  539.84   31.91  -5
  -7   0   3  539.84   31.91  -4
  -4   0  -3  539.84   31.91  -3
   7   0  -4  539.84   31.91  -2
  -3   0   7  539.84   31.91   1
   5   0  -7  887.16   23.71  -6
   2   0   5  887.16   23.71  -5
  -7   0   2  887.16   23.71  -4
  -5   0  -2  887.16   23.71  -3
   7   0  -5  887.16   23.71  -2
  -2   0   7  887.16   23.71   1
   6   0  -7  996.69   25.46  -6
   1   0   6  996.69   25.46  -5
  -7   0   1  996.69   25.46  -4
  -6   0  -1  996.69   25.46  -3
   7   0  -6  996.69   25.46  -2
  -1   0   7  996.69   25.46   1
   7   0  -7  770.58   27.09  -6
   0   0   7  770.58   27.09  -5
  -7   0   0  770.58   27.09  -4
  -7   0   0  770.58   27.09  -3
   7   0  -7  770.58   27.09  -2
   0   0   7  770.58   27.09   1
   8   0  -7  382.30   39.76  -6
  -1   0   8  382.30   39.76  -5
  -7   0  -1  382.30   39.76  -4
  -8   0   1  382.30   39.76  -3
   7   0  -8  382.30   39.76  -2
   1   0   7  382.30   39.76   1
   9   0  -7  143.31   35.02  -6
  -2   0   9  143.31   35.02  -5
  -7   0  -2  143.31   35.02  -4
  -9   0   2  143.31   35.02  -3
   7   0  -9  143.31   35.02  -2
   2   0   7  143.31   35.02   1
  10   0  -7  147.17   36.25  -6
  -3   0  10  147.17   36.25  -5
  -7   0  -3  147.17   36.25  -4
 -10   0   3  147.17   36.25  -3
   7   0 -10  147.17   36.25  -2
   3   0   7  147.17   36.25   1
  -3  -1  -7  206.39   24.42  -6
  10  -1  -3  206.39   24.42  -5
  -7  -1  10  206.39   24.42  -4
   3  -1 -10  206.39   24.42  -3
   7  -1   3  206.39   24.42  -2
 -10  -1   7  206.39   24.42   1
  -3   1  -7  232.51   23.94  -6
  10   1  -3  232.51   23.94  -5
  -7   1  10  232.51   23.94  -4
   3   1 -10  232.51   23.94  -3
   7   1   3  232.51   23.94  -2
 -10   1   7  232.51   23.94   1
  -2  -1  -7  469.25   23.29  -6
   9  -1  -2  469.25   23.29  -5
  -7  -1   9  469.25   23.29  -4
   2  -1  -9  469.25   23.29  -3
   7  -1   2  469.25   23.29  -2
  -9  -1   7  469.25   23.29   1
  -2   1  -7  513.71   22.44  -6
   9   1  -2  513.71   22.44  -5
  -7   1   9  513.71   22.44  -4
   2   1  -9  513.71   22.44  -3
   7   1   2  513.71   22.44  -2
  -9   1   7  513.71   22.44   1
  -1  -1  -7  906.37   21.81  -6
   8  -1  -1  906.37   21.81  -5
  -7  -1   8  906.37   21.81  -4
   1  -1  -8  906.37   21.81  -3
   7  -1   1  906.37   21.81  -2
  -8  -1   7  906.37   21.81   1
  -1   1  -7  938.66   22.66  -6
   8   1  -1  938.66   22.66  -5
  -7   1   8  938.66   22.66  -4
   1   1  -8  938.66   22.66  -3
   7   1   1  938.66   22.66  -2
  -8   1   7  938.66   22.66   1
   0  -1  -7 1477.63   20.92  -6
   7  -1   0 1477.63   20.92  -5
  -7  -1   7 1477.63   20.92  -4
   0  -1  -7 1477.63   20.92  -3
   7  -1   0 1477.63   20.92  -2
  -7  -1   7 1477.63   20.92   1
   0   1  -7 1507.91   22.51  -6
   7   1   0 1507.91   22.51  -5
  -7   1   7 1507.91   22.51  -4
   0   1  -7 1507.91   22.51  -3
   7   1   0 1507.91   22.51  -2
  -7   1   7 1507.91   22.51   1
   1  -1  -7 1520.27   27.68  -6
   6  -1   1 1520.27   27.68  -5
  -7  -1   6 1520.27   27.68  -4
  -1  -1  -6 1520.27   27.68  -3
   7  -1  -1 1520.27   27.68  -2
  -6  -1   7 1520.27   27.68   1
   1   1  -7 1523.28   30.31  -6
   6   1   1 1523.28   30.31  -5
  -7   1   6 1523.28   30.31  -4
  -1   1  -6 1523.28   30.31  -3
   7   1  -1 1523.28   30.31  -2
  -6   1   7 1523.28   30.31   1
   2  -1  -7  872.86   21.58  -6
   5  -1   2  872.86   21.58  -5
  -7  -1   5  872.86   21.58  -4
  -2  -1  -5  872.86   21.58  -3
   7  -1  -2  872.86   21.58  -2
  -5  -1   7  872.86   21.58   1
   2   1  -7  845.54   23.17  -6
   5   1   2  845.54   23.17  -5
  -7   1   5  845.54   23.17  -4
  -2   1  -5  845.54   23.17  -3
   7   1  -2  845.54   23.17  -2
  -5   1   7  845.54   23.17   1
   3   1  -7 1190.71   35.46  -6
   4   1   3 1190.71   35.46  -5
  -7   1   4 1190.71   35.46  -4
  -3   1  -4 1190.71   35.46  -3
   7   1  -3 1190.71   35.46  -2
  -4   1   7 1190.71   35.46   1
   4  -1  -7 1049.92   33.66  -6
   3  -1   4 1049.92   33.66  -5
  -7  -1   3 1049.92   33.66  -4
  -4  -1  -3 1049.92   33.66  -3
   7  -1  -4 1049.92   33.66  -2
  -3  -1   7 1049.92   33.66   1
   4   1  -7 1159.81   32.80  -6
   3   1   4 1159.81   32.80  -5
  -7   1   3 1159.81   32.80  -4
  -4   1  -3 1159.81   32.80  -3
   7   1  -4 1159.81   32.80  -2
  -3   1   7 1159.81   32.80   1
   5  -1  -7  929.01   24.25  -6
   2  -1   5  929.01   24.25  -5
  -7  -1   2  929.01   24.25  -4
  -5  -1  -2  929.01   24.25  -3
   7  -1  -5  929.01   24.25  -2
  -2  -1   7  929.01   24.25   1
   5   1  -7 1011.27   24.22  -6
   2   1   5 1011.27   24.22  -5
  -7   1   2 1011.27   24.22  -4
  -5   1  -2 1011.27   24.22  -3
   7   1  -5 1011.27   24.22  -2
  -2   1   7 1011.27   24.22   1
   6  -1  -7 1353.47   35.18  -6
   1  -1   6 1353.47   35.18  -5
  -7  -1   1 1353.47   35.18  -4
  -6  -1  -1 1353.47   35.18  -3
   7  -1  -6 1353.47   35.18  -2
  -1  -1   7 1353.47   35.18   1
   6   1  -7 1318.97   33.35  -6
   1   1   6 1318.97   33.35  -5
  -7   1   1 1318.97   33.35  -4
  -6   1  -1 1318.97   33.35  -3
   7   1  -6 1318.97   33.35  -2
  -1   1   7 1318.97   33.35   1
   7  -1  -7 1797.67   30.02  -6
   0  -1   7 1797.67   30.02  -5
  -7  -1   0 1797.67   30.02  -4
  -7  -1   0 1797.67   30.02  -3
   7  -1  -7 1797.67   30.02  -2
   0  -1   7 1797.67   30.02   1
   7   1  -7 1880.45   31.62  -6
   0   1   7 1880.45   31.62  -5
  -7   1   0 1880.45   31.62  -4
  -7   1   0 1880.45   31.62  -3
   7   1  -7 1880.45   31.62  -2
   0   1   7 1880.45   31.62   1
   8  -1  -7 1425.36   42.91  -6
  -1  -1   8 1425.36   42.91  -5
  -7  -1  -1 1425.36   42.91  -4
  -8  -1   1 1425.36   42.91  -3
   7  -1  -8 1425.36   42.91  -2
   1  -1   7 1425.36   42.91   1
   8   1  -7 1560.04   46.51  -6
  -1   1   8 1560.04   46.51  -5
  -7   1  -1 1560.04   46.51  -4
  -8   1   1 1560.04   46.51  -3
   7   1  -8 1560.04   46.51  -2
   1   1   7 1560.04   46.51   1
   9  -1  -7  743.78   39.01  -6
  -2  -1   9  743.78   39.01  -5
  -7  -1  -2  743.78   39.01  -4
  -9  -1   2  743.78   39.01  -3
   7  -1  -9  743.78   39.01  -2
   2  -1   7  743.78   39.01   1
   9   1  -7  791.47   40.03  -6
  -2   1   9  791.47   40.03  -5
  -7   1  -2  791.47   40.03  -4
  -9   1   2  791.47   40.03  -3
   7   1  -9  791.47   40.03  -2
   2   1   7  791.47   40.03   1
  10  -1  -7  635.11   41.03  -6
  -3  -1  10  635.11   41.03  -5
  -7  -1  -3  635.11   41.03  -4
 -10  -1   3  635.11   41.03  -3
   7  -1 -10  635.11   41.03  -2
   3  -1   7  635.11   41.03   1
  10   1  -7  637.59   39.83  -6
  -3   1  10  637.59   39.83  -5
  -7   1  -3  637.59   39.83  -4
 -10   1   3  637.59   39.83  -3
   7   1 -10  637.59   39.83  -2
   3   1   7  637.59   39.83   1
  -3  -2  -7   99.54   22.02  -6
  10  -2  -3   99.54   22.02  -5
  -7  -2  10   99.54   22.02  -4
   3  -2 -10   99.54   22.02  -3
   7  -2   3   99.54   22.02  -2
 -10  -2   7   99.54   22.02   1
  -2  -2  -7   78.89   18.92  -6
   9  -2  -2   78.89   18.92  -5
  -7  -2   9   78.89   18.92  -4
   2  -2  -9   78.89   18.92  -3
   7  -2   2   78.89   18.92  -2
  -9  -2   7   78.89   18.92   1
  -2   2  -7  110.25   20.17  -6
   9   2  -2  110.25   20.17  -5
  -7   2   9  110.25   20.17  -4
   2   2  -9  110.25   20.17  -3
   7   2   2  110.25   20.17  -2
  -9   2   7  110.25   20.17   1
  -1  -2  -7  286.89   17.40  -6
   8  -2  -1  286.89   17.40  -5
  -7  -2   8  286.89   17.40  -4
   1  -2  -8  286.89   17.40  -3
   7  -2   1  286.89   17.40  -2
  -8  -2   7  286.89   17.40   1
  -1   2  -7  315.18   20.03  -6
   8   2  -1  315.18   20.03  -5
  -7   2   8  315.18   20.03  -4
   1   2  -8  315.18   20.03  -3
   7   2   1  315.18   20.03  -2
  -8   2   7  315.18   20.03   1
   0  -2  -7  544.50   17.66  -6
   7  -2   0  544.50   17.66  -5
  -7  -2   7  544.50   17.66  -4
   0  -2  -7  544.50   17.66  -3
   7  -2   0  544.50   17.66  -2
  -7  -2   7  544.50   17.66   1
   0   2  -7  470.31   25.31  -6
   7   2   0  470.31   25.31  -5
  -7   2   7  470.31   25.31  -4
   0   2  -7  470.31   25.31  -3
   7   2   0  470.31   25.31  -2
  -7   2   7  470.31   25.31   1
   1  -2  -7  760.02   15.46  -6
   6  -2   1  760.02   15.46  -5
  -7  -2   6  760.02   15.46  -4
  -1  -2  -6  760.02   15.46  -3
   7  -2  -1  760.02   15.46  -2
  -6  -2   7  760.02   15.46   1
   1   2  -7  819.24   15.94  -6
   6   2   1  819.24   15.94  -5
  -7   2   6  819.24   15.94  -4
  -1   2  -6  819.24   15.94  -3
   7   2  -1  819.24   15.94  -2
  -6   2   7  819.24   15.94   1
   2  -2  -7  566.23   12.02  -6
   5  -2   2  566.23   12.02  -5
  -7  -2   5  566.23   12.02  -4
  -2  -2  -5  566.23   12.02  -3
   7  -2  -2  566.23   12.02  -2
  -5  -2   7  566.23   12.02   1
   2   2  -7  734.89   18.89  -6
   5   2   2  734.89   18.89  -5
  -7   2   5  734.89   18.89  -4
  -2   2  -5  734.89   18.89  -3
   7   2  -2  734.89   18.89  -2
  -5   2   7  734.89   18.89   1
   3   2  -7  767.07   31.20  -6
   4   2   3  767.07   31.20  -5
  -7   2   4  767.07   31.20  -4
  -3   2  -4  767.07   31.20  -3
   7   2  -3  767.07   31.20  -2
  -4   2   7  767.07   31.20   1
   4   2  -7  752.27   33.14  -6
   3   2   4  752.27   33.14  -5
  -7   2   3  752.27   33.14  -4
  -4   2  -3  752.27   33.14  -3
   7   2  -4  752.27   33.14  -2
  -3   2   7  752.27   33.14   1
   5  -2  -7  820.73   33.96  -6
   2  -2   5  820.73   33.96  -5
  -7  -2   2  820.73   33.96  -4
  -5  -2  -2  820.73   33.96  -3
   7  -2  -5  820.73   33.96  -2
  -2  -2   7  820.73   33.96   1
   5   2  -7  859.10   24.11  -6
   2   2   5  859.10   24.11  -5
  -7   2   2  859.10   24.11  -4
  -5   2  -2  859.10   24.11  -3
   7   2  -5  859.10   24.11  -2
  -2   2   7  859.10   24.11   1
   6  -2  -7  706.80   22.98  -6
   1  -2   6  706.80   22.98  -5
  -7  -2   1  706.80   22.98  -4
  -6  -2  -1  706.80   22.98  -3
   7  -2  -6  706.80   22.98  -2
  -1  -2   7  706.80   22.98   1
   6   2  -7  739.42   24.39  -6
   1   2   6  739.42   24.39  -5
  -7   2   1  739.42   24.39  -4
  -6   2  -1  739.42   24.39  -3
   7   2  -6  739.42   24.39  -2
  -1   2   7  739.42   24.39   1
   7  -2  -7  742.27   33.98  -6
   0  -2   7  742.27   33.98  -5
  -7  -2   0  742.27   33.98  -4
  -7  -2   0  742.27   33.98  -3
   7  -2  -7  742.27   33.98  -2
   0  -2   7  742.27   33.98   1
   7   2  -7  776.04   35.65  -6
   0   2   7  776.04   35.65  -5
  -7   2   0  776.04   35.65  -4
  -7   2   0  776.04   35.65  -3
   7   2  -7  776.04   35.65  -2
   0   2   7  776.04   35.65   1
   8  -2  -7  437.18   36.45  -6
  -1  -2   8  437.18   36.45  -5
  -7  -2  -1  437.18   36.45  -4
  -8  -2   1  437.18   36.45  -3
   7  -2  -8  437.18   36.45  -2
   1  -2   7  437.18   36.45   1
   8   2  -7  464.30   37.84  -6
  -1   2   8  464.30   37.84  -5
  -7   2  -1  464.30   37.84  -4
  -8   2   1  464.30   37.84  -3
   7   2  -8  464.30   37.84  -2
   1   2   7  464.30   37.84   1
   9  -2  -7  141.26   34.58  -6
  -2  -2   9  141.26   34.58  -5
  -7  -2  -2  141.26   34.58  -4
  -9  -2   2  141.26   34.58  -3
   7  -2  -9  141.26   34.58  -2
   2  -2   7  141.26   34.58   1
   9   2  -7  163.28   34.52  -6
  -2   2   9  163.28   34.52  -5
  -7   2  -2  163.28   34.52  -4
  -9   2   2  163.28   34.52  -3
   7   2  -9  163.28   34.52  -2
   2   2   7  163.28   34.52   1
  10   2  -7  115.42   34.48  -6
  -3   2  10  115.42   34.48  -5
  -7   2  -3  115.42   34.48  -4
 -10   2   3  115.42   34.48  -3
   7   2 -10  115.42   34.48  -2
   3   2   7  115.42   34.48   1
  -3  -3  -7  137.74   32.95  -6
  10  -3  -3  137.74   32.95  -5
  -7  -3  10  137.74   32.95  -4
   3  -3 -10  137.74   32.95  -3
   7  -3   3  137.74   32.95  -2
 -10  -3   7  137.74   32.95   1
  -2  -3  -7  423.20   21.80  -6
   9  -3  -2  423.20   21.80  -5
  -7  -3   9  423.20   21.80  -4
   2  -3  -9  423.20   21.80  -3
   7  -3   2  423.20   21.80  -2
  -9  -3   7  423.20   21.80   1
  -2   3  -7  463.95   23.70  -6
   9   3  -2  463.95   23.70  -5
  -7   3   9  463.95   23.70  -4
   2   3  -9  463.95   23.70  -3
   7   3   2  463.95   23.70  -2
  -9   3   7  463.95   23.70   1
  -1  -3  -7  708.28   19.75  -6
   8  -3  -1  708.28   19.75  -5
  -7  -3   8  708.28   19.75  -4
   1  -3  -8  708.28   19.75  -3
   7  -3   1  708.28   19.75  -2
  -8  -3   7  708.28   19.75   1
  -1   3  -7  659.50   21.92  -6
   8   3  -1  659.50   21.92  -5
  -7   3   8  659.50   21.92  -4
   1   3  -8  659.50   21.92  -3
   7   3   1  659.50   21.92  -2
  -8   3   7  659.50   21.92   1
   0  -3  -7 1036.91   17.88  -6
   7  -3   0 1036.91   17.88  -5
  -7  -3   7 1036.91   17.88  -4
   0  -3  -7 1036.91   17.88  -3
   7  -3   0 1036.91   17.88  -2
  -7  -3   7 1036.91   17.88   1
   0   3  -7 1079.91   18.01  -6
   7   3   0 1079.91   18.01  -5
  -7   3   7 1079.91   18.01  -4
   0   3  -7 1079.91   18.01  -3
   7   3   0 1079.91   18.01  -2
  -7   3   7 1079.91   18.01   1
   1  -3  -7 1131.83   22.34  -6
   6  -3   1 1131.83   22.34  -5
  -7  -3   6 1131.83   22.34  -4
  -1  -3  -6 1131.83   22.34  -3
   7  -3  -1 1131.83   22.34  -2
  -6  -3   7 1131.83   22.34   1
   1   3  -7 1152.44   22.01  -6
   6   3   1 1152.44   22.01  -5
  -7   3   6 1152.44   22.01  -4
  -1   3  -6 1152.44   22.01  -3
   7   3  -1 1152.44   22.01  -2
  -6   3   7 1152.44   22.01   1
   2  -3  -7  761.16   14.97  -6
   5  -3   2  761.16   14.97  -5
  -7  -3   5  761.16   14.97  -4
  -2  -3  -5  761.16   14.97  -3
   7  -3  -2  761.16   14.97  -2
  -5  -3   7  761.16   14.97   1
   2   3  -7 1094.71   21.07  -6
   5   3   2 1094.71   21.07  -5
  -7   3   5 1094.71   21.07  -4
  -2   3  -5 1094.71   21.07  -3
   7   3  -2 1094.71   21.07  -2
  -5   3   7 1094.71   21.07   1
   3   3  -7 1132.76   36.70  -6
   4   3   3 1132.76   36.70  -5
  -7   3   4 1132.76   36.70  -4
  -3   3  -4 1132.76   36.70  -3
   7   3  -3 1132.76   36.70  -2
  -4   3   7 1132.76   36.70   1
   4   3  -7 1192.95   39.21  -6
   3   3   4 1192.95   39.21  -5
  -7   3   3 1192.95   39.21  -4
  -4   3  -3 1192.95   39.21  -3
   7   3  -4 1192.95   39.21  -2
  -3   3   7 1192.95   39.21   1
   5   3  -7 1166.94   26.66  -6
   2   3   5 1166.94   26.66  -5
  -7   3   2 1166.94   26.66  -4
  -5   3  -2 1166.94   26.66  -3
   7   3  -5 1166.94   26.66  -2
  -2   3   7 1166.94   26.66   1
   6  -3  -7 1002.57   24.90  -6
   1  -3   6 1002.57   24.90  -5
  -7  -3   1 1002.57   24.90  -4
  -6  -3  -1 1002.57   24.90  -3
   7  -3  -6 1002.57   24.90  -2
  -1  -3   7 1002.57   24.90   1
   6   3  -7 1064.87   33.87  -6
   1   3   6 1064.87   33.87  -5
  -7   3   1 1064.87   33.87  -4
  -6   3  -1 1064.87   33.87  -3
   7   3  -6 1064.87   33.87  -2
  -1   3   7 1064.87   33.87   1
   7  -3  -7 1445.72   37.55  -6
   0  -3   7 1445.72   37.55  -5
  -7  -3   0 1445.72   37.55  -4
  -7  -3   0 1445.72   37.55  -3
   7  -3  -7 1445.72   37.55  -2
   0  -3   7 1445.72   37.55   1
   7   3  -7 1351.50   35.99  -6
   0   3   7 1351.50   35.99  -5
  -7   3   0 1351.50   35.99  -4
  -7   3   0 1351.50   35.99  -3
   7   3  -7 1351.50   35.99  -2
   0   3   7 1351.50   35.99   1
   8  -3  -7  780.99   38.60  -6
  -1  -3   8  780.99   38.60  -5
  -7  -3  -1  780.99   38.60  -4
  -8  -3   1  780.99   38.60  -3
   7  -3  -8  780.99   38.60  -2
   1  -3   7  780.99   38.60   1
   8   3  -7  863.40   36.23  -6
  -1   3   8  863.40   36.23  -5
  -7   3  -1  863.40   36.23  -4
  -8   3   1  863.40   36.23  -3
   7   3  -8  863.40   36.23  -2
   1   3   7  863.40   36.23   1
   9  -3  -7  698.62   39.37  -6
  -2  -3   9  698.62   39.37  -5
  -7  -3  -2  698.62   39.37  -4
  -9  -3   2  698.62   39.37  -3
   7  -3  -9  698.62   39.37  -2
   2  -3   7  698.62   39.37   1
   9   3  -7  833.11   40.11  -6
  -2   3   9  833.11   40.11  -5
  -7   3  -2  833.11   40.11  -4
  -9   3   2  833.11   40.11  -3
   7   3  -9  833.11   40.11  -2
   2   3   7  833.11   40.11   1
  10   3  -7  394.32   36.20  -6
  -3   3  10  394.32   36.20  -5
  -7   3  -3  394.32   36.20  -4
 -10   3   3  394.32   36.20  -3
   7   3 -10  394.32   36.20  -2
   3   3   7  394.32   36.20   1
  -3  -4  -7  120.51   34.88  -6
  10  -4  -3  120.51   34.88  -5
  -7  -4  10  120.51   34.88  -4
   3  -4 -10  120.51   34.88  -3
   7  -4   3  120.51   34.88  -2
 -10  -4   7  120.51   34.88   1
  -2  -4  -7  146.71   28.48  -6
   9  -4  -2  146.71   28.48  -5
  -7  -4   9  146.71   28.48  -4
   2  -4  -9  146.71   28.48  -3
   7  -4   2  146.71   28.48  -2
  -9  -4   7  146.71   28.48   1
  -2   4  -7  142.53   29.47  -6
   9   4  -2  142.53   29.47  -5
  -7   4   9  142.53   29.47  -4
   2   4  -9  142.53   29.47  -3
   7   4   2  142.53   29.47  -2
  -9   4   7  142.53   29.47   1
  -1  -4  -7  240.83   20.36  -6
   8  -4  -1  240.83   20.36  -5
  -7  -4   8  240.83   20.36  -4
   1  -4  -8  240.83   20.36  -3
   7  -4   1  240.83   20.36  -2
  -8  -4   7  240.83   20.36   1
  -1   4  -7  260.62   20.68  -6
   8   4  -1  260.62   20.68  -5
  -7   4   8  260.62   20.68  -4
   1   4  -8  260.62   20.68  -3
   7   4   1  260.62   20.68  -2
  -8   4   7  260.62   20.68   1
   0  -4  -7  442.86   13.85  -6
   7  -4   0  442.86   13.85  -5
  -7  -4   7  442.86   13.85  -4
   0  -4  -7  442.86   13.85  -3
   7  -4   0  442.86   13.85  -2
  -7  -4   7  442.86   13.85   1
   0   4  -7  425.17   16.37  -6
   7   4   0  425.17   16.37  -5
  -7   4   7  425.17   16.37  -4
   0   4  -7  425.17   16.37  -3
   7   4   0  425.17   16.37  -2
  -7   4   7  425.17   16.37   1
   1  -4  -7  648.66   16.53  -6
   6  -4   1  648.66   16.53  -5
  -7  -4   6  648.66   16.53  -4
  -1  -4  -6  648.66   16.53  -3
   7  -4  -1  648.66   16.53  -2
  -6  -4   7  648.66   16.53   1
   1   4  -7  701.44   20.98  -6
   6   4   1  701.44   20.98  -5
  -7   4   6  701.44   20.98  -4
  -1   4  -6  701.44   20.98  -3
   7   4  -1  701.44   20.98  -2
  -6   4   7  701.44   20.98   1
   2  -4  -7  652.36   34.76  -6
   5  -4   2  652.36   34.76  -5
  -7  -4   5  652.36   34.76  -4
  -2  -4  -5  652.36   34.76  -3
   7  -4  -2  652.36   34.76  -2
  -5  -4   7  652.36   34.76   1
   2   4  -7  584.58   26.31  -6
   5   4   2  584.58   26.31  -5
  -7   4   5  584.58   26.31  -4
  -2   4  -5  584.58   26.31  -3
   7   4  -2  584.58   26.31  -2
  -5   4   7  584.58   26.31   1
   3  -4  -7  473.52   31.18  -6
   4  -4   3  473.52   31.18  -5
  -7  -4   4  473.52   31.18  -4
  -3  -4  -4  473.52   31.18  -3
   7  -4  -3  473.52   31.18  -2
  -4  -4   7  473.52   31.18   1
   3   4  -7  819.76   38.48  -6
   4   4   3  819.76   38.48  -5
  -7   4   4  819.76   38.48  -4
  -3   4  -4  819.76   38.48  -3
   7   4  -3  819.76   38.48  -2
  -4   4   7  819.76   38.48   1
   4  -4  -7  375.14   30.03  -6
   3  -4   4  375.14   30.03  -5
  -7  -4   3  375.14   30.03  -4
  -4  -4  -3  375.14   30.03  -3
   7  -4  -4  375.14   30.03  -2
  -3  -4   7  375.14   30.03   1
   4   4  -7  626.74   38.29  -6
   3   4   4  626.74   38.29  -5
  -7   4   3  626.74   38.29  -4
  -4   4  -3  626.74   38.29  -3
   7   4  -4  626.74   38.29  -2
  -3   4   7  626.74   38.29   1
   5  -4  -7  894.41   35.22  -6
   2  -4   5  894.41   35.22  -5
  -7  -4   2  894.41   35.22  -4
  -5  -4  -2  894.41   35.22  -3
   7  -4  -5  894.41   35.22  -2
  -2  -4   7  894.41   35.22   1
   5   4  -7  781.32   31.22  -6
   2   4   5  781.32   31.22  -5
  -7   4   2  781.32   31.22  -4
  -5   4  -2  781.32   31.22  -3
   7   4  -5  781.32   31.22  -2
  -2   4   7  781.32   31.22   1
   6  -4  -7  760.95   33.59  -6
   1  -4   6  760.95   33.59  -5
  -7  -4   1  760.95   33.59  -4
  -6  -4  -1  760.95   33.59  -3
   7  -4  -6  760.95   33.59  -2
  -1  -4   7  760.95   33.59   1
   6   4  -7  702.90   31.58  -6
   1   4   6  702.90   31.58  -5
  -7   4   1  702.90   31.58  -4
  -6   4  -1  702.90   31.58  -3
   7   4  -6  702.90   31.58  -2
  -1   4   7  702.90   31.58   1
   7  -4  -7  568.42   33.47  -6
   0  -4   7  568.42   33.47  -5
  -7  -4   0  568.42   33.47  -4
  -7  -4   0  568.42   33.47  -3
   7  -4  -7  568.42   33.47  -2
   0  -4   7  568.42   33.47   1
   7   4  -7  556.04   35.20  -6
   0   4   7  556.04   35.20  -5
  -7   4   0  556.04   35.20  -4
  -7   4   0  556.04   35.20  -3
   7   4  -7  556.04   35.20  -2
   0   4   7  556.04   35.20   1
   8  -4  -7  377.86   36.72  -6
  -1  -4   8  377.86   36.72  -5
  -7  -4  -1  377.86   36.72  -4
  -8  -4   1  377.86   36.72  -3
   7  -4  -8  377.86   36.72  -2
   1  -4   7  377.86   36.72   1
   8   4  -7  336.13   34.37  -6
  -1   4   8  336.13   34.37  -5
  -7   4  -1  336.13   34.37  -4
  -8   4   1  336.13   34.37  -3
   7   4  -8  336.13   34.37  -2
   1   4   7  336.13   34.37   1
   9  -4  -7  242.78   36.14  -6
  -2  -4   9  242.78   36.14  -5
  -7  -4  -2  242.78   36.14  -4
  -9  -4   2  242.78   36.14  -3
   7  -4  -9  242.78   36.14  -2
   2  -4   7  242.78   36.14   1
   9   4  -7  340.96   38.15  -6
  -2   4   9  340.96   38.15  -5
  -7   4  -2  340.96   38.15  -4
  -9   4   2  340.96   38.15  -3
   7   4  -9  340.96   38.15  -2
   2   4   7  340.96   38.15   1
  -3  -5  -7  156.02   33.44  -6
  10  -5  -3  156.02   33.44  -5
  -7  -5  10  156.02   33.44  -4
   3  -5 -10  156.02   33.44  -3
   7  -5   3  156.02   33.44  -2
 -10  -5   7  156.02   33.44   1
  -2  -5  -7  373.22   24.63  -6
   9  -5  -2  373.22   24.63  -5
  -7  -5   9  373.22   24.63  -4
   2  -5  -9  373.22   24.63  -3
   7  -5   2  373.22   24.63  -2
  -9  -5   7  373.22   24.63   1
  -2   5  -7  431.72   35.24  -6
   9   5  -2  431.72   35.24  -5
  -7   5   9  431.72   35.24  -4
   2   5  -9  431.72   35.24  -3
   7   5   2  431.72   35.24  -2
  -9   5   7  431.72   35.24   1
  -1  -5  -7  507.14   22.99  -6
   8  -5  -1  507.14   22.99  -5
  -7  -5   8  507.14   22.99  -4
   1  -5  -8  507.14   22.99  -3
   7  -5   1  507.14   22.99  -2
  -8  -5   7  507.14   22.99   1
  -1   5  -7  462.15   31.90  -6
   8   5  -1  462.15   31.90  -5
  -7   5   8  462.15   31.90  -4
   1   5  -8  462.15   31.90  -3
   7   5   1  462.15   31.90  -2
  -8   5   7  462.15   31.90   1
   0  -5  -7  655.84   20.94  -6
   7  -5   0  655.84   20.94  -5
  -7  -5   7  655.84   20.94  -4
   0  -5  -7  655.84   20.94  -3
   7  -5   0  655.84   20.94  -2
  -7  -5   7  655.84   20.94   1
   1   5  -7 1274.22   25.56  -6
   6   5   1 1274.22   25.56  -5
  -7   5   6 1274.22   25.56  -4
  -1   5  -6 1274.22   25.56  -3
   7   5  -1 1274.22   25.56  -2
  -6   5   7 1274.22   25.56   1
   2  -5  -7 1049.92   35.71  -6
   5  -5   2 1049.92   35.71  -5
  -7  -5   5 1049.92   35.71  -4
  -2  -5  -5 1049.92   35.71  -3
   7  -5  -2 1049.92   35.71  -2
  -5  -5   7 1049.92   35.71   1
   2   5  -7 1316.94   31.93  -6
   5   5   2 1316.94   31.93  -5
  -7   5   5 1316.94   31.93  -4
  -2   5  -5 1316.94   31.93  -3
   7   5  -2 1316.94   31.93  -2
  -5   5   7 1316.94   31.93   1
   3  -5  -7 1394.26   37.77  -6
   4  -5   3 1394.26   37.77  -5
  -7  -5   4 1394.26   37.77  -4
  -3  -5  -4 1394.26   37.77  -3
   7  -5  -3 1394.26   37.77  -2
  -4  -5   7 1394.26   37.77   1
   4  -5  -7 1441.07   38.04  -6
   3  -5   4 1441.07   38.04  -5
  -7  -5   3 1441.07   38.04  -4
  -4  -5  -3 1441.07   38.04  -3
   7  -5  -4 1441.07   38.04  -2
  -3  -5   7 1441.07   38.04   1
   4   5  -7 1486.70   35.33  -6
   3   5   4 1486.70   35.33  -5
  -7   5   3 1486.70   35.33  -4
  -4   5  -3 1486.70   35.33  -3
   7   5  -4 1486.70   35.33  -2
  -3   5   7 1486.70   35.33   1
   5  -5  -7 1262.19   37.80  -6
   2  -5   5 1262.19   37.80  -5
  -7  -5   2 1262.19   37.80  -4
  -5  -5  -2 1262.19   37.80  -3
   7  -5  -5 1262.19   37.80  -2
  -2  -5   7 1262.19   37.80   1
   5   5  -7 1255.79   32.10  -6
   2   5   5 1255.79   32.10  -5
  -7   5   2 1255.79   32.10  -4
  -5   5  -2 1255.79   32.10  -3
   7   5  -5 1255.79   32.10  -2
  -2   5   7 1255.79   32.10   1
   6  -5  -7 1048.51   34.59  -6
   1  -5   6 1048.51   34.59  -5
  -7  -5   1 1048.51   34.59  -4
  -6  -5  -1 1048.51   34.59  -3
   7  -5  -6 1048.51   34.59  -2
  -1  -5   7 1048.51   34.59   1
   6   5  -7 1085.93   33.97  -6
   1   5   6 1085.93   33.97  -5
  -7   5   1 1085.93   33.97  -4
  -6   5  -1 1085.93   33.97  -3
   7   5  -6 1085.93   33.97  -2
  -1   5   7 1085.93   33.97   1
   7  -5  -7  869.72   25.20  -6
   0  -5   7  869.72   25.20  -5
  -7  -5   0  869.72   25.20  -4
  -7  -5   0  869.72   25.20  -3
   7  -5  -7  869.72   25.20  -2
   0  -5   7  869.72   25.20   1
   7   5  -7  877.24   39.36  -6
   0   5   7  877.24   39.36  -5
  -7   5   0  877.24   39.36  -4
  -7   5   0  877.24   39.36  -3
   7   5  -7  877.24   39.36  -2
   0   5   7  877.24   39.36   1
   8  -5  -7  945.40   40.32  -6
  -1  -5   8  945.40   40.32  -5
  -7  -5  -1  945.40   40.32  -4
  -8  -5   1  945.40   40.32  -3
   7  -5  -8  945.40   40.32  -2
   1  -5   7  945.40   40.32   1
   8   5  -7  922.94   38.48  -6
  -1   5   8  922.94   38.48  -5
  -7   5  -1  922.94   38.48  -4
  -8   5   1  922.94   38.48  -3
   7   5  -8  922.94   38.48  -2
   1   5   7  922.94   38.48   1
   9  -5  -7  636.88   39.27  -6
  -2  -5   9  636.88   39.27  -5
  -7  -5  -2  636.88   39.27  -4
  -9  -5   2  636.88   39.27  -3
   7  -5  -9  636.88   39.27  -2
   2  -5   7  636.88   39.27   1
   9   5  -7  708.75   40.56  -6
  -2   5   9  708.75   40.56  -5
  -7   5  -2  708.75   40.56  -4
  -9   5   2  708.75   40.56  -3
   7   5  -9  708.75   40.56  -2
   2   5   7  708.75   40.56   1
  -2  -6  -7  225.12   38.91  -6
   9  -6  -2  225.12   38.91  -5
  -7  -6   9  225.12   38.91  -4
   2  -6  -9  225.12   38.91  -3
   7  -6   2  225.12   38.91  -2
  -9  -6   7  225.12   38.91   1
  -1  -6  -7  171.52   20.18  -6
   8  -6  -1  171.52   20.18  -5
  -7  -6   8  171.52   20.18  -4
   1  -6  -8  171.52   20.18  -3
   7  -6   1  171.52   20.18  -2
  -8  -6   7  171.52   20.18   1
   0  -6  -7  337.63   34.33  -6
   7  -6   0  337.63   34.33  -5
  -7  -6   7  337.63   34.33  -4
   0  -6  -7  337.63   34.33  -3
   7  -6   0  337.63   34.33  -2
  -7  -6   7  337.63   34.33   1
   0   6  -7  334.01   30.91  -6
   7   6   0  334.01   30.91  -5
  -7   6   7  334.01   30.91  -4
   0   6  -7  334.01   30.91  -3
   7   6   0  334.01   30.91  -2
  -7   6   7  334.01   30.91   1
   1  -6  -7  505.75   35.92  -6
   6  -6   1  505.75   35.92  -5
  -7  -6   6  505.75   35.92  -4
  -1  -6  -6  505.75   35.92  -3
   7  -6  -1  505.75   35.92  -2
  -6  -6   7  505.75   35.92   1
   1   6  -7  497.16   30.23  -6
   6   6   1  497.16   30.23  -5
  -7   6   6  497.16   30.23  -4
  -1   6  -6  497.16   30.23  -3
   7   6  -1  497.16   30.23  -2
  -6   6   7  497.16   30.23   1
   2  -6  -7  534.13   33.73  -6
   5  -6   2  534.13   33.73  -5
  -7  -6   5  534.13   33.73  -4
  -2  -6  -5  534.13   33.73  -3
   7  -6  -2  534.13   33.73  -2
  -5  -6   7  534.13   33.73   1
   2   6  -7  567.98   29.99  -6
   5   6   2  567.98   29.99  -5
  -7   6   5  567.98   29.99  -4
  -2   6  -5  567.98   29.99  -3
   7   6  -2  567.98   29.99  -2
  -5   6   7  567.98   29.99   1
   3  -6  -7  842.13   34.23  -6
   4  -6   3  842.13   34.23  -5
  -7  -6   4  842.13   34.23  -4
  -3  -6  -4  842.13   34.23  -3
   7  -6  -3  842.13   34.23  -2
  -4  -6   7  842.13   34.23   1
   4  -6  -7  569.59   32.07  -6
   3  -6   4  569.59   32.07  -5
  -7  -6   3  569.59   32.07  -4
  -4  -6  -3  569.59   32.07  -3
   7  -6  -4  569.59   32.07  -2
  -3  -6   7  569.59   32.07   1
   4   6  -7  982.98   31.99  -6
   3   6   4  982.98   31.99  -5
  -7   6   3  982.98   31.99  -4
  -4   6  -3  982.98   31.99  -3
   7   6  -4  982.98   31.99  -2
  -3   6   7  982.98   31.99   1
   5  -6  -7  689.89   35.74  -6
   2  -6   5  689.89   35.74  -5
  -7  -6   2  689.89   35.74  -4
  -5  -6  -2  689.89   35.74  -3
   7  -6  -5  689.89   35.74  -2
  -2  -6   7  689.89   35.74   1
   5   6  -7  691.11   31.01  -6
   2   6   5  691.11   31.01  -5
  -7   6   2  691.11   31.01  -4
  -5   6  -2  691.11   31.01  -3
   7   6  -5  691.11   31.01  -2
  -2   6   7  691.11   31.01   1
   6  -6  -7  598.08   32.66  -6
   1  -6   6  598.08   32.66  -5
  -7  -6   1  598.08   32.66  -4
  -6  -6  -1  598.08   32.66  -3
   7  -6  -6  598.08   32.66  -2
  -1  -6   7  598.08   32.66   1
   6   6  -7  630.85   32.04  -6
   1   6   6  630.85   32.04  -5
  -7   6   1  630.85   32.04  -4
  -6   6  -1  630.85   32.04  -3
   7   6  -6  630.85   32.04  -2
  -1   6   7  630.85   32.04   1
   7  -6  -7  424.11   32.44  -6
   0  -6   7  424.11   32.44  -5
  -7  -6   0  424.11   32.44  -4
  -7  -6   0  424.11   32.44  -3
   7  -6  -7  424.11   32.44  -2
   0  -6   7  424.11   32.44   1
   7   6  -7  391.78   32.86  -6
   0   6   7  391.78   32.86  -5
  -7   6   0  391.78   32.86  -4
  -7   6   0  391.78   32.86  -3
   7   6  -7  391.78   32.86  -2
   0   6   7  391.78   32.86   1
   8  -6  -7  314.25   36.91  -6
  -1  -6   8  314.25   36.91  -5
  -7  -6  -1  314.25   36.91  -4
  -8  -6   1  314.25   36.91  -3
   7  -6  -8  314.25   36.91  -2
   1  -6   7  314.25   36.91   1
   8   6  -7  366.63   34.22  -6
  -1   6   8  366.63   34.22  -5
  -7   6  -1  366.63   34.22  -4
  -8   6   1  366.63   34.22  -3
   7   6  -8  366.63   34.22  -2
   1   6   7  366.63   34.22   1
   9  -6  -7  327.92   37.25  -6
  -2  -6   9  327.92   37.25  -5
  -7  -6  -2  327.92   37.25  -4
  -9  -6   2  327.92   37.25  -3
   7  -6  -9  327.92   37.25  -2
   2  -6   7  327.92   37.25   1
   9   6  -7  389.63   39.11  -6
  -2   6   9  389.63   39.11  -5
  -7   6  -2  389.63   39.11  -4
  -9   6   2  389.63   39.11  -3
   7   6  -9  389.63   39.11  -2
   2   6   7  389.63   39.11   1
  -1  -7  -7  363.10   36.18  -6
   8  -7  -1  363.10   36.18  -5
  -7  -7   8  363.10   36.18  -4
   1  -7  -8  363.10   36.18  -3
   7  -7   1  363.10   36.18  -2
  -8  -7   7  363.10   36.18   1
  -1   7  -7  466.34   33.25  -6
   8   7  -1  466.34   33.25  -5
  -7   7   8  466.34   33.25  -4
   1   7  -8  466.34   33.25  -3
   7   7   1  466.34   33.25  -2
  -8   7   7  466.34   33.25   1
   0  -7  -7  505.84   35.69  -6
   7  -7   0  505.84   35.69  -5
  -7  -7   7  505.84   35.69  -4
   0  -7  -7  505.84   35.69  -3
   7  -7   0  505.84   35.69  -2
  -7  -7   7  505.84   35.69   1
   0   7  -7  667.39   32.94  -6
   7   7   0  667.39   32.94  -5
  -7   7   7  667.39   32.94  -4
   0   7  -7  667.39   32.94  -3
   7   7   0  667.39   32.94  -2
  -7   7   7  667.39   32.94   1
   1  -7  -7  811.23   37.27  -6
   6  -7   1  811.23   37.27  -5
  -7  -7   6  811.23   37.27  -4
  -1  -7  -6  811.23   37.27  -3
   7  -7  -1  811.23   37.27  -2
  -6  -7   7  811.23   37.27   1
   1   7  -7  903.03   31.22  -6
   6   7   1  903.03   31.22  -5
  -7   7   6  903.03   31.22  -4
  -1   7  -6  903.03   31.22  -3
   7   7  -1  903.03   31.22  -2
  -6   7   7  903.03   31.22   1
   2  -7  -7 1471.58   42.52  -6
   5  -7   2 1471.58   42.52  -5
  -7  -7   5 1471.58   42.52  -4
  -2  -7  -5 1471.58   42.52  -3
   7  -7  -2 1471.58   42.52  -2
  -5  -7   7 1471.58   42.52   1
   2   7  -7 1482.88   36.66  -6
   5   7   2 1482.88   36.66  -5
  -7   7   5 1482.88   36.66  -4
  -2   7  -5 1482.88   36.66  -3
   7   7  -2 1482.88   36.66  -2
  -5   7   7 1482.88   36.66   1
   3  -7  -7 1481.66   41.58  -6
   4  -7   3 1481.66   41.58  -5
  -7  -7   4 1481.66   41.58  -4
  -3  -7  -4 1481.66   41.58  -3
   7  -7  -3 1481.66   41.58  -2
  -4  -7   7 1481.66   41.58   1
   4  -7  -7 1493.98   38.33  -6
   3  -7   4 1493.98   38.33  -5
  -7  -7   3 1493.98   38.33  -4
  -4  -7  -3 1493.98   38.33  -3
   7  -7  -4 1493.98   38.33  -2
  -3  -7   7 1493.98   38.33   1
   4   7  -7 1419.88   33.57  -6
   3   7   4 1419.88   33.57  -5
  -7   7   3 1419.88   33.57  -4
  -4   7  -3 1419.88   33.57  -3
   7   7  -4 1419.88   33.57  -2
  -3   7   7 1419.88   33.57   1
   5  -7  -7 1386.25   39.96  -6
   2  -7   5 1386.25   39.96  -5
  -7  -7   2 1386.25   39.96  -4
  -5  -7  -2 1386.25   39.96  -3
   7  -7  -5 1386.25   39.96  -2
  -2  -7   7 1386.25   39.96   1
   5   7  -7 1502.50   34.09  -6
   2   7   5 1502.50   34.09  -5
  -7   7   2 1502.50   34.09  -4
  -5   7  -2 1502.50   34.09  -3
   7   7  -5 1502.50   34.09  -2
  -2   7   7 1502.50   34.09   1
   6  -7  -7  848.38   23.08  -6
   1  -7   6  848.38   23.08  -5
  -7  -7   1  848.38   23.08  -4
  -6  -7  -1  848.38   23.08  -3
   7  -7  -6  848.38   23.08  -2
  -1  -7   7  848.38   23.08   1
   7  -7  -7  590.45   23.61  -6
   0  -7   7  590.45   23.61  -5
  -7  -7   0  590.45   23.61  -4
  -7  -7   0  590.45   23.61  -3
   7  -7  -7  590.45   23.61  -2
   0  -7   7  590.45   23.61   1
   7   7  -7  617.80   33.62  -6
   0   7   7  617.80   33.62  -5
  -7   7   0  617.80   33.62  -4
  -7   7   0  617.80   33.62  -3
   7   7  -7  617.80   33.62  -2
   0   7   7  617.80   33.62   1
   8  -7  -7  669.63   39.40  -6
  -1  -7   8  669.63   39.40  -5
  -7  -7  -1  669.63   39.40  -4
  -8  -7   1  669.63   39.40  -3
   7  -7  -8  669.63   39.40  -2
   1  -7   7  669.63   39.40   1
   8   7  -7  726.89   38.51  -6
  -1   7   8  726.89   38.51  -5
  -7   7  -1  726.89   38.51  -4
  -8   7   1  726.89   38.51  -3
   7   7  -8  726.89   38.51  -2
   1   7   7  726.89   38.51   1
   9  -7  -7  573.22   39.58  -6
  -2  -7   9  573.22   39.58  -5
  -7  -7  -2  573.22   39.58  -4
  -9  -7   2  573.22   39.58  -3
   7  -7  -9  573.22   39.58  -2
   2  -7   7  573.22   39.58   1
   9   7  -7  675.42   40.45  -6
  -2   7   9  675.42   40.45  -5
  -7   7  -2  675.42   40.45  -4
  -9   7   2  675.42   40.45  -3
   7   7  -9  675.42   40.45  -2
   2   7   7  675.42   40.45   1
  -1   8  -7  232.27   28.94  -6
   8   8  -1  232.27   28.94  -5
  -7   8   8  232.27   28.94  -4
   1   8  -8  232.27   28.94  -3
   7   8   1  232.27   28.94  -2
  -8   8   7  232.27   28.94   1
   0  -8  -7  219.90   36.36  -6
   7  -8   0  219.90   36.36  -5
  -7  -8   7  219.90   36.36  -4
   0  -8  -7  219.90   36.36  -3
   7  -8   0  219.90   36.36  -2
  -7  -8   7  219.90   36.36   1
   0   8  -7  249.54   29.87  -6
   7   8   0  249.54   29.87  -5
  -7   8   7  249.54   29.87  -4
   0   8  -7  249.54   29.87  -3
   7   8   0  249.54   29.87  -2
  -7   8   7  249.54   29.87   1
   1  -8  -7  290.10   35.74  -6
   6  -8   1  290.10   35.74  -5
  -7  -8   6  290.10   35.74  -4
  -1  -8  -6  290.10   35.74  -3
   7  -8  -1  290.10   35.74  -2
  -6  -8   7  290.10   35.74   1
   1   8  -7  251.58   27.11  -6
   6   8   1  251.58   27.11  -5
  -7   8   6  251.58   27.11  -4
  -1   8  -6  251.58   27.11  -3
   7   8  -1  251.58   27.11  -2
  -6   8   7  251.58   27.11   1
   2  -8  -7  415.84   35.75  -6
   5  -8   2  415.84   35.75  -5
  -7  -8   5  415.84   35.75  -4
  -2  -8  -5  415.84   35.75  -3
   7  -8  -2  415.84   35.75  -2
  -5  -8   7  415.84   35.75   1
   2   8  -7  454.36   33.19  -6
   5   8   2  454.36   33.19  -5
  -7   8   5  454.36   33.19  -4
  -2   8  -5  454.36   33.19  -3
   7   8  -2  454.36   33.19  -2
  -5   8   7  454.36   33.19   1
   3  -8  -7  451.74   35.09  -6
   4  -8   3  451.74   35.09  -5
  -7  -8   4  451.74   35.09  -4
  -3  -8  -4  451.74   35.09  -3
   7  -8  -3  451.74   35.09  -2
  -4  -8   7  451.74   35.09   1
   3   8  -7  707.39   30.86  -6
   4   8   3  707.39   30.86  -5
  -7   8   4  707.39   30.86  -4
  -3   8  -4  707.39   30.86  -3
   7   8  -3  707.39   30.86  -2
  -4   8   7  707.39   30.86   1
   4  -8  -7  535.48   19.27  -6
   3  -8   4  535.48   19.27  -5
  -7  -8   3  535.48   19.27  -4
  -4  -8  -3  535.48   19.27  -3
   7  -8  -4  535.48   19.27  -2
  -3  -8   7  535.48   19.27   1
   5  -8  -7  559.50   34.34  -6
   2  -8   5  559.50   34.34  -5
  -7  -8   2  559.50   34.34  -4
  -5  -8  -2  559.50   34.34  -3
   7  -8  -5  559.50   34.34  -2
  -2  -8   7  559.50   34.34   1
   5   8  -7  655.93   31.15  -6
   2   8   5  655.93   31.15  -5
  -7   8   2  655.93   31.15  -4
  -5   8  -2  655.93   31.15  -3
   7   8  -5  655.93   31.15  -2
  -2   8   7  655.93   31.15   1
   6  -8  -7  346.15   30.46  -6
   1  -8   6  346.15   30.46  -5
  -7  -8   1  346.15   30.46  -4
  -6  -8  -1  346.15   30.46  -3
   7  -8  -6  346.15   30.46  -2
  -1  -8   7  346.15   30.46   1
   6   8  -7  396.02   32.61  -6
   1   8   6  396.02   32.61  -5
  -7   8   1  396.02   32.61  -4
  -6   8  -1  396.02   32.61  -3
   7   8  -6  396.02   32.61  -2
  -1   8   7  396.02   32.61   1
   7  -8  -7  241.30   32.42  -6
   0  -8   7  241.30   32.42  -5
  -7  -8   0  241.30   32.42  -4
  -7  -8   0  241.30   32.42  -3
   7  -8  -7  241.30   32.42  -2
   0  -8   7  241.30   32.42   1
   7   8  -7  215.84   30.47  -6
   0   8   7  215.84   30.47  -5
  -7   8   0  215.84   30.47  -4
  -7   8   0  215.84   30.47  -3
   7   8  -7  215.84   30.47  -2
   0   8   7  215.84   30.47   1
   8  -8  -7  322.53   39.75  -6
  -1  -8   8  322.53   39.75  -5
  -7  -8  -1  322.53   39.75  -4
  -8  -8   1  322.53   39.75  -3
   7  -8  -8  322.53   39.75  -2
   1  -8   7  322.53   39.75   1
   8   8  -7  289.88   34.96  -6
  -1   8   8  289.88   34.96  -5
  -7   8  -1  289.88   34.96  -4
  -8   8   1  289.88   34.96  -3
   7   8  -8  289.88   34.96  -2
   1   8   7  289.88   34.96   1
   9  -8  -7  386.35   38.86  -6
  -2  -8   9  386.35   38.86  -5
  -7  -8  -2  386.35   38.86  -4
  -9  -8   2  386.35   38.86  -3
   7  -8  -9  386.35   38.86  -2
   2  -8   7  386.35   38.86   1
   9   8  -7  361.67   39.20  -6
  -2   8   9  361.67   39.20  -5
  -7   8  -2  361.67   39.20  -4
  -9   8   2  361.67   39.20  -3
   7   8  -9  361.67   39.20  -2
   2   8   7  361.67   39.20   1
  -1   9  -7  368.91   31.40  -6
   8   9  -1  368.91   31.40  -5
  -7   9   8  368.91   31.40  -4
   1   9  -8  368.91   31.40  -3
   7   9   1  368.91   31.40  -2
  -8   9   7  368.91   31.40   1
   0  -9  -7  163.89   35.78  -6
   7  -9   0  163.89   35.78  -5
  -7  -9   7  163.89   35.78  -4
   0  -9  -7  163.89   35.78  -3
   7  -9   0  163.89   35.78  -2
  -7  -9   7  163.89   35.78   1
   0   9  -7  312.02   32.52  -6
   7   9   0  312.02   32.52  -5
  -7   9   7  312.02   32.52  -4
   0   9  -7  312.02   32.52  -3
   7   9   0  312.02   32.52  -2
  -7   9   7  312.02   32.52   1
   1  -9  -7  438.59   39.53  -6
   6  -9   1  438.59   39.53  -5
  -7  -9   6  438.59   39.53  -4
  -1  -9  -6  438.59   39.53  -3
   7  -9  -1  438.59   39.53  -2
  -6  -9   7  438.59   39.53   1
   1   9  -7  621.30   31.73  -6
   6   9   1  621.30   31.73  -5
  -7   9   6  621.30   31.73  -4
  -1   9  -6  621.30   31.73  -3
   7   9  -1  621.30   31.73  -2
  -6   9   7  621.30   31.73   1
   2  -9  -7  930.59   42.59  -6
   5  -9   2  930.59   42.59  -5
  -7  -9   5  930.59   42.59  -4
  -2  -9  -5  930.59   42.59  -3
   7  -9  -2  930.59   42.59  -2
  -5  -9   7  930.59   42.59   1
   2   9  -7  957.62   36.46  -6
   5   9   2  957.62   36.46  -5
  -7   9   5  957.62   36.46  -4
  -2   9  -5  957.62   36.46  -3
   7   9  -2  957.62   36.46  -2
  -5   9   7  957.62   36.46   1
   3  -9  -7  981.19   25.31  -6
   4  -9   3  981.19   25.31  -5
  -7  -9   4  981.19   25.31  -4
  -3  -9  -4  981.19   25.31  -3
   7  -9  -3  981.19   25.31  -2
  -4  -9   7  981.19   25.31   1
   4  -9  -7 1003.13   22.90  -6
   3  -9   4 1003.13   22.90  -5
  -7  -9   3 1003.13   22.90  -4
  -4  -9  -3 1003.13   22.90  -3
   7  -9  -4 1003.13   22.90  -2
  -3  -9   7 1003.13   22.90   1
   5  -9  -7  918.34   25.49  -6
   2  -9   5  918.34   25.49  -5
  -7  -9   2  918.34   25.49  -4
  -5  -9  -2  918.34   25.49  -3
   7  -9  -5  918.34   25.49  -2
  -2  -9   7  918.34   25.49   1
   6  -9  -7  574.61   21.55  -6
   1  -9   6  574.61   21.55  -5
  -7  -9   1  574.61   21.55  -4
  -6  -9  -1  574.61   21.55  -3
   7  -9  -6  574.61   21.55  -2
  -1  -9   7  574.61   21.55   1
   7  -9  -7  271.01   33.61  -6
   0  -9   7  271.01   33.61  -5
  -7  -9   0  271.01   33.61  -4
  -7  -9   0  271.01   33.61  -3
   7  -9  -7  271.01   33.61  -2
   0  -9   7  271.01   33.61   1
   8  -9  -7  340.76   25.47  -6
  -1  -9   8  340.76   25.47  -5
  -7  -9  -1  340.76   25.47  -4
  -8  -9   1  340.76   25.47  -3
   7  -9  -8  340.76   25.47  -2
   1  -9   7  340.76   25.47   1
  -1  10  -7  162.16   32.25  -6
   8  10  -1  162.16   32.25  -5
  -7  10   8  162.16   32.25  -4
   1  10  -8  162.16   32.25  -3
   7  10   1  162.16   32.25  -2
  -8  10   7  162.16   32.25   1
   0  10  -7  113.47   31.83  -6
   7  10   0  113.47   31.83  -5
  -7  10   7  113.47   31.83  -4
   0  10  -7  113.47   31.83  -3
   7  10   0  113.47   31.83  -2
  -7  10   7  113.47   31.83   1
   1 -10  -7  301.08   37.63  -6
   6 -10   1  301.08   37.63  -5
  -7 -10   6  301.08   37.63  -4
  -1 -10  -6  301.08   37.63  -3
   7 -10  -1  301.08   37.63  -2
  -6 -10   7  301.08   37.63   1
   1  10  -7  264.24   32.63  -6
   6  10   1  264.24   32.63  -5
  -7  10   6  264.24   32.63  -4
  -1  10  -6  264.24   32.63  -3
   7  10  -1  264.24   32.63  -2
  -6  10   7  264.24   32.63   1
   2 -10  -7  377.18   38.20  -6
   5 -10   2  377.18   38.20  -5
  -7 -10   5  377.18   38.20  -4
  -2 -10  -5  377.18   38.20  -3
   7 -10  -2  377.18   38.20  -2
  -5 -10   7  377.18   38.20   1
   3 -10  -7  455.75   22.91  -6
   4 -10   3  455.75   22.91  -5
  -7 -10   4  455.75   22.91  -4
  -3 -10  -4  455.75   22.91  -3
   7 -10  -3  455.75   22.91  -2
  -4 -10   7  455.75   22.91   1
   4 -10  -7  448.63   35.72  -6
   3 -10   4  448.63   35.72  -5
  -7 -10   3  448.63   35.72  -4
  -4 -10  -3  448.63   35.72  -3
   7 -10  -4  448.63   35.72  -2
  -3 -10   7  448.63   35.72   1
   5 -10  -7  368.65   23.54  -6
   2 -10   5  368.65   23.54  -5
  -7 -10   2  368.65   23.54  -4
  -5 -10  -2  368.65   23.54  -3
   7 -10  -5  368.65   23.54  -2
  -2 -10   7  368.65   23.54   1
   6 -10  -7  223.70   21.24  -6
   1 -10   6  223.70   21.24  -5
  -7 -10   1  223.70   21.24  -4
  -6 -10  -1  223.70   21.24  -3
   7 -10  -6  223.70   21.24  -2
  -1 -10   7  223.70   21.24   1
   7 -10  -7  186.89   33.68  -6
   0 -10   7  186.89   33.68  -5
  -7 -10   0  186.89   33.68  -4
  -7 -10   0  186.89   33.68  -3
   7 -10  -7  186.89   33.68  -2
   0 -10   7  186.89   33.68   1
   8 -10  -7  226.74   36.14  -6
  -1 -10   8  226.74   36.14  -5
  -7 -10  -1  226.74   36.14  -4
  -8 -10   1  226.74   36.14  -3
   7 -10  -8  226.74   36.14  -2
   1 -10   7  226.74   36.14   1
   2 -11  -7  872.48   38.88  -6
   5 -11   2  872.48   38.88  -5
  -7 -11   5  872.48   38.88  -4
  -2 -11  -5  872.48   38.88  -3
   7 -11  -2  872.48   38.88  -2
  -5 -11   7  872.48   38.88   1
   3 -11  -7  878.39   26.04  -6
   4 -11   3  878.39   26.04  -5
  -7 -11   4  878.39   26.04  -4
  -3 -11  -4  878.39   26.04  -3
   7 -11  -3  878.39   26.04  -2
  -4 -11   7  878.39   26.04   1
   4 -11  -7  916.72   40.11  -6
   3 -11   4  916.72   40.11  -5
  -7 -11   3  916.72   40.11  -4
  -4 -11  -3  916.72   40.11  -3
   7 -11  -4  916.72   40.11  -2
  -3 -11   7  916.72   40.11   1
   5 -11  -7  887.06   27.12  -6
   2 -11   5  887.06   27.12  -5
  -7 -11   2  887.06   27.12  -4
  -5 -11  -2  887.06   27.12  -3
   7 -11  -5  887.06   27.12  -2
  -2 -11   7  887.06   27.12   1
   6 -11  -7  546.30   24.09  -6
   1 -11   6  546.30   24.09  -5
  -7 -11   1  546.30   24.09  -4
  -6 -11  -1  546.30   24.09  -3
   7 -11  -6  546.30   24.09  -2
  -1 -11   7  546.30   24.09   1
   2 -12  -7  360.60   34.89  -6
   5 -12   2  360.60   34.89  -5
  -7 -12   5  360.60   34.89  -4
  -2 -12  -5  360.60   34.89  -3
   7 -12  -2  360.60   34.89  -2
  -5 -12   7  360.60   34.89   1
   3 -12  -7  453.41   33.43  -6
   4 -12   3  453.41   33.43  -5
  -7 -12   4  453.41   33.43  -4
  -3 -12  -4  453.41   33.43  -3
   7 -12  -3  453.41   33.43  -2
  -4 -12   7  453.41   33.43   1
   4 -12  -7  369.14   36.83  -6
   3 -12   4  369.14   36.83  -5
  -7 -12   3  369.14   36.83  -4
  -4 -12  -3  369.14   36.83  -3
   7 -12  -4  369.14   36.83  -2
  -3 -12   7  369.14   36.83   1
   5 -12  -7  258.18   34.50  -6
   2 -12   5  258.18   34.50  -5
  -7 -12   2  258.18   34.50  -4
  -5 -12  -2  258.18   34.50  -3
   7 -12  -5  258.18   34.50  -2
  -2 -12   7  258.18   34.50   1
   6 -12  -7  207.52   32.01  -6
   1 -12   6  207.52   32.01  -5
  -7 -12   1  207.52   32.01  -4
  -6 -12  -1  207.52   32.01  -3
   7 -12  -6  207.52   32.01  -2
  -1 -12   7  207.52   32.01   1
  -2   0  -8   66.81   21.45  -6
  10   0  -2   66.81   21.45  -5
  -8   0  10   66.81   21.45  -4
   2   0 -10   66.81   21.45  -3
   8   0   2   66.81   21.45  -2
 -10   0   8   66.81   21.45   1
  -1   0  -8   69.34   18.36  -6
   9   0  -1   69.34   18.36  -5
  -8   0   9   69.34   18.36  -4
   1   0  -9   69.34   18.36  -3
   8   0   1   69.34   18.36  -2
  -9   0   8   69.34   18.36   1
   0   0  -8  207.85   17.70  -6
   8   0   0  207.85   17.70  -5
  -8   0   8  207.85   17.70  -4
   0   0  -8  207.85   17.70  -3
   8   0   0  207.85   17.70  -2
  -8   0   8  207.85   17.70   1
   1   0  -8  161.12   16.16  -6
   7   0   1  161.12   16.16  -5
  -8   0   7  161.12   16.16  -4
  -1   0  -7  161.12   16.16  -3
   8   0  -1  161.12   16.16  -2
  -7   0   8  161.12   16.16   1
   2   0  -8  232.24   22.42  -6
   6   0   2  232.24   22.42  -5
  -8   0   6  232.24   22.42  -4
  -2   0  -6  232.24   22.42  -3
   8   0  -2  232.24   22.42  -2
  -6   0   8  232.24   22.42   1
   3   0  -8  569.53   34.65  -6
   5   0   3  569.53   34.65  -5
  -8   0   5  569.53   34.65  -4
  -3   0  -5  569.53   34.65  -3
   8   0  -3  569.53   34.65  -2
  -5   0   8  569.53   34.65   1
   4   0  -8  553.29   35.52  -6
   4   0   4  553.29   35.52  -5
  -8   0   4  553.29   35.52  -4
  -4   0  -4  553.29   35.52  -3
   8   0  -4  553.29   35.52  -2
  -4   0   8  553.29   35.52   1
   5   0  -8  393.86   30.65  -6
   3   0   5  393.86   30.65  -5
  -8   0   3  393.86   30.65  -4
  -5   0  -3  393.86   30.65  -3
   8   0  -5  393.86   30.65  -2
  -3   0   8  393.86   30.65   1
   6   0  -8  309.63   23.77  -6
   2   0   6  309.63   23.77  -5
  -8   0   2  309.63   23.77  -4
  -6   0  -2  309.63   23.77  -3
   8   0  -6  309.63   23.77  -2
  -2   0   8  309.63   23.77   1
   7   0  -8  264.44   24.63  -6
   1   0   7  264.44   24.63  -5
  -8   0   1  264.44   24.63  -4
  -7   0  -1  264.44   24.63  -3
   8   0  -7  264.44   24.63  -2
  -1   0   8  264.44   24.63   1
   8   0  -8  318.27   25.68  -6
   0   0   8  318.27   25.68  -5
  -8   0   0  318.27   25.68  -4
  -8   0   0  318.27   25.68  -3
   8   0  -8  318.27   25.68  -2
   0   0   8  318.27   25.68   1
   9   0  -8  167.74   38.29  -6
  -1   0   9  167.74   38.29  -5
  -8   0  -1  167.74   38.29  -4
  -9   0   1  167.74   38.29  -3
   8   0  -9  167.74   38.29  -2
   1   0   8  167.74   38.29   1
  -2  -1  -8  300.02   32.34  -6
  10  -1  -2  300.02   32.34  -5
  -8  -1  10  300.02   32.34  -4
   2  -1 -10  300.02   32.34  -3
   8  -1   2  300.02   32.34  -2
 -10  -1   8  300.02   32.34   1
  -2   1  -8  319.02   34.76  -6
  10   1  -2  319.02   34.76  -5
  -8   1  10  319.02   34.76  -4
   2   1 -10  319.02   34.76  -3
   8   1   2  319.02   34.76  -2
 -10   1   8  319.02   34.76   1
  -1  -1  -8  358.98   19.89  -6
   9  -1  -1  358.98   19.89  -5
  -8  -1   9  358.98   19.89  -4
   1  -1  -9  358.98   19.89  -3
   8  -1   1  358.98   19.89  -2
  -9  -1   8  358.98   19.89   1
  -1   1  -8  383.56   21.22  -6
   9   1  -1  383.56   21.22  -5
  -8   1   9  383.56   21.22  -4
   1   1  -9  383.56   21.22  -3
   8   1   1  383.56   21.22  -2
  -9   1   8  383.56   21.22   1
   0  -1  -8  620.99   18.66  -6
   8  -1   0  620.99   18.66  -5
  -8  -1   8  620.99   18.66  -4
   0  -1  -8  620.99   18.66  -3
   8  -1   0  620.99   18.66  -2
  -8  -1   8  620.99   18.66   1
   0   1  -8  624.53   17.07  -6
   8   1   0  624.53   17.07  -5
  -8   1   8  624.53   17.07  -4
   0   1  -8  624.53   17.07  -3
   8   1   0  624.53   17.07  -2
  -8   1   8  624.53   17.07   1
   1  -1  -8 1071.56   19.80  -6
   7  -1   1 1071.56   19.80  -5
  -8  -1   7 1071.56   19.80  -4
  -1  -1  -7 1071.56   19.80  -3
   8  -1  -1 1071.56   19.80  -2
  -7  -1   8 1071.56   19.80   1
   1   1  -8 1137.66   18.37  -6
   7   1   1 1137.66   18.37  -5
  -8   1   7 1137.66   18.37  -4
  -1   1  -7 1137.66   18.37  -3
   8   1  -1 1137.66   18.37  -2
  -7   1   8 1137.66   18.37   1
   2  -1  -8  960.25   26.53  -6
   6  -1   2  960.25   26.53  -5
  -8  -1   6  960.25   26.53  -4
  -2  -1  -6  960.25   26.53  -3
   8  -1  -2  960.25   26.53  -2
  -6  -1   8  960.25   26.53   1
   2   1  -8 1033.45   28.70  -6
   6   1   2 1033.45   28.70  -5
  -8   1   6 1033.45   28.70  -4
  -2   1  -6 1033.45   28.70  -3
   8   1  -2 1033.45   28.70  -2
  -6   1   8 1033.45   28.70   1
   3   1  -8 1029.66   39.08  -6
   5   1   3 1029.66   39.08  -5
  -8   1   5 1029.66   39.08  -4
  -3   1  -5 1029.66   39.08  -3
   8   1  -3 1029.66   39.08  -2
  -5   1   8 1029.66   39.08   1
   4  -1  -8 1176.06   41.07  -6
   4  -1   4 1176.06   41.07  -5
  -8  -1   4 1176.06   41.07  -4
  -4  -1  -4 1176.06   41.07  -3
   8  -1  -4 1176.06   41.07  -2
  -4  -1   8 1176.06   41.07   1
   4   1  -8 1316.70   37.26  -6
   4   1   4 1316.70   37.26  -5
  -8   1   4 1316.70   37.26  -4
  -4   1  -4 1316.70   37.26  -3
   8   1  -4 1316.70   37.26  -2
  -4   1   8 1316.70   37.26   1
   5  -1  -8 1022.88   38.16  -6
   3  -1   5 1022.88   38.16  -5
  -8  -1   3 1022.88   38.16  -4
  -5  -1  -3 1022.88   38.16  -3
   8  -1  -5 1022.88   38.16  -2
  -3  -1   8 1022.88   38.16   1
   5   1  -8 1186.10   38.74  -6
   3   1   5 1186.10   38.74  -5
  -8   1   3 1186.10   38.74  -4
  -5   1  -3 1186.10   38.74  -3
   8   1  -5 1186.10   38.74  -2
  -3   1   8 1186.10   38.74   1
   6  -1  -8  956.64   26.44  -6
   2  -1   6  956.64   26.44  -5
  -8  -1   2  956.64   26.44  -4
  -6  -1  -2  956.64   26.44  -3
   8  -1  -6  956.64   26.44  -2
  -2  -1   8  956.64   26.44   1
   6   1  -8  997.03   36.69  -6
   2   1   6  997.03   36.69  -5
  -8   1   2  997.03   36.69  -4
  -6   1  -2  997.03   36.69  -3
   8   1  -6  997.03   36.69  -2
  -2   1   8  997.03   36.69   1
   7  -1  -8 1274.71   38.79  -6
   1  -1   7 1274.71   38.79  -5
  -8  -1   1 1274.71   38.79  -4
  -7  -1  -1 1274.71   38.79  -3
   8  -1  -7 1274.71   38.79  -2
  -1  -1   8 1274.71   38.79   1
   7   1  -8 1326.59   30.56  -6
   1   1   7 1326.59   30.56  -5
  -8   1   1 1326.59   30.56  -4
  -7   1  -1 1326.59   30.56  -3
   8   1  -7 1326.59   30.56  -2
  -1   1   8 1326.59   30.56   1
   8  -1  -8  911.70   29.96  -6
   0  -1   8  911.70   29.96  -5
  -8  -1   0  911.70   29.96  -4
  -8  -1   0  911.70   29.96  -3
   8  -1  -8  911.70   29.96  -2
   0  -1   8  911.70   29.96   1
   8   1  -8  892.31   36.62  -6
   0   1   8  892.31   36.62  -5
  -8   1   0  892.31   36.62  -4
  -8   1   0  892.31   36.62  -3
   8   1  -8  892.31   36.62  -2
   0   1   8  892.31   36.62   1
   9  -1  -8  569.94   43.37  -6
  -1  -1   9  569.94   43.37  -5
  -8  -1  -1  569.94   43.37  -4
  -9  -1   1  569.94   43.37  -3
   8  -1  -9  569.94   43.37  -2
   1  -1   8  569.94   43.37   1
   9   1  -8  547.69   38.71  -6
  -1   1   9  547.69   38.71  -5
  -8   1  -1  547.69   38.71  -4
  -9   1   1  547.69   38.71  -3
   8   1  -9  547.69   38.71  -2
   1   1   8  547.69   38.71   1
  -1  -2  -8   81.59   25.08  -6
   9  -2  -1   81.59   25.08  -5
  -8  -2   9   81.59   25.08  -4
   1  -2  -9   81.59   25.08  -3
   8  -2   1   81.59   25.08  -2
  -9  -2   8   81.59   25.08   1
  -1   2  -8  100.64   19.65  -6
   9   2  -1  100.64   19.65  -5
  -8   2   9  100.64   19.65  -4
   1   2  -9  100.64   19.65  -3
   8   2   1  100.64   19.65  -2
  -9   2   8  100.64   19.65   1
   0  -2  -8  234.86   22.60  -6
   8  -2   0  234.86   22.60  -5
  -8  -2   8  234.86   22.60  -4
   0  -2  -8  234.86   22.60  -3
   8  -2   0  234.86   22.60  -2
  -8  -2   8  234.86   22.60   1
   0   2  -8  255.94   26.78  -6
   8   2   0  255.94   26.78  -5
  -8   2   8  255.94   26.78  -4
   0   2  -8  255.94   26.78  -3
   8   2   0  255.94   26.78  -2
  -8   2   8  255.94   26.78   1
   1  -2  -8  262.37   21.87  -6
   7  -2   1  262.37   21.87  -5
  -8  -2   7  262.37   21.87  -4
  -1  -2  -7  262.37   21.87  -3
   8  -2  -1  262.37   21.87  -2
  -7  -2   8  262.37   21.87   1
   1   2  -8  254.80   26.38  -6
   7   2   1  254.80   26.38  -5
  -8   2   7  254.80   26.38  -4
  -1   2  -7  254.80   26.38  -3
   8   2  -1  254.80   26.38  -2
  -7   2   8  254.80   26.38   1
   2  -2  -8  270.28   19.73  -6
   6  -2   2  270.28   19.73  -5
  -8  -2   6  270.28   19.73  -4
  -2  -2  -6  270.28   19.73  -3
   8  -2  -2  270.28   19.73  -2
  -6  -2   8  270.28   19.73   1
   2   2  -8  237.94   24.29  -6
   6   2   2  237.94   24.29  -5
  -8   2   6  237.94   24.29  -4
  -2   2  -6  237.94   24.29  -3
   8   2  -2  237.94   24.29  -2
  -6   2   8  237.94   24.29   1
   3   2  -8  672.77   33.14  -6
   5   2   3  672.77   33.14  -5
  -8   2   5  672.77   33.14  -4
  -3   2  -5  672.77   33.14  -3
   8   2  -3  672.77   33.14  -2
  -5   2   8  672.77   33.14   1
   4   2  -8  421.94   33.91  -6
   4   2   4  421.94   33.91  -5
  -8   2   4  421.94   33.91  -4
  -4   2  -4  421.94   33.91  -3
   8   2  -4  421.94   33.91  -2
  -4   2   8  421.94   33.91   1
   5   2  -8  543.69   24.93  -6
   3   2   5  543.69   24.93  -5
  -8   2   3  543.69   24.93  -4
  -5   2  -3  543.69   24.93  -3
   8   2  -5  543.69   24.93  -2
  -3   2   8  543.69   24.93   1
   6  -2  -8  375.88   33.84  -6
   2  -2   6  375.88   33.84  -5
  -8  -2   2  375.88   33.84  -4
  -6  -2  -2  375.88   33.84  -3
   8  -2  -6  375.88   33.84  -2
  -2  -2   8  375.88   33.84   1
   6   2  -8  395.45   24.83  -6
   2   2   6  395.45   24.83  -5
  -8   2   2  395.45   24.83  -4
  -6   2  -2  395.45   24.83  -3
   8   2  -6  395.45   24.83  -2
  -2   2   8  395.45   24.83   1
   7  -2  -8  327.86   31.20  -6
   1  -2   7  327.86   31.20  -5
  -8  -2   1  327.86   31.20  -4
  -7  -2  -1  327.86   31.20  -3
   8  -2  -7  327.86   31.20  -2
  -1  -2   8  327.86   31.20   1
   7   2  -8  399.84   33.12  -6
   1   2   7  399.84   33.12  -5
  -8   2   1  399.84   33.12  -4
  -7   2  -1  399.84   33.12  -3
   8   2  -7  399.84   33.12  -2
  -1   2   8  399.84   33.12   1
   8  -2  -8  304.23   35.98  -6
   0  -2   8  304.23   35.98  -5
  -8  -2   0  304.23   35.98  -4
  -8  -2   0  304.23   35.98  -3
   8  -2  -8  304.23   35.98  -2
   0  -2   8  304.23   35.98   1
   8   2  -8  335.53   34.30  -6
   0   2   8  335.53   34.30  -5
  -8   2   0  335.53   34.30  -4
  -8   2   0  335.53   34.30  -3
   8   2  -8  335.53   34.30  -2
   0   2   8  335.53   34.30   1
   9  -2  -8  218.14   40.78  -6
  -1  -2   9  218.14   40.78  -5
  -8  -2  -1  218.14   40.78  -4
  -9  -2   1  218.14   40.78  -3
   8  -2  -9  218.14   40.78  -2
   1  -2   8  218.14   40.78   1
   9   2  -8  250.97   34.71  -6
  -1   2   9  250.97   34.71  -5
  -8   2  -1  250.97   34.71  -4
  -9   2   1  250.97   34.71  -3
   8   2  -9  250.97   34.71  -2
   1   2   8  250.97   34.71   1
  -1   3  -8  407.29   22.63  -6
   9   3  -1  407.29   22.63  -5
  -8   3   9  407.29   22.63  -4
   1   3  -9  407.29   22.63  -3
   8   3   1  407.29   22.63  -2
  -9   3   8  407.29   22.63   1
   0   3  -8  510.25   21.04  -6
   8   3   0  510.25   21.04  -5
  -8   3   8  510.25   21.04  -4
   0   3  -8  510.25   21.04  -3
   8   3   0  510.25   21.04  -2
  -8   3   8  510.25   21.04   1
   1   3  -8  845.54   23.39  -6
   7   3   1  845.54   23.39  -5
  -8   3   7  845.54   23.39  -4
  -1   3  -7  845.54   23.39  -3
   8   3  -1  845.54   23.39  -2
  -7   3   8  845.54   23.39   1
   2   3  -8  748.72   21.95  -6
   6   3   2  748.72   21.95  -5
  -8   3   6  748.72   21.95  -4
  -2   3  -6  748.72   21.95  -3
   8   3  -2  748.72   21.95  -2
  -6   3   8  748.72   21.95   1
   3   3  -8  969.22   38.34  -6
   5   3   3  969.22   38.34  -5
  -8   3   5  969.22   38.34  -4
  -3   3  -5  969.22   38.34  -3
   8   3  -3  969.22   38.34  -2
  -5   3   8  969.22   38.34   1
   4   3  -8 1052.66   40.03  -6
   4   3   4 1052.66   40.03  -5
  -8   3   4 1052.66   40.03  -4
  -4   3  -4 1052.66   40.03  -3
   8   3  -4 1052.66   40.03  -2
  -4   3   8 1052.66   40.03   1
   5   3  -8  792.42   27.56  -6
   3   3   5  792.42   27.56  -5
  -8   3   3  792.42   27.56  -4
  -5   3  -3  792.42   27.56  -3
   8   3  -5  792.42   27.56  -2
  -3   3   8  792.42   27.56   1
   6  -3  -8  658.02   25.32  -6
   2  -3   6  658.02   25.32  -5
  -8  -3   2  658.02   25.32  -4
  -6  -3  -2  658.02   25.32  -3
   8  -3  -6  658.02   25.32  -2
  -2  -3   8  658.02   25.32   1
   6   3  -8  705.86   33.34  -6
   2   3   6  705.86   33.34  -5
  -8   3   2  705.86   33.34  -4
  -6   3  -2  705.86   33.34  -3
   8   3  -6  705.86   33.34  -2
  -2   3   8  705.86   33.34   1
   7  -3  -8  799.45   33.68  -6
   1  -3   7  799.45   33.68  -5
  -8  -3   1  799.45   33.68  -4
  -7  -3  -1  799.45   33.68  -3
   8  -3  -7  799.45   33.68  -2
  -1  -3   8  799.45   33.68   1
   7   3  -8  837.34   35.18  -6
   1   3   7  837.34   35.18  -5
  -8   3   1  837.34   35.18  -4
  -7   3  -1  837.34   35.18  -3
   8   3  -7  837.34   35.18  -2
  -1   3   8  837.34   35.18   1
   8  -3  -8  717.80   38.14  -6
   0  -3   8  717.80   38.14  -5
  -8  -3   0  717.80   38.14  -4
  -8  -3   0  717.80   38.14  -3
   8  -3  -8  717.80   38.14  -2
   0  -3   8  717.80   38.14   1
   8   3  -8  752.79   39.19  -6
   0   3   8  752.79   39.19  -5
  -8   3   0  752.79   39.19  -4
  -8   3   0  752.79   39.19  -3
   8   3  -8  752.79   39.19  -2
   0   3   8  752.79   39.19   1
   9  -3  -8  511.71   43.05  -6
  -1  -3   9  511.71   43.05  -5
  -8  -3  -1  511.71   43.05  -4
  -9  -3   1  511.71   43.05  -3
   8  -3  -9  511.71   43.05  -2
   1  -3   8  511.71   43.05   1
   9   3  -8  535.83   38.46  -6
  -1   3   9  535.83   38.46  -5
  -8   3  -1  535.83   38.46  -4
  -9   3   1  535.83   38.46  -3
   8   3  -9  535.83   38.46  -2
   1   3   8  535.83   38.46   1
  -1   4  -8  174.73   21.60  -6
   9   4  -1  174.73   21.60  -5
  -8   4   9  174.73   21.60  -4
   1   4  -9  174.73   21.60  -3
   8   4   1  174.73   21.60  -2
  -9   4   8  174.73   21.60   1
   0   4  -8  211.66   30.29  -6
   8   4   0  211.66   30.29  -5
  -8   4   8  211.66   30.29  -4
   0   4  -8  211.66   30.29  -3
   8   4   0  211.66   30.29  -2
  -8   4   8  211.66   30.29   1
   1   4  -8  331.21   21.06  -6
   7   4   1  331.21   21.06  -5
  -8   4   7  331.21   21.06  -4
  -1   4  -7  331.21   21.06  -3
   8   4  -1  331.21   21.06  -2
  -7   4   8  331.21   21.06   1
   2   4  -8  304.07   20.91  -6
   6   4   2  304.07   20.91  -5
  -8   4   6  304.07   20.91  -4
  -2   4  -6  304.07   20.91  -3
   8   4  -2  304.07   20.91  -2
  -6   4   8  304.07   20.91   1
   3   4  -8  562.13   39.33  -6
   5   4   3  562.13   39.33  -5
  -8   4   5  562.13   39.33  -4
  -3   4  -5  562.13   39.33  -3
   8   4  -3  562.13   39.33  -2
  -5   4   8  562.13   39.33   1
   4   4  -8  655.93   42.98  -6
   4   4   4  655.93   42.98  -5
  -8   4   4  655.93   42.98  -4
  -4   4  -4  655.93   42.98  -3
   8   4  -4  655.93   42.98  -2
  -4   4   8  655.93   42.98   1
   5   4  -8  425.59   23.82  -6
   3   4   5  425.59   23.82  -5
  -8   4   3  425.59   23.82  -4
  -5   4  -3  425.59   23.82  -3
   8   4  -5  425.59   23.82  -2
  -3   4   8  425.59   23.82   1
   6  -4  -8  322.24   33.27  -6
   2  -4   6  322.24   33.27  -5
  -8  -4   2  322.24   33.27  -4
  -6  -4  -2  322.24   33.27  -3
   8  -4  -6  322.24   33.27  -2
  -2  -4   8  322.24   33.27   1
   6   4  -8  389.31   29.97  -6
   2   4   6  389.31   29.97  -5
  -8   4   2  389.31   29.97  -4
  -6   4  -2  389.31   29.97  -3
   8   4  -6  389.31   29.97  -2
  -2   4   8  389.31   29.97   1
   7  -4  -8  294.87   31.15  -6
   1  -4   7  294.87   31.15  -5
  -8  -4   1  294.87   31.15  -4
  -7  -4  -1  294.87   31.15  -3
   8  -4  -7  294.87   31.15  -2
  -1  -4   8  294.87   31.15   1
   7   4  -8  384.97   34.22  -6
   1   4   7  384.97   34.22  -5
  -8   4   1  384.97   34.22  -4
  -7   4  -1  384.97   34.22  -3
   8   4  -7  384.97   34.22  -2
  -1   4   8  384.97   34.22   1
   8  -4  -8  248.15   35.81  -6
   0  -4   8  248.15   35.81  -5
  -8  -4   0  248.15   35.81  -4
  -8  -4   0  248.15   35.81  -3
   8  -4  -8  248.15   35.81  -2
   0  -4   8  248.15   35.81   1
   8   4  -8  298.23   39.27  -6
   0   4   8  298.23   39.27  -5
  -8   4   0  298.23   39.27  -4
  -8   4   0  298.23   39.27  -3
   8   4  -8  298.23   39.27  -2
   0   4   8  298.23   39.27   1
   9  -4  -8  217.31   40.99  -6
  -1  -4   9  217.31   40.99  -5
  -8  -4  -1  217.31   40.99  -4
  -9  -4   1  217.31   40.99  -3
   8  -4  -9  217.31   40.99  -2
   1  -4   8  217.31   40.99   1
   9   4  -8  241.18   36.65  -6
  -1   4   9  241.18   36.65  -5
  -8   4  -1  241.18   36.65  -4
  -9   4   1  241.18   36.65  -3
   8   4  -9  241.18   36.65  -2
   1   4   8  241.18   36.65   1
  -1   5  -8  408.26   34.13  -6
   9   5  -1  408.26   34.13  -5
  -8   5   9  408.26   34.13  -4
   1   5  -9  408.26   34.13  -3
   8   5   1  408.26   34.13  -2
  -9   5   8  408.26   34.13   1
   0  -5  -8  410.24   39.70  -6
   8  -5   0  410.24   39.70  -5
  -8  -5   8  410.24   39.70  -4
   0  -5  -8  410.24   39.70  -3
   8  -5   0  410.24   39.70  -2
  -8  -5   8  410.24   39.70   1
   0   5  -8  532.35   33.29  -6
   8   5   0  532.35   33.29  -5
  -8   5   8  532.35   33.29  -4
   0   5  -8  532.35   33.29  -3
   8   5   0  532.35   33.29  -2
  -8   5   8  532.35   33.29   1
   1  -5  -8  637.27   40.57  -6
   7  -5   1  637.27   40.57  -5
  -8  -5   7  637.27   40.57  -4
  -1  -5  -7  637.27   40.57  -3
   8  -5  -1  637.27   40.57  -2
  -7  -5   8  637.27   40.57   1
   1   5  -8  714.36   31.90  -6
   7   5   1  714.36   31.90  -5
  -8   5   7  714.36   31.90  -4
  -1   5  -7  714.36   31.90  -3
   8   5  -1  714.36   31.90  -2
  -7   5   8  714.36   31.90   1
   2  -5  -8  951.11   42.19  -6
   6  -5   2  951.11   42.19  -5
  -8  -5   6  951.11   42.19  -4
  -2  -5  -6  951.11   42.19  -3
   8  -5  -2  951.11   42.19  -2
  -6  -5   8  951.11   42.19   1
   2   5  -8  975.23   33.71  -6
   6   5   2  975.23   33.71  -5
  -8   5   6  975.23   33.71  -4
  -2   5  -6  975.23   33.71  -3
   8   5  -2  975.23   33.71  -2
  -6   5   8  975.23   33.71   1
   3  -5  -8 1085.24   41.57  -6
   5  -5   3 1085.24   41.57  -5
  -8  -5   5 1085.24   41.57  -4
  -3  -5  -5 1085.24   41.57  -3
   8  -5  -3 1085.24   41.57  -2
  -5  -5   8 1085.24   41.57   1
   3   5  -8 1239.89   42.48  -6
   5   5   3 1239.89   42.48  -5
  -8   5   5 1239.89   42.48  -4
  -3   5  -5 1239.89   42.48  -3
   8   5  -3 1239.89   42.48  -2
  -5   5   8 1239.89   42.48   1
   4  -5  -8 1177.69   39.52  -6
   4  -5   4 1177.69   39.52  -5
  -8  -5   4 1177.69   39.52  -4
  -4  -5  -4 1177.69   39.52  -3
   8  -5  -4 1177.69   39.52  -2
  -4  -5   8 1177.69   39.52   1
   5   5  -8 1103.17   37.24  -6
   3   5   5 1103.17   37.24  -5
  -8   5   3 1103.17   37.24  -4
  -5   5  -3 1103.17   37.24  -3
   8   5  -5 1103.17   37.24  -2
  -3   5   8 1103.17   37.24   1
   6  -5  -8  920.68   37.65  -6
   2  -5   6  920.68   37.65  -5
  -8  -5   2  920.68   37.65  -4
  -6  -5  -2  920.68   37.65  -3
   8  -5  -6  920.68   37.65  -2
  -2  -5   8  920.68   37.65   1
   6   5  -8  969.37   35.65  -6
   2   5   6  969.37   35.65  -5
  -8   5   2  969.37   35.65  -4
  -6   5  -2  969.37   35.65  -3
   8   5  -6  969.37   35.65  -2
  -2   5   8  969.37   35.65   1
   7  -5  -8  812.51   34.18  -6
   1  -5   7  812.51   34.18  -5
  -8  -5   1  812.51   34.18  -4
  -7  -5  -1  812.51   34.18  -3
   8  -5  -7  812.51   34.18  -2
  -1  -5   8  812.51   34.18   1
   7   5  -8  825.07   36.02  -6
   1   5   7  825.07   36.02  -5
  -8   5   1  825.07   36.02  -4
  -7   5  -1  825.07   36.02  -3
   8   5  -7  825.07   36.02  -2
  -1   5   8  825.07   36.02   1
   8  -5  -8  787.97   39.28  -6
   0  -5   8  787.97   39.28  -5
  -8  -5   0  787.97   39.28  -4
  -8  -5   0  787.97   39.28  -3
   8  -5  -8  787.97   39.28  -2
   0  -5   8  787.97   39.28   1
   8   5  -8  777.72   40.63  -6
   0   5   8  777.72   40.63  -5
  -8   5   0  777.72   40.63  -4
  -8   5   0  777.72   40.63  -3
   8   5  -8  777.72   40.63  -2
   0   5   8  777.72   40.63   1
   9  -5  -8  341.73   38.14  -6
  -1  -5   9  341.73   38.14  -5
  -8  -5  -1  341.73   38.14  -4
  -9  -5   1  341.73   38.14  -3
   8  -5  -9  341.73   38.14  -2
   1  -5   8  341.73   38.14   1
   9   5  -8  633.63   39.13  -6
  -1   5   9  633.63   39.13  -5
  -8   5  -1  633.63   39.13  -4
  -9   5   1  633.63   39.13  -3
   8   5  -9  633.63   39.13  -2
   1   5   8  633.63   39.13   1
  10  -5  -8  229.45   38.95  -6
  -2  -5  10  229.45   38.95  -5
  -8  -5  -2  229.45   38.95  -4
 -10  -5   2  229.45   38.95  -3
   8  -5 -10  229.45   38.95  -2
   2  -5   8  229.45   38.95   1
   0   6  -8  168.69   31.49  -6
   8   6   0  168.69   31.49  -5
  -8   6   8  168.69   31.49  -4
   0   6  -8  168.69   31.49  -3
   8   6   0  168.69   31.49  -2
  -8   6   8  168.69   31.49   1
   1  -6  -8  155.68   37.31  -6
   7  -6   1  155.68   37.31  -5
  -8  -6   7  155.68   37.31  -4
  -1  -6  -7  155.68   37.31  -3
   8  -6  -1  155.68   37.31  -2
  -7  -6   8  155.68   37.31   1
   1   6  -8  254.75   27.79  -6
   7   6   1  254.75   27.79  -5
  -8   6   7  254.75   27.79  -4
  -1   6  -7  254.75   27.79  -3
   8   6  -1  254.75   27.79  -2
  -7   6   8  254.75   27.79   1
   2  -6  -8  291.05   38.01  -6
   6  -6   2  291.05   38.01  -5
  -8  -6   6  291.05   38.01  -4
  -2  -6  -6  291.05   38.01  -3
   8  -6  -2  291.05   38.01  -2
  -6  -6   8  291.05   38.01   1
   2   6  -8  296.51   29.64  -6
   6   6   2  296.51   29.64  -5
  -8   6   6  296.51   29.64  -4
  -2   6  -6  296.51   29.64  -3
   8   6  -2  296.51   29.64  -2
  -6   6   8  296.51   29.64   1
   3  -6  -8  314.57   37.05  -6
   5  -6   3  314.57   37.05  -5
  -8  -6   5  314.57   37.05  -4
  -3  -6  -5  314.57   37.05  -3
   8  -6  -3  314.57   37.05  -2
  -5  -6   8  314.57   37.05   1
   4  -6  -8  374.46   34.68  -6
   4  -6   4  374.46   34.68  -5
  -8  -6   4  374.46   34.68  -4
  -4  -6  -4  374.46   34.68  -3
   8  -6  -4  374.46   34.68  -2
  -4  -6   8  374.46   34.68   1
   4   6  -8  525.27   33.82  -6
   4   6   4  525.27   33.82  -5
  -8   6   4  525.27   33.82  -4
  -4   6  -4  525.27   33.82  -3
   8   6  -4  525.27   33.82  -2
  -4   6   8  525.27   33.82   1
   5  -6  -8  254.53   32.65  -6
   3  -6   5  254.53   32.65  -5
  -8  -6   3  254.53   32.65  -4
  -5  -6  -3  254.53   32.65  -3
   8  -6  -5  254.53   32.65  -2
  -3  -6   8  254.53   32.65   1
   5   6  -8  569.20   31.79  -6
   3   6   5  569.20   31.79  -5
  -8   6   3  569.20   31.79  -4
  -5   6  -3  569.20   31.79  -3
   8   6  -5  569.20   31.79  -2
  -3   6   8  569.20   31.79   1
   6  -6  -8  381.95   35.88  -6
   2  -6   6  381.95   35.88  -5
  -8  -6   2  381.95   35.88  -4
  -6  -6  -2  381.95   35.88  -3
   8  -6  -6  381.95   35.88  -2
  -2  -6   8  381.95   35.88   1
   6   6  -8  470.07   32.21  -6
   2   6   6  470.07   32.21  -5
  -8   6   2  470.07   32.21  -4
  -6   6  -2  470.07   32.21  -3
   8   6  -6  470.07   32.21  -2
  -2   6   8  470.07   32.21   1
   7  -6  -8  230.45   31.29  -6
   1  -6   7  230.45   31.29  -5
  -8  -6   1  230.45   31.29  -4
  -7  -6  -1  230.45   31.29  -3
   8  -6  -7  230.45   31.29  -2
  -1  -6   8  230.45   31.29   1
   7   6  -8  314.26   32.84  -6
   1   6   7  314.26   32.84  -5
  -8   6   1  314.26   32.84  -4
  -7   6  -1  314.26   32.84  -3
   8   6  -7  314.26   32.84  -2
  -1   6   8  314.26   32.84   1
   8  -6  -8  213.98   36.11  -6
   0  -6   8  213.98   36.11  -5
  -8  -6   0  213.98   36.11  -4
  -8  -6   0  213.98   36.11  -3
   8  -6  -8  213.98   36.11  -2
   0  -6   8  213.98   36.11   1
   8   6  -8  229.99   34.85  -6
   0   6   8  229.99   34.85  -5
  -8   6   0  229.99   34.85  -4
  -8   6   0  229.99   34.85  -3
   8   6  -8  229.99   34.85  -2
   0   6   8  229.99   34.85   1
   9  -6  -8   41.28   34.65  -6
  -1  -6   9   41.28   34.65  -5
  -8  -6  -1   41.28   34.65  -4
  -9  -6   1   41.28   34.65  -3
   8  -6  -9   41.28   34.65  -2
   1  -6   8   41.28   34.65   1
   9   6  -8  277.16   38.84  -6
  -1   6   9  277.16   38.84  -5
  -8   6  -1  277.16   38.84  -4
  -9   6   1  277.16   38.84  -3
   8   6  -9  277.16   38.84  -2
   1   6   8  277.16   38.84   1
   1  -7  -8  370.27   38.72  -6
   7  -7   1  370.27   38.72  -5
  -8  -7   7  370.27   38.72  -4
  -1  -7  -7  370.27   38.72  -3
   8  -7  -1  370.27   38.72  -2
  -7  -7   8  370.27   38.72   1
   1   7  -8  494.55   29.92  -6
   7   7   1  494.55   29.92  -5
  -8   7   7  494.55   29.92  -4
  -1   7  -7  494.55   29.92  -3
   8   7  -1  494.55   29.92  -2
  -7   7   8  494.55   29.92   1
   2  -7  -8  591.31   38.24  -6
   6  -7   2  591.31   38.24  -5
  -8  -7   6  591.31   38.24  -4
  -2  -7  -6  591.31   38.24  -3
   8  -7  -2  591.31   38.24  -2
  -6  -7   8  591.31   38.24   1
   2   7  -8 1011.89   36.18  -6
   6   7   2 1011.89   36.18  -5
  -8   7   6 1011.89   36.18  -4
  -2   7  -6 1011.89   36.18  -3
   8   7  -2 1011.89   36.18  -2
  -6   7   8 1011.89   36.18   1
   3  -7  -8  842.43   37.69  -6
   5  -7   3  842.43   37.69  -5
  -8  -7   5  842.43   37.69  -4
  -3  -7  -5  842.43   37.69  -3
   8  -7  -3  842.43   37.69  -2
  -5  -7   8  842.43   37.69   1
   4  -7  -8  819.72   37.44  -6
   4  -7   4  819.72   37.44  -5
  -8  -7   4  819.72   37.44  -4
  -4  -7  -4  819.72   37.44  -3
   8  -7  -4  819.72   37.44  -2
  -4  -7   8  819.72   37.44   1
   4   7  -8  915.73   34.75  -6
   4   7   4  915.73   34.75  -5
  -8   7   4  915.73   34.75  -4
  -4   7  -4  915.73   34.75  -3
   8   7  -4  915.73   34.75  -2
  -4   7   8  915.73   34.75   1
   5  -7  -8  987.23   38.95  -6
   3  -7   5  987.23   38.95  -5
  -8  -7   3  987.23   38.95  -4
  -5  -7  -3  987.23   38.95  -3
   8  -7  -5  987.23   38.95  -2
  -3  -7   8  987.23   38.95   1
   5   7  -8  980.67   32.35  -6
   3   7   5  980.67   32.35  -5
  -8   7   3  980.67   32.35  -4
  -5   7  -3  980.67   32.35  -3
   8   7  -5  980.67   32.35  -2
  -3   7   8  980.67   32.35   1
   6  -7  -8  818.83   26.00  -6
   2  -7   6  818.83   26.00  -5
  -8  -7   2  818.83   26.00  -4
  -6  -7  -2  818.83   26.00  -3
   8  -7  -6  818.83   26.00  -2
  -2  -7   8  818.83   26.00   1
   7  -7  -8  595.06   36.13  -6
   1  -7   7  595.06   36.13  -5
  -8  -7   1  595.06   36.13  -4
  -7  -7  -1  595.06   36.13  -3
   8  -7  -7  595.06   36.13  -2
  -1  -7   8  595.06   36.13   1
   7   7  -8  671.15   39.93  -6
   1   7   7  671.15   39.93  -5
  -8   7   1  671.15   39.93  -4
  -7   7  -1  671.15   39.93  -3
   8   7  -7  671.15   39.93  -2
  -1   7   8  671.15   39.93   1
   8  -7  -8  510.24   37.66  -6
   0  -7   8  510.24   37.66  -5
  -8  -7   0  510.24   37.66  -4
  -8  -7   0  510.24   37.66  -3
   8  -7  -8  510.24   37.66  -2
   0  -7   8  510.24   37.66   1
   8   7  -8  542.83   36.73  -6
   0   7   8  542.83   36.73  -5
  -8   7   0  542.83   36.73  -4
  -8   7   0  542.83   36.73  -3
   8   7  -8  542.83   36.73  -2
   0   7   8  542.83   36.73   1
   9  -7  -8  312.22   36.32  -6
  -1  -7   9  312.22   36.32  -5
  -8  -7  -1  312.22   36.32  -4
  -9  -7   1  312.22   36.32  -3
   8  -7  -9  312.22   36.32  -2
   1  -7   8  312.22   36.32   1
   2  -8  -8  222.58   36.77  -6
   6  -8   2  222.58   36.77  -5
  -8  -8   6  222.58   36.77  -4
  -2  -8  -6  222.58   36.77  -3
   8  -8  -2  222.58   36.77  -2
  -6  -8   8  222.58   36.77   1
   2   8  -8  254.11   33.49  -6
   6   8   2  254.11   33.49  -5
  -8   8   6  254.11   33.49  -4
  -2   8  -6  254.11   33.49  -3
   8   8  -2  254.11   33.49  -2
  -6   8   8  254.11   33.49   1
   3  -8  -8  216.24   35.45  -6
   5  -8   3  216.24   35.45  -5
  -8  -8   5  216.24   35.45  -4
  -3  -8  -5  216.24   35.45  -3
   8  -8  -3  216.24   35.45  -2
  -5  -8   8  216.24   35.45   1
   4  -8  -8  360.22   33.03  -6
   4  -8   4  360.22   33.03  -5
  -8  -8   4  360.22   33.03  -4
  -4  -8  -4  360.22   33.03  -3
   8  -8  -4  360.22   33.03  -2
  -4  -8   8  360.22   33.03   1
   5  -8  -8  148.62   29.26  -6
   3  -8   5  148.62   29.26  -5
  -8  -8   3  148.62   29.26  -4
  -5  -8  -3  148.62   29.26  -3
   8  -8  -5  148.62   29.26  -2
  -3  -8   8  148.62   29.26   1
   5   8  -8  442.10   31.04  -6
   3   8   5  442.10   31.04  -5
  -8   8   3  442.10   31.04  -4
  -5   8  -3  442.10   31.04  -3
   8   8  -5  442.10   31.04  -2
  -3   8   8  442.10   31.04   1
   6  -8  -8  275.50   35.73  -6
   2  -8   6  275.50   35.73  -5
  -8  -8   2  275.50   35.73  -4
  -6  -8  -2  275.50   35.73  -3
   8  -8  -6  275.50   35.73  -2
  -2  -8   8  275.50   35.73   1
   6   8  -8  332.63   30.35  -6
   2   8   6  332.63   30.35  -5
  -8   8   2  332.63   30.35  -4
  -6   8  -2  332.63   30.35  -3
   8   8  -6  332.63   30.35  -2
  -2   8   8  332.63   30.35   1
   7  -8  -8  242.69   34.02  -6
   1  -8   7  242.69   34.02  -5
  -8  -8   1  242.69   34.02  -4
  -7  -8  -1  242.69   34.02  -3
   8  -8  -7  242.69   34.02  -2
  -1  -8   8  242.69   34.02   1
   7   8  -8  328.95   33.48  -6
   1   8   7  328.95   33.48  -5
  -8   8   1  328.95   33.48  -4
  -7   8  -1  328.95   33.48  -3
   8   8  -7  328.95   33.48  -2
  -1   8   8  328.95   33.48   1
   8  -8  -8  159.42   35.32  -6
   0  -8   8  159.42   35.32  -5
  -8  -8   0  159.42   35.32  -4
  -8  -8   0  159.42   35.32  -3
   8  -8  -8  159.42   35.32  -2
   0  -8   8  159.42   35.32   1
   8   8  -8  178.75   33.87  -6
   0   8   8  178.75   33.87  -5
  -8   8   0  178.75   33.87  -4
  -8   8   0  178.75   33.87  -3
   8   8  -8  178.75   33.87  -2
   0   8   8  178.75   33.87   1
   3  -9  -8  590.61   38.74  -6
   5  -9   3  590.61   38.74  -5
  -8  -9   5  590.61   38.74  -4
  -3  -9  -5  590.61   38.74  -3
   8  -9  -3  590.61   38.74  -2
  -5  -9   8  590.61   38.74   1
   4  -9  -8  590.43   35.98  -6
   4  -9   4  590.43   35.98  -5
  -8  -9   4  590.43   35.98  -4
  -4  -9  -4  590.43   35.98  -3
   8  -9  -4  590.43   35.98  -2
  -4  -9   8  590.43   35.98   1
   5  -9  -8  655.57   26.42  -6
   3  -9   5  655.57   26.42  -5
  -8  -9   3  655.57   26.42  -4
  -5  -9  -3  655.57   26.42  -3
   8  -9  -5  655.57   26.42  -2
  -3  -9   8  655.57   26.42   1
   6  -9  -8  468.80   23.39  -6
   2  -9   6  468.80   23.39  -5
  -8  -9   2  468.80   23.39  -4
  -6  -9  -2  468.80   23.39  -3
   8  -9  -6  468.80   23.39  -2
  -2  -9   8  468.80   23.39   1
   7  -9  -8  397.93   35.25  -6
   1  -9   7  397.93   35.25  -5
  -8  -9   1  397.93   35.25  -4
  -7  -9  -1  397.93   35.25  -3
   8  -9  -7  397.93   35.25  -2
  -1  -9   8  397.93   35.25   1
   8  -9  -8  237.37   35.89  -6
   0  -9   8  237.37   35.89  -5
  -8  -9   0  237.37   35.89  -4
  -8  -9   0  237.37   35.89  -3
   8  -9  -8  237.37   35.89  -2
   0  -9   8  237.37   35.89   1
   4 -10  -8  135.43   35.90  -6
   4 -10   4  135.43   35.90  -5
  -8 -10   4  135.43   35.90  -4
  -4 -10  -4  135.43   35.90  -3
   8 -10  -4  135.43   35.90  -2
  -4 -10   8  135.43   35.90   1
   5 -10  -8  230.84   24.52  -6
   3 -10   5  230.84   24.52  -5
  -8 -10   3  230.84   24.52  -4
  -5 -10  -3  230.84   24.52  -3
   8 -10  -5  230.84   24.52  -2
  -3 -10   8  230.84   24.52   1
   6 -10  -8  277.83   22.81  -6
   2 -10   6  277.83   22.81  -5
  -8 -10   2  277.83   22.81  -4
  -6 -10  -2  277.83   22.81  -3
   8 -10  -6  277.83   22.81  -2
  -2 -10   8  277.83   22.81   1
   7 -10  -8  194.47   34.36  -6
   1 -10   7  194.47   34.36  -5
  -8 -10   1  194.47   34.36  -4
  -7 -10  -1  194.47   34.36  -3
   8 -10  -7  194.47   34.36  -2
  -1 -10   8  194.47   34.36   1
   5 -11  -8  583.13   39.61  -6
   3 -11   5  583.13   39.61  -5
  -8 -11   3  583.13   39.61  -4
  -5 -11  -3  583.13   39.61  -3
   8 -11  -5  583.13   39.61  -2
  -3 -11   8  583.13   39.61   1
   6 -11  -8  537.57   25.55  -6
   2 -11   6  537.57   25.55  -5
  -8 -11   2  537.57   25.55  -4
  -6 -11  -2  537.57   25.55  -3
   8 -11  -6  537.57   25.55  -2
  -2 -11   8  537.57   25.55   1
   1   0  -9   86.74   19.50  -6
   8   0   1   86.74   19.50  -5
  -9   0   8   86.74   19.50  -4
  -1   0  -8   86.74   19.50  -3
   9   0  -1   86.74   19.50  -2
  -8   0   9   86.74   19.50   1
   2   0  -9   90.86   18.90  -6
   7   0   2   90.86   18.90  -5
  -9   0   7   90.86   18.90  -4
  -2   0  -7   90.86   18.90  -3
   9   0  -2   90.86   18.90  -2
  -7   0   9   90.86   18.90   1
   3   0  -9  323.84   35.78  -6
   6   0   3  323.84   35.78  -5
  -9   0   6  323.84   35.78  -4
  -3   0  -6  323.84   35.78  -3
   9   0  -3  323.84   35.78  -2
  -6   0   9  323.84   35.78   1
   4   0  -9  458.84   38.43  -6
   5   0   4  458.84   38.43  -5
  -9   0   5  458.84   38.43  -4
  -4   0  -5  458.84   38.43  -3
   9   0  -4  458.84   38.43  -2
  -5   0   9  458.84   38.43   1
   5   0  -9  162.07   33.61  -6
   4   0   5  162.07   33.61  -5
  -9   0   4  162.07   33.61  -4
  -5   0  -4  162.07   33.61  -3
   9   0  -5  162.07   33.61  -2
  -4   0   9  162.07   33.61   1
   6   0  -9  259.65   24.96  -6
   3   0   6  259.65   24.96  -5
  -9   0   3  259.65   24.96  -4
  -6   0  -3  259.65   24.96  -3
   9   0  -6  259.65   24.96  -2
  -3   0   9  259.65   24.96   1
   7   0  -9   81.31   23.89  -6
   2   0   7   81.31   23.89  -5
  -9   0   2   81.31   23.89  -4
  -7   0  -2   81.31   23.89  -3
   9   0  -7   81.31   23.89  -2
  -2   0   9   81.31   23.89   1
   8   0  -9  117.79   25.79  -6
   1   0   8  117.79   25.79  -5
  -9   0   1  117.79   25.79  -4
  -8   0  -1  117.79   25.79  -3
   9   0  -8  117.79   25.79  -2
  -1   0   9  117.79   25.79   1
   0   1  -9  313.22   29.94  -6
   9   1   0  313.22   29.94  -5
  -9   1   9  313.22   29.94  -4
   0   1  -9  313.22   29.94  -3
   9   1   0  313.22   29.94  -2
  -9   1   9  313.22   29.94   1
   1   1  -9  452.23   21.88  -6
   8   1   1  452.23   21.88  -5
  -9   1   8  452.23   21.88  -4
  -1   1  -8  452.23   21.88  -3
   9   1  -1  452.23   21.88  -2
  -8   1   9  452.23   21.88   1
   2   1  -9  647.50   23.07  -6
   7   1   2  647.50   23.07  -5
  -9   1   7  647.50   23.07  -4
  -2   1  -7  647.50   23.07  -3
   9   1  -2  647.50   23.07  -2
  -7   1   9  647.50   23.07   1
   3  -1  -9  762.41   41.05  -6
   6  -1   3  762.41   41.05  -5
  -9  -1   6  762.41   41.05  -4
  -3  -1  -6  762.41   41.05  -3
   9  -1  -3  762.41   41.05  -2
  -6  -1   9  762.41   41.05   1
   3   1  -9  896.04   39.50  -6
   6   1   3  896.04   39.50  -5
  -9   1   6  896.04   39.50  -4
  -3   1  -6  896.04   39.50  -3
   9   1  -3  896.04   39.50  -2
  -6   1   9  896.04   39.50   1
   4  -1  -9 1428.53   45.63  -6
   5  -1   4 1428.53   45.63  -5
  -9  -1   5 1428.53   45.63  -4
  -4  -1  -5 1428.53   45.63  -3
   9  -1  -4 1428.53   45.63  -2
  -5  -1   9 1428.53   45.63   1
   4   1  -9 1214.63   42.82  -6
   5   1   4 1214.63   42.82  -5
  -9   1   5 1214.63   42.82  -4
  -4   1  -5 1214.63   42.82  -3
   9   1  -4 1214.63   42.82  -2
  -5   1   9 1214.63   42.82   1
   5  -1  -9 1218.38   45.32  -6
   4  -1   5 1218.38   45.32  -5
  -9  -1   4 1218.38   45.32  -4
  -5  -1  -4 1218.38   45.32  -3
   9  -1  -5 1218.38   45.32  -2
  -4  -1   9 1218.38   45.32   1
   5   1  -9 1379.05   44.34  -6
   4   1   5 1379.05   44.34  -5
  -9   1   4 1379.05   44.34  -4
  -5   1  -4 1379.05   44.34  -3
   9   1  -5 1379.05   44.34  -2
  -4   1   9 1379.05   44.34   1
   6  -1  -9  800.21   27.81  -6
   3  -1   6  800.21   27.81  -5
  -9  -1   3  800.21   27.81  -4
  -6  -1  -3  800.21   27.81  -3
   9  -1  -6  800.21   27.81  -2
  -3  -1   9  800.21   27.81   1
   6   1  -9  795.62   28.41  -6
   3   1   6  795.62   28.41  -5
  -9   1   3  795.62   28.41  -4
  -6   1  -3  795.62   28.41  -3
   9   1  -6  795.62   28.41  -2
  -3   1   9  795.62   28.41   1
   7  -1  -9  591.66   27.13  -6
   2  -1   7  591.66   27.13  -5
  -9  -1   2  591.66   27.13  -4
  -7  -1  -2  591.66   27.13  -3
   9  -1  -7  591.66   27.13  -2
  -2  -1   9  591.66   27.13   1
   7   1  -9  590.93   34.10  -6
   2   1   7  590.93   34.10  -5
  -9   1   2  590.93   34.10  -4
  -7   1  -2  590.93   34.10  -3
   9   1  -7  590.93   34.10  -2
  -2   1   9  590.93   34.10   1
   8  -1  -9  433.67   27.66  -6
   1  -1   8  433.67   27.66  -5
  -9  -1   1  433.67   27.66  -4
  -8  -1  -1  433.67   27.66  -3
   9  -1  -8  433.67   27.66  -2
  -1  -1   9  433.67   27.66   1
   8   1  -9  459.34   26.52  -6
   1   1   8  459.34   26.52  -5
  -9   1   1  459.34   26.52  -4
  -8   1  -1  459.34   26.52  -3
   9   1  -8  459.34   26.52  -2
  -1   1   9  459.34   26.52   1
   0   2  -9  114.91   29.74  -6
   9   2   0  114.91   29.74  -5
  -9   2   9  114.91   29.74  -4
   0   2  -9  114.91   29.74  -3
   9   2   0  114.91   29.74  -2
  -9   2   9  114.91   29.74   1
   1   2  -9  139.16   20.14  -6
   8   2   1  139.16   20.14  -5
  -9   2   8  139.16   20.14  -4
  -1   2  -8  139.16   20.14  -3
   9   2  -1  139.16   20.14  -2
  -8   2   9  139.16   20.14   1
   2   2  -9  110.67   19.62  -6
   7   2   2  110.67   19.62  -5
  -9   2   7  110.67   19.62  -4
  -2   2  -7  110.67   19.62  -3
   9   2  -2  110.67   19.62  -2
  -7   2   9  110.67   19.62   1
   3   2  -9  279.60   33.66  -6
   6   2   3  279.60   33.66  -5
  -9   2   6  279.60   33.66  -4
  -3   2  -6  279.60   33.66  -3
   9   2  -3  279.60   33.66  -2
  -6   2   9  279.60   33.66   1
   4  -2  -9  258.39   37.07  -6
   5  -2   4  258.39   37.07  -5
  -9  -2   5  258.39   37.07  -4
  -4  -2  -5  258.39   37.07  -3
   9  -2  -4  258.39   37.07  -2
  -5  -2   9  258.39   37.07   1
   4   2  -9  356.68   36.77  -6
   5   2   4  356.68   36.77  -5
  -9   2   5  356.68   36.77  -4
  -4   2  -5  356.68   36.77  -3
   9   2  -4  356.68   36.77  -2
  -5   2   9  356.68   36.77   1
   5  -2  -9  104.83   35.99  -6
   4  -2   5  104.83   35.99  -5
  -9  -2   4  104.83   35.99  -4
  -5  -2  -4  104.83   35.99  -3
   9  -2  -5  104.83   35.99  -2
  -4  -2   9  104.83   35.99   1
   5   2  -9  284.40   37.75  -6
   4   2   5  284.40   37.75  -5
  -9   2   4  284.40   37.75  -4
  -5   2  -4  284.40   37.75  -3
   9   2  -5  284.40   37.75  -2
  -4   2   9  284.40   37.75   1
   6  -2  -9  174.72   24.20  -6
   3  -2   6  174.72   24.20  -5
  -9  -2   3  174.72   24.20  -4
  -6  -2  -3  174.72   24.20  -3
   9  -2  -6  174.72   24.20  -2
  -3  -2   9  174.72   24.20   1
   6   2  -9  230.44   26.85  -6
   3   2   6  230.44   26.85  -5
  -9   2   3  230.44   26.85  -4
  -6   2  -3  230.44   26.85  -3
   9   2  -6  230.44   26.85  -2
  -3   2   9  230.44   26.85   1
   7  -2  -9   53.84   23.02  -6
   2  -2   7   53.84   23.02  -5
  -9  -2   2   53.84   23.02  -4
  -7  -2  -2   53.84   23.02  -3
   9  -2  -7   53.84   23.02  -2
  -2  -2   9   53.84   23.02   1
   7   2  -9  117.32   24.51  -6
   2   2   7  117.32   24.51  -5
  -9   2   2  117.32   24.51  -4
  -7   2  -2  117.32   24.51  -3
   9   2  -7  117.32   24.51  -2
  -2   2   9  117.32   24.51   1
   8  -2  -9  177.45   33.93  -6
   1  -2   8  177.45   33.93  -5
  -9  -2   1  177.45   33.93  -4
  -8  -2  -1  177.45   33.93  -3
   9  -2  -8  177.45   33.93  -2
  -1  -2   9  177.45   33.93   1
   8   2  -9  227.67   36.16  -6
   1   2   8  227.67   36.16  -5
  -9   2   1  227.67   36.16  -4
  -8   2  -1  227.67   36.16  -3
   9   2  -8  227.67   36.16  -2
  -1   2   9  227.67   36.16   1
   1   3  -9  425.45   28.73  -6
   8   3   1  425.45   28.73  -5
  -9   3   8  425.45   28.73  -4
  -1   3  -8  425.45   28.73  -3
   9   3  -1  425.45   28.73  -2
  -8   3   9  425.45   28.73   1
   2   3  -9  631.09   24.13  -6
   7   3   2  631.09   24.13  -5
  -9   3   7  631.09   24.13  -4
  -2   3  -7  631.09   24.13  -3
   9   3  -2  631.09   24.13  -2
  -7   3   9  631.09   24.13   1
   3   3  -9  866.72   40.86  -6
   6   3   3  866.72   40.86  -5
  -9   3   6  866.72   40.86  -4
  -3   3  -6  866.72   40.86  -3
   9   3  -3  866.72   40.86  -2
  -6   3   9  866.72   40.86   1
   4   3  -9  995.15   43.18  -6
   5   3   4  995.15   43.18  -5
  -9   3   5  995.15   43.18  -4
  -4   3  -5  995.15   43.18  -3
   9   3  -4  995.15   43.18  -2
  -5   3   9  995.15   43.18   1
   5   3  -9  982.95   31.69  -6
   4   3   5  982.95   31.69  -5
  -9   3   4  982.95   31.69  -4
  -5   3  -4  982.95   31.69  -3
   9   3  -5  982.95   31.69  -2
  -4   3   9  982.95   31.69   1
   6  -3  -9  704.04   39.19  -6
   3  -3   6  704.04   39.19  -5
  -9  -3   3  704.04   39.19  -4
  -6  -3  -3  704.04   39.19  -3
   9  -3  -6  704.04   39.19  -2
  -3  -3   9  704.04   39.19   1
   6   3  -9  725.72   29.18  -6
   3   3   6  725.72   29.18  -5
  -9   3   3  725.72   29.18  -4
  -6   3  -3  725.72   29.18  -3
   9   3  -6  725.72   29.18  -2
  -3   3   9  725.72   29.18   1
   7  -3  -9  547.66   35.97  -6
   2  -3   7  547.66   35.97  -5
  -9  -3   2  547.66   35.97  -4
  -7  -3  -2  547.66   35.97  -3
   9  -3  -7  547.66   35.97  -2
  -2  -3   9  547.66   35.97   1
   7   3  -9  648.12   36.87  -6
   2   3   7  648.12   36.87  -5
  -9   3   2  648.12   36.87  -4
  -7   3  -2  648.12   36.87  -3
   9   3  -7  648.12   36.87  -2
  -2   3   9  648.12   36.87   1
   8  -3  -9  396.66   35.49  -6
   1  -3   8  396.66   35.49  -5
  -9  -3   1  396.66   35.49  -4
  -8  -3  -1  396.66   35.49  -3
   9  -3  -8  396.66   35.49  -2
  -1  -3   9  396.66   35.49   1
   8   3  -9  460.68   37.76  -6
   1   3   8  460.68   37.76  -5
  -9   3   1  460.68   37.76  -4
  -8   3  -1  460.68   37.76  -3
   9   3  -8  460.68   37.76  -2
  -1   3   9  460.68   37.76   1
   1   4  -9  141.05   28.01  -6
   8   4   1  141.05   28.01  -5
  -9   4   8  141.05   28.01  -4
  -1   4  -8  141.05   28.01  -3
   9   4  -1  141.05   28.01  -2
  -8   4   9  141.05   28.01   1
   2   4  -9  249.80   22.78  -6
   7   4   2  249.80   22.78  -5
  -9   4   7  249.80   22.78  -4
  -2   4  -7  249.80   22.78  -3
   9   4  -2  249.80   22.78  -2
  -7   4   9  249.80   22.78   1
   3   4  -9  313.42   41.25  -6
   6   4   3  313.42   41.25  -5
  -9   4   6  313.42   41.25  -4
  -3   4  -6  313.42   41.25  -3
   9   4  -3  313.42   41.25  -2
  -6   4   9  313.42   41.25   1
   4   4  -9  309.35   42.44  -6
   5   4   4  309.35   42.44  -5
  -9   4   5  309.35   42.44  -4
  -4   4  -5  309.35   42.44  -3
   9   4  -4  309.35   42.44  -2
  -5   4   9  309.35   42.44   1
   5   4  -9  298.56   26.22  -6
   4   4   5  298.56   26.22  -5
  -9   4   4  298.56   26.22  -4
  -5   4  -4  298.56   26.22  -3
   9   4  -5  298.56   26.22  -2
  -4   4   9  298.56   26.22   1
   6  -4  -9  272.26   36.64  -6
   3  -4   6  272.26   36.64  -5
  -9  -4   3  272.26   36.64  -4
  -6  -4  -3  272.26   36.64  -3
   9  -4  -6  272.26   36.64  -2
  -3  -4   9  272.26   36.64   1
   6   4  -9  314.88   33.28  -6
   3   4   6  314.88   33.28  -5
  -9   4   3  314.88   33.28  -4
  -6   4  -3  314.88   33.28  -3
   9   4  -6  314.88   33.28  -2
  -3   4   9  314.88   33.28   1
   7  -4  -9  196.94   33.97  -6
   2  -4   7  196.94   33.97  -5
  -9  -4   2  196.94   33.97  -4
  -7  -4  -2  196.94   33.97  -3
   9  -4  -7  196.94   33.97  -2
  -2  -4   9  196.94   33.97   1
   7   4  -9  312.63   33.70  -6
   2   4   7  312.63   33.70  -5
  -9   4   2  312.63   33.70  -4
  -7   4  -2  312.63   33.70  -3
   9   4  -7  312.63   33.70  -2
  -2   4   9  312.63   33.70   1
   8  -4  -9   37.60   33.50  -6
   1  -4   8   37.60   33.50  -5
  -9  -4   1   37.60   33.50  -4
  -8  -4  -1   37.60   33.50  -3
   9  -4  -8   37.60   33.50  -2
  -1  -4   9   37.60   33.50   1
   8   4  -9  230.90   33.91  -6
   1   4   8  230.90   33.91  -5
  -9   4   1  230.90   33.91  -4
  -8   4  -1  230.90   33.91  -3
   9   4  -8  230.90   33.91  -2
  -1   4   9  230.90   33.91   1
   2   5  -9  632.00   26.02  -6
   7   5   2  632.00   26.02  -5
  -9   5   7  632.00   26.02  -4
  -2   5  -7  632.00   26.02  -3
   9   5  -2  632.00   26.02  -2
  -7   5   9  632.00   26.02   1
   3   5  -9  748.51   41.38  -6
   6   5   3  748.51   41.38  -5
  -9   5   6  748.51   41.38  -4
  -3   5  -6  748.51   41.38  -3
   9   5  -3  748.51   41.38  -2
  -6   5   9  748.51   41.38   1
   5   5  -9  713.97   37.12  -6
   4   5   5  713.97   37.12  -5
  -9   5   4  713.97   37.12  -4
  -5   5  -4  713.97   37.12  -3
   9   5  -5  713.97   37.12  -2
  -4   5   9  713.97   37.12   1
   6  -5  -9  734.08   40.28  -6
   3  -5   6  734.08   40.28  -5
  -9  -5   3  734.08   40.28  -4
  -6  -5  -3  734.08   40.28  -3
   9  -5  -6  734.08   40.28  -2
  -3  -5   9  734.08   40.28   1
   6   5  -9  661.34   34.84  -6
   3   5   6  661.34   34.84  -5
  -9   5   3  661.34   34.84  -4
  -6   5  -3  661.34   34.84  -3
   9   5  -6  661.34   34.84  -2
  -3   5   9  661.34   34.84   1
   7  -5  -9  509.54   36.76  -6
   2  -5   7  509.54   36.76  -5
  -9  -5   2  509.54   36.76  -4
  -7  -5  -2  509.54   36.76  -3
   9  -5  -7  509.54   36.76  -2
  -2  -5   9  509.54   36.76   1
   7   5  -9  577.42   36.16  -6
   2   5   7  577.42   36.16  -5
  -9   5   2  577.42   36.16  -4
  -7   5  -2  577.42   36.16  -3
   9   5  -7  577.42   36.16  -2
  -2   5   9  577.42   36.16   1
   8  -5  -9  401.35   35.92  -6
   1  -5   8  401.35   35.92  -5
  -9  -5   1  401.35   35.92  -4
  -8  -5  -1  401.35   35.92  -3
   9  -5  -8  401.35   35.92  -2
  -1  -5   9  401.35   35.92   1
   8   5  -9  611.48   40.39  -6
   1   5   8  611.48   40.39  -5
  -9   5   1  611.48   40.39  -4
  -8   5  -1  611.48   40.39  -3
   9   5  -8  611.48   40.39  -2
  -1   5   9  611.48   40.39   1
   2   6  -9  266.54   32.82  -6
   7   6   2  266.54   32.82  -5
  -9   6   7  266.54   32.82  -4
  -2   6  -7  266.54   32.82  -3
   9   6  -2  266.54   32.82  -2
  -7   6   9  266.54   32.82   1
   3  -6  -9  146.69   37.91  -6
   6  -6   3  146.69   37.91  -5
  -9  -6   6  146.69   37.91  -4
  -3  -6  -6  146.69   37.91  -3
   9  -6  -3  146.69   37.91  -2
  -6  -6   9  146.69   37.91   1
   5   6  -9  269.60   34.53  -6
   4   6   5  269.60   34.53  -5
  -9   6   4  269.60   34.53  -4
  -5   6  -4  269.60   34.53  -3
   9   6  -5  269.60   34.53  -2
  -4   6   9  269.60   34.53   1
   6  -6  -9  267.99   37.19  -6
   3  -6   6  267.99   37.19  -5
  -9  -6   3  267.99   37.19  -4
  -6  -6  -3  267.99   37.19  -3
   9  -6  -6  267.99   37.19  -2
  -3  -6   9  267.99   37.19   1
   6   6  -9  359.32   34.26  -6
   3   6   6  359.32   34.26  -5
  -9   6   3  359.32   34.26  -4
  -6   6  -3  359.32   34.26  -3
   9   6  -6  359.32   34.26  -2
  -3   6   9  359.32   34.26   1
   7  -6  -9  194.95   25.39  -6
   2  -6   7  194.95   25.39  -5
  -9  -6   2  194.95   25.39  -4
  -7  -6  -2  194.95   25.39  -3
   9  -6  -7  194.95   25.39  -2
  -2  -6   9  194.95   25.39   1
   8   6  -9  301.06   41.85  -6
   1   6   8  301.06   41.85  -5
  -9   6   1  301.06   41.85  -4
  -8   6  -1  301.06   41.85  -3
   9   6  -8  301.06   41.85  -2
  -1   6   9  301.06   41.85   1
   4  -7  -9  524.18   40.09  -6
   5  -7   4  524.18   40.09  -5
  -9  -7   5  524.18   40.09  -4
  -4  -7  -5  524.18   40.09  -3
   9  -7  -4  524.18   40.09  -2
  -5  -7   9  524.18   40.09   1
   4   7  -9  724.59   38.36  -6
   5   7   4  724.59   38.36  -5
  -9   7   5  724.59   38.36  -4
  -4   7  -5  724.59   38.36  -3
   9   7  -4  724.59   38.36  -2
  -5   7   9  724.59   38.36   1
   5  -7  -9  478.29   36.95  -6
   4  -7   5  478.29   36.95  -5
  -9  -7   4  478.29   36.95  -4
  -5  -7  -4  478.29   36.95  -3
   9  -7  -5  478.29   36.95  -2
  -4  -7   9  478.29   36.95   1
   5   7  -9  617.08   34.62  -6
   4   7   5  617.08   34.62  -5
  -9   7   4  617.08   34.62  -4
  -5   7  -4  617.08   34.62  -3
   9   7  -5  617.08   34.62  -2
  -4   7   9  617.08   34.62   1
   6  -7  -9  570.44   39.62  -6
   3  -7   6  570.44   39.62  -5
  -9  -7   3  570.44   39.62  -4
  -6  -7  -3  570.44   39.62  -3
   9  -7  -6  570.44   39.62  -2
  -3  -7   9  570.44   39.62   1
   6   7  -9  577.56   34.96  -6
   3   7   6  577.56   34.96  -5
  -9   7   3  577.56   34.96  -4
  -6   7  -3  577.56   34.96  -3
   9   7  -6  577.56   34.96  -2
  -3   7   9  577.56   34.96   1
   7   7  -9  578.43   35.58  -6
   2   7   7  578.43   35.58  -5
  -9   7   2  578.43   35.58  -4
  -7   7  -2  578.43   35.58  -3
   9   7  -7  578.43   35.58  -2
  -2   7   9  578.43   35.58   1
   8   7  -9  634.18   39.52  -6
   1   7   8  634.18   39.52  -5
  -9   7   1  634.18   39.52  -4
  -8   7  -1  634.18   39.52  -3
   9   7  -8  634.18   39.52  -2
  -1   7   9  634.18   39.52   1
   5  -8  -9   55.75   34.11  -6
   4  -8   5   55.75   34.11  -5
  -9  -8   4   55.75   34.11  -4
  -5  -8  -4   55.75   34.11  -3
   9  -8  -5   55.75   34.11  -2
  -4  -8   9   55.75   34.11   1
   6  -8  -9  163.95   24.07  -6
   3  -8   6  163.95   24.07  -5
  -9  -8   3  163.95   24.07  -4
  -6  -8  -3  163.95   24.07  -3
   9  -8  -6  163.95   24.07  -2
  -3  -8   9  163.95   24.07   1
   2   0 -10   95.32   36.37  -6
   8   0   2   95.32   36.37  -5
 -10   0   8   95.32   36.37  -4
  -2   0  -8   95.32   36.37  -3
  10   0  -2   95.32   36.37  -2
  -8   0  10   95.32   36.37   1
   3   0 -10  136.48   37.74  -6
   7   0   3  136.48   37.74  -5
 -10   0   7  136.48   37.74  -4
  -3   0  -7  136.48   37.74  -3
  10   0  -3  136.48   37.74  -2
  -7   0  10  136.48   37.74   1
   4   0 -10  204.89   37.72  -6
   6   0   4  204.89   37.72  -5
 -10   0   6  204.89   37.72  -4
  -4   0  -6  204.89   37.72  -3
  10   0  -4  204.89   37.72  -2
  -6   0  10  204.89   37.72   1
   5   0 -10  125.72   36.67  -6
   5   0   5  125.72   36.67  -5
 -10   0   5  125.72   36.67  -4
  -5   0  -5  125.72   36.67  -3
  10   0  -5  125.72   36.67  -2
  -5   0  10  125.72   36.67   1
   6   0 -10  225.91   38.79  -6
   4   0   6  225.91   38.79  -5
 -10   0   4  225.91   38.79  -4
  -6   0  -4  225.91   38.79  -3
  10   0  -6  225.91   38.79  -2
  -4   0  10  225.91   38.79   1
   2   1 -10  406.93   37.62  -6
   8   1   2  406.93   37.62  -5
 -10   1   8  406.93   37.62  -4
  -2   1  -8  406.93   37.62  -3
  10   1  -2  406.93   37.62  -2
  -8   1  10  406.93   37.62   1
   3  -1 -10  417.95   40.36  -6
   7  -1   3  417.95   40.36  -5
 -10  -1   7  417.95   40.36  -4
  -3  -1  -7  417.95   40.36  -3
  10  -1  -3  417.95   40.36  -2
  -7  -1  10  417.95   40.36   1
   3   1 -10  407.72   36.24  -6
   7   1   3  407.72   36.24  -5
 -10   1   7  407.72   36.24  -4
  -3   1  -7  407.72   36.24  -3
  10   1  -3  407.72   36.24  -2
  -7   1  10  407.72   36.24   1
   4  -1 -10  654.80   42.93  -6
   6  -1   4  654.80   42.93  -5
 -10  -1   6  654.80   42.93  -4
  -4  -1  -6  654.80   42.93  -3
  10  -1  -4  654.80   42.93  -2
  -6  -1  10  654.80   42.93   1
   4   1 -10  709.31   41.03  -6
   6   1   4  709.31   41.03  -5
 -10   1   6  709.31   41.03  -4
  -4   1  -6  709.31   41.03  -3
  10   1  -4  709.31   41.03  -2
  -6   1  10  709.31   41.03   1
   5  -1 -10  802.03   41.80  -6
   5  -1   5  802.03   41.80  -5
 -10  -1   5  802.03   41.80  -4
  -5  -1  -5  802.03   41.80  -3
  10  -1  -5  802.03   41.80  -2
  -5  -1  10  802.03   41.80   1
   5   1 -10  678.48   44.05  -6
   5   1   5  678.48   44.05  -5
 -10   1   5  678.48   44.05  -4
  -5   1  -5  678.48   44.05  -3
  10   1  -5  678.48   44.05  -2
  -5   1  10  678.48   44.05   1
   6   1 -10  649.19   43.41  -6
   4   1   6  649.19   43.41  -5
 -10   1   4  649.19   43.41  -4
  -6   1  -4  649.19   43.41  -3
  10   1  -6  649.19   43.41  -2
  -4   1  10  649.19   43.41   1
   2   2 -10   97.07   22.73  -6
   8   2   2   97.07   22.73  -5
 -10   2   8   97.07   22.73  -4
  -2   2  -8   97.07   22.73  -3
  10   2  -2   97.07   22.73  -2
  -8   2  10   97.07   22.73   1
   3   2 -10  167.16   35.84  -6
   7   2   3  167.16   35.84  -5
 -10   2   7  167.16   35.84  -4
  -3   2  -7  167.16   35.84  -3
  10   2  -3  167.16   35.84  -2
  -7   2  10  167.16   35.84   1
   4   2 -10  180.29   39.92  -6
   6   2   4  180.29   39.92  -5
 -10   2   6  180.29   39.92  -4
  -4   2  -6  180.29   39.92  -3
  10   2  -4  180.29   39.92  -2
  -6   2  10  180.29   39.92   1
   5   2 -10  125.63   38.87  -6
   5   2   5  125.63   38.87  -5
 -10   2   5  125.63   38.87  -4
  -5   2  -5  125.63   38.87  -3
  10   2  -5  125.63   38.87  -2
  -5   2  10  125.63   38.87   1
   6   2 -10  179.98   36.16  -6
   4   2   6  179.98   36.16  -5
 -10   2   4  179.98   36.16  -4
  -6   2  -4  179.98   36.16  -3
  10   2  -6  179.98   36.16  -2
  -4   2  10  179.98   36.16   1
   2   3 -10  360.79   33.52  -6
   8   3   2  360.79   33.52  -5
 -10   3   8  360.79   33.52  -4
  -2   3  -8  360.79   33.52  -3
  10   3  -2  360.79   33.52  -2
  -8   3  10  360.79   33.52   1
   3   3 -10  353.19   39.16  -6
   7   3   3  353.19   39.16  -5
 -10   3   7  353.19   39.16  -4
  -3   3  -7  353.19   39.16  -3
  10   3  -3  353.19   39.16  -2
  -7   3  10  353.19   39.16   1
   4   3 -10  538.98   44.42  -6
   6   3   4  538.98   44.42  -5
 -10   3   6  538.98   44.42  -4
  -4   3  -6  538.98   44.42  -3
  10   3  -4  538.98   44.42  -2
  -6   3  10  538.98   44.42   1
   5   3 -10  743.12   48.99  -6
   5   3   5  743.12   48.99  -5
 -10   3   5  743.12   48.99  -4
  -5   3  -5  743.12   48.99  -3
  10   3  -5  743.12   48.99  -2
  -5   3  10  743.12   48.99   1
   6   3 -10  472.55   40.93  -6
   4   3   6  472.55   40.93  -5
 -10   3   4  472.55   40.93  -4
  -6   3  -4  472.55   40.93  -3
  10   3  -6  472.55   40.93  -2
  -4   3  10  472.55   40.93   1
   3   4 -10  200.76   43.66  -6
   7   4   3  200.76   43.66  -5
 -10   4   7  200.76   43.66  -4
  -3   4  -7  200.76   43.66  -3
  10   4  -3  200.76   43.66  -2
  -7   4  10  200.76   43.66   1
   4   4 -10  192.29   42.50  -6
   6   4   4  192.29   42.50  -5
 -10   4   6  192.29   42.50  -4
  -4   4  -6  192.29   42.50  -3
  10   4  -4  192.29   42.50  -2
  -6   4  10  192.29   42.50   1
   5   4 -10  127.54   27.34  -6
   5   4   5  127.54   27.34  -5
 -10   4   5  127.54   27.34  -4
  -5   4  -5  127.54   27.34  -3
  10   4  -5  127.54   27.34  -2
  -5   4  10  127.54   27.34   1
   6   4 -10  191.06   35.95  -6
   4   4   6  191.06   35.95  -5
 -10   4   4  191.06   35.95  -4
  -6   4  -4  191.06   35.95  -3
  10   4  -6  191.06   35.95  -2
  -4   4  10  191.06   35.95   1
   5   5 -10  686.49   41.59  -6
   5   5   5  686.49   41.59  -5
 -10   5   5  686.49   41.59  -4
  -5   5  -5  686.49   41.59  -3
  10   5  -5  686.49   41.59  -2
  -5   5  10  686.49   41.59   1
   6   5 -10  576.67   37.80  -6
   4   5   6  576.67   37.80  -5
 -10   5   4  576.67   37.80  -4
  -6   5  -4  576.67   37.80  -3
  10   5  -6  576.67   37.80  -2
  -4   5  10  576.67   37.80   1
   5   6 -10  144.05   35.44  -6
   5   6   5  144.05   35.44  -5
 -10   6   5  144.05   35.44  -4
  -5   6  -5  144.05   35.44  -3
  10   6  -5  144.05   35.44  -2
  -5   6  10  144.05   35.44   1
   6   6 -10  144.00   33.33  -6
   4   6   6  144.00   33.33  -5
 -10   6   4  144.00   33.33  -4
  -6   6  -4  144.00   33.33  -3
  10   6  -6  144.00   33.33  -2
  -4   6  10  144.00   33.33   1
   0   0   0    0.00    0.00  -6
   0   0   0    0.00    0.00  -5
   0   0   0    0.00    0.00  -4
   0   0   0    0.00    0.00  -3
   0   0   0    0.00    0.00  -2
   0   0   0    0.00    0.00   1
;
_shelx_hkl_checksum              45234
_shelx_res_file
;
TITL exp_3456 in P2(1)
    mergt.res
    created by SHELXL-2018/3 at 14:54:31 on 16-Dec-2019
REM P2(1) (#4 in standard setting)
CELL 0.71073   7.900  12.842   8.118 90.00 119.04  90.00
ZERR    2.00   0.002   0.003   0.002   0.00   0.02   0.00
LATT -1
SYMM -x, y+1/2,-z
SFAC C H N S  Re
UNIT 16 40 2 8 2
LIST 4 ! automatically inserted. Change 6 to 4 for CHECKCIF!!
acta
shel 9999 0.72
L.S. 10
ACTA
TEMP -123
BOND $H
FMAP 2
PLAN 10
SADI Re S1 Re S2 Re S3 Re S4
SADI 0.04 S1 S2 S1 S3 S1 S4 S2 S3 S2 S4 S3 S4
rigu
twst 0
simu
SADI 0.04 C1 C3 C1 C5
sadi
WGHT    0.059600   29.542404
BASF   0.21338   0.08049   0.08415   0.23280   0.21209
FVAR       0.62954
RE    5    0.022219    0.254523    0.037838    11.00000    0.03223    0.00803 =
         0.02153    0.00404    0.02066    0.00464
S1    4    0.054165    0.419389    0.036145    11.00000    0.02662    0.00838 =
         0.02547    0.00467    0.00544   -0.00089
S2    4   -0.104822    0.196085   -0.240101    11.00000    0.01474    0.02089 =
         0.02997   -0.00383    0.01044   -0.00288
S3    4   -0.150170    0.216569    0.162510    11.00000    0.02474    0.02650 =
         0.03933    0.00569    0.02521    0.00557
S4    4    0.303616    0.187904    0.193715    11.00000    0.01863    0.01643 =
         0.04830    0.00175    0.01111    0.01160
same n c3 c4 c5 c6 c7 c8 c1 c2
N     3    0.679739    0.512829    0.325607    11.00000    0.01598
C1    1    0.595132    0.416648    0.365993    11.00000    0.02517
AFIX  23
H1A   2    0.682470    0.357262    0.384336    11.00000   -1.20000
H1B   2    0.469486    0.401274    0.253227    11.00000   -1.20000
AFIX   0
C2    1    0.562173    0.422315    0.537499    11.00000    0.03031
AFIX  33
H2A   2    0.507365    0.356325    0.550356    11.00000   -1.50000
H2B   2    0.685905    0.435040    0.651499    11.00000   -1.50000
H2C   2    0.472238    0.479193    0.519969    11.00000   -1.50000
AFIX   0
C3    1    0.877826    0.535479    0.491639    11.00000    0.02454
AFIX  23
H3A   2    0.860836    0.555189    0.600623    11.00000   -1.20000
H3B   2    0.932921    0.596495    0.459715    11.00000   -1.20000
AFIX   0
C4    1    1.024732    0.446528    0.552295    11.00000    0.02937
AFIX  33
H4A   2    1.147093    0.468969    0.659847    11.00000   -1.50000
H4B   2    0.974470    0.386098    0.588604    11.00000   -1.50000
H4C   2    1.046759    0.427522    0.447296    11.00000   -1.50000
AFIX   0
C5    1    0.546137    0.604444    0.291597    11.00000    0.02716
AFIX  23
H5A   2    0.527783    0.612571    0.403188    11.00000   -1.20000
H5B   2    0.418227    0.587752    0.182885    11.00000   -1.20000
AFIX   0
C6    1    0.613437    0.708717    0.253300    11.00000    0.02499
AFIX  33
H6A   2    0.517313    0.762502    0.233300    11.00000   -1.50000
H6B   2    0.738025    0.727722    0.361484    11.00000   -1.50000
H6C   2    0.628155    0.702831    0.140546    11.00000   -1.50000
AFIX   0
C7    1    0.702638    0.493980    0.152805    11.00000    0.01743
AFIX  23
H7A   2    0.780548    0.430017    0.174116    11.00000   -1.20000
H7B   2    0.777263    0.552620    0.140771    11.00000   -1.20000
AFIX   0
C8    1    0.516012    0.482419   -0.032961    11.00000    0.02136
AFIX  33
H8A   2    0.546821    0.470602   -0.134755    11.00000   -1.50000
H8B   2    0.442106    0.423120   -0.025216    11.00000   -1.50000
H8C   2    0.438810    0.546083   -0.058658    11.00000   -1.50000
AFIX   0
HKLF 5
REM  exp_3456 in P2(1)
REM wR2 = 0.1378, GooF = S = 1.085, Restrained GooF = 1.071 for all data
REM R1 = 0.0519 for 2808 Fo > 4sig(Fo) and 0.0525 for all 2814 data
REM 87 parameters refined using 89 restraints
END
WGHT      0.0596     29.5424
REM SADI restraints, including those derived from SAME
SADI 0.0200  Re S1  Re S2  Re S3  Re S4
SADI 0.0200  C1 C2  C7 C8  C5 C6  C3 C4
SADI 0.0200  N C1  N C7  N C5  N C3
SADI 0.0400  S1 S3  S3 S4  S1 S4  S2 S3  S2 S4  S1 S2
SADI 0.0400  C3 C5  C1 C3  C5 C7  C1 C7  C1 C5  C3 C7
SADI 0.0400  N C6  N C4  N C8  N C2
REM Highest difference peak  2.005,  deepest hole -4.804,  1-sigma level  0.305
Q1    1  -0.0329  0.2510 -0.1039  11.00000  0.05    2.01
Q2    1   0.1513  0.2158  0.1274  11.00000  0.05    1.66
Q3    1  -0.1028  0.2527 -0.0650  11.00000  0.05    1.63
Q4    1   0.1999  0.2203  0.0404  11.00000  0.05    1.60
Q5    1   0.0408  0.2534 -0.1410  11.00000  0.05    1.58
Q6    1   0.1496  0.2929  0.1237  11.00000  0.05    1.54
Q7    1  -0.1461  0.2870  0.0446  11.00000  0.05    1.47
Q8    1   0.1000  0.2565  0.1870  11.00000  0.05    1.41
Q9    1  -0.0801  0.2594  0.1228  11.00000  0.05    1.39
Q10   1   0.8417  0.7840  0.1355  11.00000  0.05    1.34
;
_shelx_res_checksum              68323
loop_
_space_group_symop_operation_xyz
'x, y, z'
'-x, y+1/2, -z'
loop_
_atom_site_type_symbol
_atom_site_label
_atom_site_fract_x
_atom_site_fract_y
_atom_site_fract_z
_atom_site_U_iso_or_equiv
_atom_site_adp_type
_atom_site_calc_flag
_atom_site_occupancy
Re Re 0.0222(5) 0.25452(19) 0.03784(19) 0.0174(3) Uani d 1
S S1 0.0542(18) 0.4194(5) 0.0361(16) 0.023(3) Uani d 1
S S2 -0.105(2) 0.1961(8) -0.2401(14) 0.022(2) Uani d 1
S S3 -0.150(2) 0.2166(9) 0.163(2) 0.026(3) Uani d 1
S S4 0.3036(17) 0.1879(9) 0.194(2) 0.030(3) Uani d 1
N N 0.680(3) 0.5128(17) 0.326(3) 0.016(6) Uiso d 1
C C1 0.595(6) 0.417(2) 0.366(5) 0.025(9) Uiso d 1
H H1A 0.682470 0.357262 0.384336 0.030 Uiso calc 1
H H1B 0.469486 0.401274 0.253227 0.030 Uiso calc 1
C C2 0.562(8) 0.422(4) 0.537(7) 0.030(11) Uiso d 1
H H2A 0.507365 0.356325 0.550356 0.045 Uiso calc 1
H H2B 0.685905 0.435040 0.651499 0.045 Uiso calc 1
H H2C 0.472238 0.479193 0.519969 0.045 Uiso calc 1
C C3 0.878(5) 0.535(3) 0.492(5) 0.025(9) Uiso d 1
H H3A 0.860836 0.555189 0.600623 0.029 Uiso calc 1
H H3B 0.932921 0.596495 0.459715 0.029 Uiso calc 1
C C4 1.025(7) 0.447(3) 0.552(7) 0.029(10) Uiso d 1
H H4A 1.147093 0.468969 0.659847 0.044 Uiso calc 1
H H4B 0.974470 0.386098 0.588604 0.044 Uiso calc 1
H H4C 1.046759 0.427522 0.447296 0.044 Uiso calc 1
C C5 0.546(5) 0.604(2) 0.292(6) 0.027(9) Uiso d 1
H H5A 0.527783 0.612571 0.403188 0.033 Uiso calc 1
H H5B 0.418227 0.587752 0.182885 0.033 Uiso calc 1
C C6 0.613(8) 0.709(2) 0.253(5) 0.025(8) Uiso d 1
H H6A 0.517313 0.762502 0.233300 0.037 Uiso calc 1
H H6B 0.738025 0.727722 0.361484 0.037 Uiso calc 1
H H6C 0.628155 0.702831 0.140546 0.037 Uiso calc 1
C C7 0.703(5) 0.494(3) 0.153(5) 0.017(8) Uiso d 1
H H7A 0.780548 0.430017 0.174116 0.021 Uiso calc 1
H H7B 0.777263 0.552620 0.140771 0.021 Uiso calc 1
C C8 0.516(4) 0.482(3) -0.033(5) 0.021(9) Uiso d 1
H H8A 0.546821 0.470602 -0.134755 0.032 Uiso calc 1
H H8B 0.442106 0.423120 -0.025216 0.032 Uiso calc 1
H H8C 0.438810 0.546083 -0.058658 0.032 Uiso calc 1
loop_
_atom_site_aniso_label
_atom_site_aniso_U_11
_atom_site_aniso_U_22
_atom_site_aniso_U_33
_atom_site_aniso_U_12
_atom_site_aniso_U_13
_atom_site_aniso_U_23
Re 0.0322(12) 0.0080(4) 0.0215(7) 0.0046(17) 0.0207(11) 0.004(2)
S1 0.027(8) 0.008(3) 0.025(8) -0.001(3) 0.005(4) 0.005(4)
S2 0.015(7) 0.021(4) 0.030(6) -0.003(5) 0.010(5) -0.004(4)
S3 0.025(8) 0.027(5) 0.039(9) 0.006(4) 0.025(8) 0.006(5)
S4 0.019(6) 0.016(5) 0.048(9) 0.012(5) 0.011(6) 0.002(7)
loop_
_atom_type_symbol
_atom_type_description
_atom_type_scat_dispersion_real
_atom_type_scat_dispersion_imag
_atom_type_scat_source
C C 0.0033 0.0016 'International Tables Vol C Tables 4.2.6.8 and 6.1.1.4'
H H 0.0000 0.0000 'International Tables Vol C Tables 4.2.6.8 and 6.1.1.4'
N N 0.0061 0.0033 'International Tables Vol C Tables 4.2.6.8 and 6.1.1.4'
S S 0.1246 0.1234 'International Tables Vol C Tables 4.2.6.8 and 6.1.1.4'
Re Re -1.0185 7.2310 'International Tables Vol C Tables 4.2.6.8 and 6.1.1.4'
loop_
_exptl_crystal_face_index_h
_exptl_crystal_face_index_k
_exptl_crystal_face_index_l
_exptl_crystal_face_perp_dist
0 -1 0 0.0846
-1 2 1 0.1161
1 0 -1 0.0810
-1 0 1 0.0895
1 3 -1 0.1188
0 0 -1 0.0767
-4 -17 0 0.1045
1 -2 2 0.0953
-2 1 1 0.0869
-1 1 0 0.0946
1 14 -7 0.1187
0 -16 -5 0.0984
-10 8 3 0.0836
0 1 10 0.0954
3 1 -11 0.0792
-4 -12 9 0.0909
-6 12 8 0.1109
9 2 -11 0.0770
5 16 -2 0.1223
10 9 -6 0.1051
-3 8 -7 0.0994
11 1 -2 0.1129
3 14 4 0.1171
8 -2 2 0.1038
-1 0 0 0.1051
-2 12 8 0.1159
-2 -4 11 0.0867
-7 -12 7 0.0943
7 -14 -5 0.1133
-1 -10 9 0.0773
loop_
_geom_angle_atom_site_label_1
_geom_angle_atom_site_label_2
_geom_angle_atom_site_label_3
_geom_angle
S3 Re S2 110.3(6)
S3 Re S4 110.6(6)
S2 Re S4 108.0(6)
S3 Re S1 109.8(5)
S2 Re S1 110.0(4)
S4 Re S1 108.0(5)
C5 N C1 109.4(17)
C5 N C3 109.9(18)
C1 N C3 109.7(18)
C5 N C7 109.9(18)
C1 N C7 109.5(17)
C3 N C7 108.5(17)
N C1 C2 116(2)
N C1 H1A 108.2
C2 C1 H1A 108.2
N C1 H1B 108.2
C2 C1 H1B 108.2
H1A C1 H1B 107.3
C1 C2 H2A 109.5
C1 C2 H2B 109.5
H2A C2 H2B 109.5
C1 C2 H2C 109.5
H2A C2 H2C 109.5
H2B C2 H2C 109.5
N C3 C4 116(3)
N C3 H3A 108.3
C4 C3 H3A 108.3
N C3 H3B 108.3
C4 C3 H3B 108.3
H3A C3 H3B 107.4
C3 C4 H4A 109.5
C3 C4 H4B 109.5
H4A C4 H4B 109.5
C3 C4 H4C 109.5
H4A C4 H4C 109.5
H4B C4 H4C 109.5
N C5 C6 116(3)
N C5 H5A 108.3
C6 C5 H5A 108.3
N C5 H5B 108.3
C6 C5 H5B 108.3
H5A C5 H5B 107.4
C5 C6 H6A 109.5
C5 C6 H6B 109.5
H6A C6 H6B 109.5
C5 C6 H6C 109.5
H6A C6 H6C 109.5
H6B C6 H6C 109.5
N C7 C8 116(2)
N C7 H7A 108.3
C8 C7 H7A 108.3
N C7 H7B 108.3
C8 C7 H7B 108.3
H7A C7 H7B 107.4
C7 C8 H8A 109.5
C7 C8 H8B 109.5
H8A C8 H8B 109.5
C7 C8 H8C 109.5
H8A C8 H8C 109.5
H8B C8 H8C 109.5
loop_
_geom_bond_atom_site_label_1
_geom_bond_atom_site_label_2
_geom_bond_distance
Re S3 2.111(9)
Re S2 2.113(10)
Re S4 2.132(10)
Re S1 2.133(7)
N C5 1.51(2)
N C1 1.51(2)
N C3 1.52(2)
N C7 1.52(2)
C1 C2 1.54(3)
C1 H1A 0.9900
C1 H1B 0.9900
C2 H2A 0.9800
C2 H2B 0.9800
C2 H2C 0.9800
C3 C4 1.53(3)
C3 H3A 0.9900
C3 H3B 0.9900
C4 H4A 0.9800
C4 H4B 0.9800
C4 H4C 0.9800
C5 C6 1.53(3)
C5 H5A 0.9900
C5 H5B 0.9900
C6 H6A 0.9800
C6 H6B 0.9800
C6 H6C 0.9800
C7 C8 1.52(3)
C7 H7A 0.9900
C7 H7B 0.9900
C8 H8A 0.9800
C8 H8B 0.9800
C8 H8C 0.9800

_cod_database_fobs_code 2021974
