#------------------------------------------------------------------------------
#$Date: 2019-02-22 05:40:34 +0200 (Fri, 22 Feb 2019) $
#$Revision: 213785 $
#$URL: file:///home/coder/svn-repositories/cod/cif/2/02/15/2021524.cif $
#------------------------------------------------------------------------------
#
# This file is available in the Crystallography Open Database (COD),
# http://www.crystallography.net/. The original data for this entry
# were provided by IUCr Journals, http://journals.iucr.org/.
#
# The file may be used within the scientific community so long as
# proper attribution is given to the journal article from which the
# data were obtained.
#
data_2021524
loop_
_publ_author_name
'Cheng, Ling'
'Cao, Yingjie'
_publ_section_title
;
 A two-dimensional organic--inorganic hybrid perovskite-type
 semiconductor: poly[(2-azaniumylethyl)trimethylphosphanium
 [tetra-\m-bromido-plumbate(II)]]
;
_journal_coeditor_code           KU3234
_journal_issue                   3
_journal_name_full               'Acta Crystallographica Section C'
_journal_page_first
;
;
_journal_paper_doi               10.1107/S2053229619001712
_journal_volume                  75
_journal_year                    2019
_chemical_formula_iupac          '(C5 H16 N P) [Pb Br4]'
_chemical_formula_moiety         'C5 H16 N P 2+, Br4 Pb1 2-'
_chemical_formula_sum            'C5 H16 Br4 N P Pb'
_chemical_formula_weight         647.99
_chemical_name_systematic
;
Poly[(2-azaniumylethyl)trimethylphosphanium [tetra-\m-bromido-plumbate(II)]]
;
_space_group_crystal_system      monoclinic
_space_group_IT_number           4
_space_group_name_Hall           'P 2yb'
_space_group_name_H-M_alt        'P 1 21 1'
_symmetry_space_group_name_Hall  'P 2yb'
_symmetry_space_group_name_H-M   'P 1 21 1'
_atom_sites_solution_hydrogens   geom
_audit_creation_method           SHELXL-2014/7
_cell_angle_alpha                90
_cell_angle_beta                 90.43(3)
_cell_angle_gamma                90
_cell_formula_units_Z            2
_cell_length_a                   6.0127(12)
_cell_length_b                   12.056(2)
_cell_length_c                   9.962(2)
_cell_measurement_reflns_used    2927
_cell_measurement_temperature    293(2)
_cell_measurement_theta_max      27.485
_cell_measurement_theta_min      3.380
_cell_volume                     722.1(2)
_computing_cell_refinement
;
CrystalClear (Rigaku, 2005)
;
_computing_data_collection
;
CrystalClear (Rigaku, 2005)
;
_computing_data_reduction
;
CrystalClear (Rigaku, 2005)
;
_computing_molecular_graphics
;
DIAMOND (Brandenburg & Putz, 2005)
;
_computing_publication_material
;
SHELXL2014 (Sheldrick, 2015)
;
_computing_structure_refinement
;
SHELXL2014 (Sheldrick, 2015)
;
_computing_structure_solution
;
SHELXS97 (Sheldrick, 2008)
;
_diffrn_ambient_temperature      293(2)
_diffrn_detector_area_resol_mean 13.6612
_diffrn_measured_fraction_theta_full 0.999
_diffrn_measured_fraction_theta_max 0.997
_diffrn_measurement_device_type  'Rigaku SCXmini'
_diffrn_measurement_method       CCD_Profile_fitting
_diffrn_radiation_type           MoK\a
_diffrn_radiation_wavelength     0.71073
_diffrn_reflns_av_R_equivalents  0.0495
_diffrn_reflns_av_unetI/netI     0.0705
_diffrn_reflns_limit_h_max       7
_diffrn_reflns_limit_h_min       -7
_diffrn_reflns_limit_k_max       15
_diffrn_reflns_limit_k_min       -14
_diffrn_reflns_limit_l_max       12
_diffrn_reflns_limit_l_min       -11
_diffrn_reflns_number            5045
_diffrn_reflns_theta_full        25.242
_diffrn_reflns_theta_max         27.485
_diffrn_reflns_theta_min         3.380
_exptl_absorpt_coefficient_mu    22.820
_exptl_absorpt_correction_T_max  0.797
_exptl_absorpt_correction_T_min  0.761
_exptl_absorpt_correction_type   multi-scan
_exptl_absorpt_process_details
;
(CrystalClear; Rigaku, 2005)
;
_exptl_crystal_colour            colourless
_exptl_crystal_density_diffrn    2.980
_exptl_crystal_description       prism
_exptl_crystal_F_000             580
_exptl_crystal_size_max          0.2000
_exptl_crystal_size_mid          0.2000
_exptl_crystal_size_min          0.2000
_refine_diff_density_max         1.618
_refine_diff_density_min         -1.797
_refine_ls_abs_structure_details
;
 Refined as an inversion twin.
;
_refine_ls_abs_structure_Flack   0.501(17)
_refine_ls_extinction_coef       0.0255(9)
_refine_ls_extinction_expression Fc^*^=kFc[1+0.001xFc^2^\l^3^/sin(2\q)]^-1/4^
_refine_ls_extinction_method
;
SHELXL2014 (Sheldrick, 2015)
;
_refine_ls_goodness_of_fit_ref   1.102
_refine_ls_hydrogen_treatment    constr
_refine_ls_matrix_type           full
_refine_ls_number_parameters     115
_refine_ls_number_reflns         3093
_refine_ls_number_restraints     2
_refine_ls_restrained_S_all      1.102
_refine_ls_R_factor_all          0.0404
_refine_ls_R_factor_gt           0.0374
_refine_ls_shift/su_max          0.001
_refine_ls_shift/su_mean         0.000
_refine_ls_structure_factor_coef Fsqd
_refine_ls_weighting_details
'w=1/[\s^2^(Fo^2^)+(0.0192P)^2^+1.5138P] where P=(Fo^2^+2Fc^2^)/3'
_refine_ls_weighting_scheme      calc
_refine_ls_wR_factor_gt          0.0812
_refine_ls_wR_factor_ref         0.0826
_reflns_number_gt                2927
_reflns_number_total             3093
_reflns_threshold_expression     'I > 2\s(I)'
_cod_data_source_file            ku3234sup1.cif
_cod_data_source_block           I
_cod_database_code               2021524
_shelx_space_group_comment
;
The symmetry employed for this shelxl refinement is uniquely defined
by the following loop, which should always be used as a source of
symmetry information in preference to the above space-group names.
They are only intended as comments.
;
_shelx_hkl_file
;
   0   0   2  566.62   16.74
   0   0  -2  606.89   16.32
   0   0   3 1475.83   68.64
   0   0   3 1801.76   72.66
   0   0   4 1339.40   61.45
   0   0   4 1257.54   64.26
   0   0   5  293.54   13.18
   0   0   5  306.47   14.13
   0   0   6  388.28   19.99
   0   0   6  337.60   14.71
   0   0   7 1126.59   60.63
   0   0   7 1167.63   75.27
   0   0   8   51.20    5.59
   0   0   8   44.28    3.68
   0   0   9   34.84    5.31
   0   0   9   35.32    3.55
   0   0  10  211.16   11.54
   0   0  10  224.29   18.90
   0   0  11   61.55    8.71
   0   0  12   11.46    4.94
   0  -1   2   13.99    0.58
   0   1   2   16.35    0.91
   0   1   2   15.79    0.70
   0  -1   2   15.77    0.97
   0  -1   3  268.00    9.85
   0   1   3  300.53    8.70
   0   1   3  306.96   10.20
   0  -1   3  291.66    7.72
   0   1   4  131.13    4.71
   0  -1   4  107.15    3.65
   0  -1   4  119.48    5.38
   0   1   4  131.39    5.57
   0   1   5  101.29    5.27
   0   1   5   96.31    4.82
   0  -1   5   86.28    3.75
   0  -1   5   98.96    5.42
   0  -1   6  133.26    7.91
   0   1   6  137.32    7.90
   0  -1   6  128.99    5.80
   0   1   6  134.43    7.68
   0   1   7  234.78   13.88
   0  -1   7  234.11   14.78
   0   1   7  263.08   15.46
   0  -1   7  211.76    9.93
   0  -1   8    7.33    2.19
   0   1   8   25.52    2.92
   0   1   8   12.03    3.45
   0  -1   8   16.72    3.58
   0   1   9   12.13    3.40
   0   1   9   12.59    2.13
   0  -1   9    6.92    3.77
   0  -1   9    6.40    1.72
   0  -1  10  173.48    9.24
   0  -1  10  149.05   14.58
   0   1  10  161.53   14.62
   0   1  10  162.69   10.87
   0   1  11   91.61   11.11
   0  -1  11   93.25   11.38
   0  -1  12    7.18    4.09
   0   1  12    0.65    3.94
   0   2   0  656.34   12.36
   0  -2   0  631.90   11.41
   0   2   0  613.88   10.44
   0  -2   1  584.81   11.61
   0   2   1  601.40   13.42
   0   2  -1  588.92   11.62
   0   2   2  230.94    5.55
   0  -2   2  245.60    6.32
   0   2   2  228.73    5.38
   0   2  -2  225.28    4.96
   0  -2   3 1057.32   40.65
   0   2   3  952.62   34.36
   0   2   3 1025.20   38.51
   0   2  -3 1073.74   31.76
   0   2   4  866.62   38.45
   0   2   4  843.71   34.54
   0  -2   4  883.48   40.74
   0   2  -4  966.28   32.87
   0  -2   5  132.33    7.60
   0   2   5  136.74    7.37
   0   2   5  161.40    6.94
   0   2  -5  151.73    5.05
   0   2   6  649.39   33.18
   0  -2   6  680.06   36.99
   0   2   6  637.60   33.98
   0   2  -6  622.06   25.34
   0  -2   7  648.31   39.25
   0   2   7  623.84   36.65
   0   2   7  660.59   39.45
   0   2  -7  625.82   27.59
   0   2   8  360.86   23.99
   0   2   8  373.04   24.78
   0  -2   8  375.85   25.54
   0   2   9  267.10   17.79
   0   2   9  214.29   17.41
   0  -2   9  207.47   17.63
   0   2  10  331.86   21.81
   0  -2  10  387.57   31.04
   0   2  10  378.67   29.54
   0   2 -10  422.20   22.22
   0  -2  11  187.22   18.85
   0   2  11  198.57   18.73
   0  -2  12   45.00    8.02
   0   2  12   41.74    8.13
   0   3   0    2.27    0.51
   0  -3   0    3.55    0.41
   0   3   1  308.12    7.26
   0  -3   1  296.19    6.25
   0   3  -1  293.27    6.49
   0  -3   2   29.91    1.26
   0   3   2   31.43    1.32
   0   3  -2   30.18    1.09
   0   3   3   61.73    2.30
   0   3   3   64.01    2.22
   0  -3   3   61.03    2.49
   0   3  -3   58.34    1.94
   0  -3   4  268.11   11.10
   0   3   4  259.92    9.65
   0   3   4  276.82   10.70
   0   3  -4  276.56    8.54
   0   3   5  241.54   10.02
   0   3   5  215.62   10.15
   0  -3   5  215.90   10.93
   0   3  -5  217.43    7.85
   0  -3   6   39.50    3.99
   0   3   6   43.69    3.65
   0   3   6   34.13    3.74
   0   3  -6   38.92    2.64
   0   3   7  129.42    8.56
   0   3   7  140.34    8.43
   0  -3   7  134.21    9.26
   0   3  -7  117.53    5.49
   0  -3   8  185.71   12.81
   0   3   8  143.72   11.50
   0   3   8  185.03   12.71
   0   3  -8  167.27    7.65
   0  -3   9   14.87    4.13
   0   3   9   11.64    3.75
   0   3   9   21.33    3.53
   0  -3  10  108.51   11.74
   0   3  10  108.12   10.73
   0   3  10  128.12   12.97
   0   3 -10  102.25    7.27
   0   3  11   47.75    8.63
   0  -3  11   69.03    8.98
   0  -3  12   11.45    4.67
   0   3  12   10.41    4.95
   0  -4   0 1541.40   50.01
   0   4   0 1591.94   50.85
   0  -4   1  987.46   26.64
   0   4   1  982.11   30.64
   0  -4  -1  968.64   26.22
   0   4  -1 1004.28   29.92
   0  -4   2 1043.74   32.98
   0   4   2  983.98   30.07
   0   4   2 1018.94   35.82
   0   4  -2 1017.81   32.45
   0  -4   3 1175.40   45.28
   0   4   3 1122.33   45.16
   0   4   3 1129.85   41.27
   0   4  -3 1129.41   41.51
   0   4   4  789.21   32.35
   0  -4   4  831.94   34.90
   0   4   4  782.75   32.75
   0   4  -4  768.11   28.76
   0   4   5  557.93   25.38
   0  -4   5  544.73   25.65
   0   4   5  542.02   24.46
   0   4  -5  564.54   22.94
   0   4   6  557.32   29.21
   0   4   6  526.04   27.81
   0  -4   6  548.84   30.64
   0   4  -6  523.19   22.82
   0  -4   7  448.26   27.36
   0   4   7  437.16   26.26
   0   4   7  458.82   27.02
   0   4  -7  431.65   21.98
   0   4   8   48.44    5.26
   0  -4   8   49.24    6.28
   0   4   8   59.88    5.40
   0   4  -8   51.86    3.71
   0   4   9  153.49   12.57
   0   4   9  175.20   15.97
   0  -4   9  168.19   14.38
   0   4  -9  170.35    9.85
   0   4  10  137.36   13.63
   0  -4  10  126.65   12.67
   0   4  10  125.82   11.91
   0  -4  11   31.70    6.58
   0   4  11   41.37    6.63
   0   4  12   31.85    7.01
   0  -4  12   32.98    7.22
   0  -5   0    3.70    0.80
   0   5   0    3.68    0.83
   0  -5   1  232.05    6.02
   0   5   1  221.08    7.12
   0   5  -1  224.81    6.76
   0  -5  -1  223.61    5.91
   0  -5   2   81.86    2.66
   0   5   2   87.97    3.43
   0   5  -2   81.22    2.91
   0   5   3  455.62   14.72
   0  -5   3  403.02   14.47
   0   5   3  413.11   15.79
   0   5  -3  392.18   13.88
   0   5   4  215.51    8.44
   0  -5   4  229.57   10.22
   0   5   4  219.43    9.11
   0   5  -4  212.88    8.59
   0  -5   5   89.68    5.25
   0   5   5   91.66    5.11
   0   5   5   91.23    4.84
   0   5  -5   82.85    4.82
   0  -5   6  268.32   14.78
   0   5   6  268.77   13.46
   0   5   6  280.26   14.50
   0   5  -6  262.86   11.78
   0   5   7   73.61    5.31
   0   5   7   53.20    5.48
   0  -5   7   56.80    5.75
   0   5  -7   59.63    4.10
   0   5   8   82.85    6.59
   0   5   8   94.14    8.70
   0  -5   8   70.76    7.19
   0   5  -8   69.34    4.99
   0  -5   9   64.42    7.55
   0   5   9   67.04    6.83
   0   5   9   78.75    8.72
   0   5  -9   66.54    6.00
   0   5  10   55.16    7.53
   0  -5  10   75.66    8.78
   0   5  10   65.43   10.19
   0   5  11   91.85   10.80
   0  -5  11  104.46   12.10
   0   5  12   21.34    5.72
   0  -5  12   20.23    6.12
   0  -6   0  227.87    7.87
   0   6   0  194.77    6.84
   0   6   1  425.25   15.40
   0  -6   1  439.66   13.94
   0  -6  -1  439.06   13.00
   0   6  -1  431.06   15.05
   0   6   2  466.38   17.85
   0  -6   2  468.43   15.21
   0   6  -2  450.68   16.45
   0   6   3  464.11   14.85
   0  -6   3  435.54   16.15
   0   6   3  451.28   18.47
   0   6  -3  420.41   16.60
   0   6   4  285.58   11.28
   0  -6   4  289.36   12.45
   0   6   4  302.13   13.36
   0   6  -4  286.73   12.65
   0   6   5  370.00   17.48
   0  -6   5  379.02   18.13
   0   6   5  385.81   18.50
   0   6  -5  363.23   16.70
   0  -6   6  684.62   38.48
   0   6   6  613.94   32.80
   0   6   6  681.92   38.63
   0   6  -6  618.16   31.66
   0  -6   7  191.31   12.18
   0   6   7  171.05   10.86
   0   6   7  180.79   10.92
   0   6  -7  177.75   11.34
   0  -6   8  269.35   19.20
   0   6   8  287.59   19.57
   0   6   8  260.59   19.94
   0   6  -8  259.93   17.37
   0  -6   9  361.76   27.76
   0   6   9  388.91   28.58
   0   6   9  337.52   26.62
   0   6  -9  359.90   24.68
   0   6  10  214.20   18.18
   0  -6  10  194.92   18.37
   0   6  10  177.66   15.31
   0   6  11   53.56    7.74
   0  -6  11   60.43    9.20
   0   7   0    0.55    1.07
   0  -7   0    0.01    0.95
   0  -7   1  198.10    7.20
   0   7   1  181.90    7.44
   0   7  -1  174.54    7.27
   0  -7  -1  191.31    5.70
   0  -7   2   18.34    1.51
   0   7   2   17.74    1.98
   0   7  -2   16.91    1.71
   0   7   3   17.86    2.07
   0   7   3   11.30    1.25
   0  -7   3   14.47    1.58
   0   7  -3   16.37    1.74
   0  -7   4  117.86    5.87
   0   7   4  118.30    4.95
   0   7   4  118.82    6.62
   0   7  -4  119.09    6.66
   0  -7   5  159.95    8.73
   0   7   5  163.29    8.94
   0   7   5  160.59    7.29
   0   7  -5  155.75    8.29
   0  -7   6    4.47    2.44
   0   7   6    8.31    2.48
   0   7   6    6.77    1.98
   0   7  -6   11.46    2.13
   0   7   7   63.62    6.23
   0   7   7   65.62    5.90
   0  -7   7   71.80    6.45
   0   7  -7   59.46    5.19
   0   7   8  184.35   13.89
   0  -7   8  167.30   13.51
   0   7   8  176.35   12.10
   0   7  -8  163.10   11.31
   0   7   9   30.23    5.33
   0   7   9   28.18    5.29
   0  -7   9   35.46    5.74
   0   7  -9   27.29    4.12
   0   7  10   37.91    7.45
   0  -7  10   29.19    6.15
   0   7  10   26.95    4.92
   0  -7  11   26.64    6.13
   0   7  11   18.27    4.98
   0   8   0  524.92   23.45
   0  -8   0  576.75   23.23
   0   8   1  686.22   30.77
   0  -8   1  697.28   29.37
   0   8  -1  678.03   30.44
   0  -8  -1  719.99   25.18
   0  -8   2  947.05   41.80
   0   8   2  961.64   35.68
   0   8   2  945.08   45.95
   0   8  -2  905.86   43.45
   0   8   3  453.15   21.95
   0  -8   3  452.44   20.23
   0   8  -3  436.21   20.66
   0   8   4  289.05   15.10
   0   8   4  285.53   11.68
   0  -8   4  266.96   13.21
   0   8  -4  298.64   14.12
   0  -8   5  568.02   29.99
   0   8   5  578.88   31.34
   0   8   5  539.25   24.32
   0   8  -5  547.91   29.67
   0   8   6  326.79   18.73
   0  -8   6  357.63   20.69
   0   8   6  342.71   22.17
   0   8  -6  317.74   18.71
   0   8   7   94.87    6.86
   0   8   7  103.40    8.33
   0  -8   7  107.76    8.64
   0   8  -7   89.65    7.42
   0  -8   8   79.41    8.57
   0   8   8   72.01    6.89
   0   8   8  108.71    9.20
   0   8  -8   77.34    7.36
   0   8   9  170.01   14.61
   0  -8   9  148.31   17.02
   0   8   9  127.90   12.60
   0   8  -9  156.44   12.14
   0   8  10   33.68    5.39
   0  -8  10   45.13    7.65
   0   8  10   47.89    9.11
   0  -8  11    9.91    5.23
   0  -9   0    1.36    1.15
   0   9   0   -1.60    1.48
   0   9   1    9.25    1.91
   0  -9   1    3.74    1.63
   0  -9  -1    3.36    1.19
   0   9  -1    7.84    1.77
   0  -9   2   36.52    3.06
   0   9   2   31.06    3.17
   0   9   2   31.63    1.80
   0   9  -2   27.58    2.90
   0   9   3   42.18    4.11
   0  -9   3   41.51    3.08
   0   9   3   51.40    2.55
   0   9  -3   43.09    3.74
   0  -9   4   51.35    4.02
   0   9   4   67.72    5.15
   0   9  -4   64.06    4.86
   0  -9   5  114.53    7.32
   0   9   5  103.54    8.07
   0   9   5  105.57    5.10
   0   9  -5  119.21    7.71
   0   9   6   52.05    4.63
   0  -9   6   52.70    5.18
   0   9   6   56.85    5.59
   0   9  -6   43.79    5.01
   0  -9   7   23.49    3.91
   0   9   7   18.81    4.01
   0   9   7   10.69    3.47
   0   9  -7   18.06    4.50
   0   9   8   64.10    6.97
   0   9   8   50.90    6.60
   0  -9   8   55.00    8.97
   0   9  -8   57.61    7.73
   0   9   9   67.57    7.22
   0  -9   9   89.56   12.52
   0   9   9  119.57   12.13
   0  -9  10   20.39    5.26
   0   9  10    4.05    4.91
   0  10   0  261.88   13.89
   0 -10   0  270.36   11.64
   0 -10   1  180.38    8.98
   0  10   1  155.31    9.10
   0  10  -1  142.07    8.61
   0 -10  -1  151.03    6.30
   0 -10   2  210.87   10.88
   0  10   2  197.71    8.14
   0  10   2  202.26   11.27
   0  10  -2  190.07   10.96
   0  10   3  183.86    7.26
   0 -10   3  173.46    9.12
   0  10   3  193.37   11.10
   0  10  -3  174.45   10.55
   0  10   4  158.61   10.61
   0 -10   4  150.68   10.43
   0  10   4  167.91    7.32
   0  10  -4  165.50   10.48
   0  10   5  253.34   16.45
   0 -10   5  243.33   14.54
   0  10  -5  240.07   15.56
   0  10   6  179.99   13.60
   0 -10   6  188.21   14.60
   0  10   6  168.23   10.82
   0  10  -6  181.67   13.37
   0 -10   7  175.74   13.81
   0  10   7  182.37   14.42
   0  10   7  140.94    9.68
   0  10  -7  168.81   15.50
   0  10   8  186.77   15.85
   0 -10   8  188.42   16.15
   0  10  -8  160.36   15.41
   0  10   9  177.03   17.35
   0 -10   9  149.51   20.06
   0  11   0   11.25    2.01
   0 -11   0    0.03    1.16
   0 -11   1    0.45    1.38
   0  11   1   -0.70    1.94
   0  11  -1    3.21    1.89
   0 -11  -1    0.82    0.99
   0  11   2    8.26    2.37
   0  11   2    4.52    1.38
   0 -11   2    7.65    2.31
   0  11  -2    8.68    2.47
   0  11   3   78.62    6.40
   0 -11   3   82.02    5.54
   0  11   3   70.60    4.06
   0  11  -3   73.21    6.11
   0 -11   4    9.95    2.96
   0  11   4   12.71    3.10
   0  11   4   10.63    1.90
   0  11  -4   10.92    3.02
   0 -11   5   41.40    4.56
   0  11   5   37.42    5.40
   0  11  -5   48.96    5.38
   0  11   6   47.22    6.61
   0 -11   6   57.15    5.86
   0  11  -6   51.87    7.75
   0  11   7   60.25    7.48
   0 -11   7   42.89    6.52
   0  11  -7   51.43    6.86
   0 -11   8   23.78    5.90
   0  11   8   34.99    6.19
   0  11  -8   30.62    6.83
   0  11   9   40.58    8.67
   0 -11   9   57.85   10.17
   0 -12   0  267.38   12.55
   0  12   0  266.17   17.33
   0  12   1  309.32   18.57
   0 -12   1  302.86   15.05
   0  12  -1  292.63   18.64
   0 -12   2  367.67   20.98
   0  12   2  278.38   18.66
   0  12  -2  270.57   18.52
   0  12   3  196.66   13.52
   0 -12   3  200.96   12.58
   0  12  -3  207.40   16.52
   0  12   4  187.90   16.43
   0 -12   4  200.59   15.45
   0  12  -4  191.11   14.43
   0  12   5  159.09   13.33
   0 -12   5  173.19   12.80
   0  12  -5  188.29   14.74
   0  12   6   96.04   11.47
   0 -12   6   91.73    8.98
   0  12  -6   95.70   10.11
   0 -12   7   63.75    7.84
   0  12   7   65.19    8.96
   0  12  -7   59.51    8.74
   0 -12   8   83.79   10.35
   0  12   8   74.52   10.17
   0  13   0   -0.24    2.29
   0  13   1   16.90    4.00
   0  13  -1   26.38    3.90
   0  13   2   16.95    3.57
   0  13  -2   16.94    3.86
   0  13   3   16.89    3.53
   0  13  -3    9.29    3.81
   0  13   4   12.27    3.93
   0  13  -4   13.41    3.87
   0  13   5   22.13    5.22
   0  13  -5   36.73    5.65
   0  13   6   44.83    6.97
   0  13  -6   47.96    7.56
   0  13   7   14.17    4.74
   0  13  -7    6.28    4.90
   0  14   0   85.03    8.58
   0  14   1   37.45    5.74
   0  14  -1   43.09    5.86
   0  14   2   51.40    6.58
   0  14  -2   49.50    6.56
   0  14   3   60.29    7.26
   0  14  -3   64.15    7.86
   0  14   4   77.93    8.34
   0  14  -4   64.30    9.04
   0  14   5   65.41    8.05
   0  14  -5   62.08    9.18
   0  15   1   -0.82    2.71
   0  15  -1    0.72    3.47
   0  15   2   15.36    3.96
   0  15  -2    6.74    4.33
   0  15   3   40.34    7.42
   0  15  -3   31.57    6.01
  -1   0  12   -0.95    4.19
  -1   0  11   32.94    6.47
  -1   0  11   28.65    5.09
  -1   0  10   35.83    6.07
  -1   0  10   30.99    4.15
  -1   0   9    6.05    2.95
  -1   0   9    2.14    2.18
  -1   0   8   12.12    3.35
  -1   0   8   13.63    2.48
  -1   0   7  190.96   12.62
  -1   0   7  203.20   12.78
  -1   0   6  175.34   10.26
  -1   0   6  204.32   12.00
  -1   0   5   20.91    2.12
  -1   0   5   19.60    2.68
  -1   0   4  651.12   34.49
  -1   0   4  703.39   27.97
  -1   0   3  649.75   32.80
  -1   0   3  705.41   22.36
  -1   0   2   86.41    4.66
  -1   0   2  115.32    2.62
  -1   0   1  398.18    7.16
  -1   0   1  294.82   12.01
   1   0   0  905.02   28.78
   1   0   0  896.12   23.08
  -1   0   0  871.16   27.05
  -1   0   0  916.63   23.22
   1   0   1  662.26   14.89
   1   0   1  637.23   12.42
  -1   0  -1  632.73    9.96
   1   0   2   35.60    1.43
   1   0   2   31.92    0.27
   1   0   3 1007.05   39.01
   1   0   3 1089.19   23.02
  -1   0  -3  974.64   15.83
   1   0   4  636.03   27.18
   1   0   4  672.36   17.36
   1   0   5    2.06    1.71
   1   0   5    4.75    0.64
   1   0   6  122.79    3.83
   1   0   6  125.25    8.11
   1   0   7  306.19   10.13
   1   0   7  274.86   17.79
   1   0   8   57.92    6.08
   1   0   8   62.00    3.07
   1   0   9    6.83    3.36
   1   0  10   99.92   10.80
   1   0  11   33.18    6.71
   1   0  12    4.89    4.32
  -1  -1  12    5.13    4.49
  -1   1  12    8.10    4.50
  -1   1  11  113.67   11.47
  -1  -1  11   92.46   11.22
  -1  -1  11   96.59    9.34
  -1   1  11   94.50    9.63
  -1   1  10  264.02   19.26
  -1  -1  10  269.33   22.74
  -1  -1  10  258.04   18.61
  -1   1  10  254.64   21.56
  -1  -1   9   42.57    5.65
  -1   1   9   32.33    6.40
  -1   1   9   33.37    4.80
  -1  -1   9   33.40    3.78
  -1   1   8   64.20    6.90
  -1   1   8   48.15    5.38
  -1  -1   8   39.43    5.35
  -1  -1   8   43.30    3.99
  -1   1   7  399.06   24.66
  -1   1   7  360.30   21.52
  -1  -1   7  339.51   20.90
  -1  -1   7  350.00   18.55
  -1   1   6  223.11   12.96
  -1  -1   6  191.60   10.29
  -1   1   6  167.37    9.75
  -1  -1   6  184.50    9.25
  -1  -1   5   26.55    2.39
  -1  -1   5   34.29    2.61
  -1   1   5   27.71    3.03
  -1   1   5   24.55    2.39
  -1   1   4   99.50    4.20
  -1  -1   4   82.20    4.32
  -1   1   4  111.24    5.95
  -1  -1   4  109.05    4.21
  -1   1   3  330.26   10.08
  -1  -1   3  318.45    9.81
  -1  -1   3  280.94   11.53
  -1   1   3  323.17   14.68
  -1   1   2  205.84    4.40
  -1  -1   2  206.43    6.84
  -1  -1   2  217.94    5.28
  -1   1   2  197.21    7.63
  -1   1   1   42.00    1.86
  -1   1   1   44.60    0.76
  -1  -1   1   43.86    1.23
  -1  -1   1   42.94    1.58
   1  -1   0   35.60    0.73
   1  -1   0   35.24    0.97
   1   1   0   38.54    1.05
  -1   1   0   38.60    0.74
  -1   1   0   39.04    1.18
  -1  -1   0   38.08    1.30
   1  -1   1    5.68    0.27
   1  -1   1    6.67    0.59
   1   1   1    9.13    0.64
   1   1   1    5.57    0.29
  -1  -1  -1    5.50    0.27
  -1   1  -1    7.41    0.35
   1  -1   2   70.64    2.34
   1   1   2   73.14    1.16
   1   1   2   74.83    2.34
  -1   1  -2   68.03    0.71
   1  -1   3  201.99    7.40
   1   1   3  197.04    6.65
   1   1   3  188.16    3.58
  -1   1  -3  192.95    2.18
   1   1   4   63.53    1.89
   1  -1   4   68.22    3.94
   1   1   4   73.26    3.46
   1   1   5   25.61    2.56
   1   1   5   22.36    1.51
   1  -1   5   25.64    2.80
  -1   1  -5   23.56    0.85
   1  -1   6  251.35   13.98
   1   1   6  268.36   10.77
   1   1   6  222.00   13.53
   1   1   7  225.50   15.39
   1  -1   7  233.82   14.72
   1   1   7  252.38   10.79
  -1   1  -7  232.05    7.88
   1   1   8   54.82    3.30
   1  -1   8   58.54    6.07
   1   1   8   56.03    5.84
  -1   1  -8   57.43    2.93
   1   1   9   23.59    4.52
   1  -1   9   25.38    4.73
   1  -1  10  202.58   17.31
   1   1  10  173.74   16.35
   1  -1  11   99.86   12.23
   1   1  11  104.91   11.97
   1   1  12   18.77    5.79
   1  -1  12   17.44    5.92
  -1  -2  12   35.94    8.05
  -1   2  12   43.48    7.53
   1   2 -11   80.02    8.74
  -1   2  11   77.34    9.75
  -1   2  11   74.47    9.06
  -1  -2  11   70.48    9.89
  -1   2  10  340.54   25.96
  -1   2  10  244.86   22.40
  -1  -2  10  278.24   22.93
  -1   2   9   78.39    8.07
  -1  -2   9   77.18    8.06
  -1   2   9   88.61    8.55
  -1  -2   9   78.55    5.98
  -1   2   8   72.24    7.72
  -1  -2   8   67.14    5.77
  -1   2   8   74.44    7.91
  -1  -2   8   54.69    6.05
  -1   2   7  525.20   35.84
  -1   2   7  546.22   31.79
  -1  -2   7  506.07   26.30
  -1  -2   7  464.05   27.61
  -1   2   6  227.68   13.56
  -1   2   6  192.68   10.84
  -1  -2   6  189.60   10.37
  -1  -2   6  194.62   10.44
  -1   2   5   17.43    2.34
  -1   2   5   19.91    1.99
  -1  -2   5   13.21    2.20
  -1  -2   5   12.65    1.99
  -1  -2   4  145.13    5.79
  -1  -2   4  137.01    5.89
  -1   2   4  138.99    5.59
  -1   2   4  159.28    7.29
  -1  -2   3  485.70   17.42
  -1   2   3  441.33   14.41
  -1   2   3  434.43   18.19
  -1  -2   3  465.51   15.15
   1   2  -2  121.22    3.97
  -1   2   2  123.47    4.27
  -1   2   2  108.78    2.56
  -1  -2   2  107.92    3.14
   1  -2  -1   18.92    0.44
   1   2  -1   16.01    1.04
  -1   2   1   22.72    1.15
  -1   2   1   20.36    0.33
  -1  -2   1   20.06    0.95
   1  -2   0  685.05    8.29
   1  -2   0  698.01    8.87
   1   2   0  686.73   17.06
  -1  -2   0  646.02   20.87
  -1   2   0  663.31   17.66
   1   2   1   12.17    0.59
   1  -2   1   16.43    0.70
  -1  -2  -1   12.00    0.91
   1   2   2   97.20    1.95
   1  -2   2   93.35    3.33
   1   2   2   99.18    2.99
  -1   2  -2   95.56    1.64
   1  -2   3  162.95    6.80
   1   2   3  199.08    6.81
   1   2   3  191.92    4.52
  -1   2  -3  191.79    3.17
   1  -2   4  419.19   18.42
   1   2   4  413.69   16.25
   1   2   4  411.19   11.53
  -1   2  -4  419.00    8.57
   1  -2   5    8.21    1.67
   1   2   5    3.32    1.00
   1   2   5    2.16    1.55
  -1   2  -5    2.73    0.49
   1   2   6  116.08    5.60
   1  -2   6  114.64    7.80
   1   2   6  126.15    7.65
  -1   2  -6  121.44    3.49
   1   2   7  553.04   33.65
   1  -2   7  573.38   35.01
   1   2   7  580.41   30.03
  -1   2  -7  521.31   18.68
   1  -2   8   49.46    5.45
   1   2   8   41.27    3.37
   1   2   8   49.05    5.49
  -1   2  -8   36.06    2.23
   1  -2   9   65.24    7.48
   1   2   9   60.03    4.77
   1   2   9   60.08    7.04
   1  -2  10  204.48   18.12
   1   2  10  192.50   17.15
   1  -2  11  150.80   15.53
   1   2  11  127.99   14.26
   1  -2  12   22.97    5.99
   1   2  12   17.57    6.12
  -1   3  12   18.71    6.48
  -1  -3  12   16.65    5.87
   1   3 -11  128.36   12.54
  -1   3  11  122.89   13.47
  -1   3  11  144.53   14.88
  -1  -3  11  122.07   13.84
   1   3 -10  155.25   12.48
  -1   3  10  137.09   13.04
  -1   3  10  163.28   18.05
  -1  -3  10  133.76   13.07
   1   3  -9   37.84    4.83
  -1   3   9   44.11    6.38
  -1   3   9   49.64    6.01
  -1  -3   9   57.14    6.28
   1   3  -8  171.14   10.46
  -1   3   8  183.17   15.50
  -1   3   8  169.57   12.28
  -1  -3   8  149.01   12.00
   1   3  -7  317.27   18.04
  -1   3   7  376.38   25.06
  -1   3   7  347.54   21.01
  -1  -3   7  345.19   20.05
   1   3  -6   39.87    3.43
  -1   3   6   51.58    4.63
  -1   3   6   50.51    4.10
  -1  -3   6   51.51    4.09
   1   3  -5  149.57    7.55
  -1   3   5  178.00    9.32
  -1   3   5  160.53    7.65
  -1  -3   5  155.80    7.74
   1   3  -4  530.39   22.29
  -1   3   4  534.46   24.76
  -1  -3   4  490.02   20.22
  -1   3   4  526.26   21.71
   1   3  -3   19.30    1.53
  -1   3   3   20.00    1.67
  -1  -3   3   25.75    1.57
   1   3  -2    4.26    0.89
  -1   3   2    0.96    0.96
  -1   3   2    3.10    0.50
  -1  -3   2    2.78    0.78
   1   3  -1  359.82   10.22
  -1   3   1  347.50    3.62
  -1   3   1  348.21   10.49
  -1  -3   1  366.92   10.15
   1   3   0   60.89    1.84
  -1   3   0   59.07    1.91
  -1   3   0   56.67    0.56
  -1  -3   0   57.73    2.35
   1  -3   1  555.94   12.98
   1   3   1  554.02   13.84
  -1   3  -1  550.73   13.98
  -1  -3  -1  520.90   16.82
   1   3   2    9.67    1.00
   1  -3   2    8.36    0.86
   1   3   2    6.00    0.79
   1  -3   3   27.86    2.03
   1   3   3   37.37    1.98
   1   3   3   39.44    1.44
  -1   3  -3   35.49    1.19
   1  -3   4  474.65   21.23
   1   3   4  482.25   15.19
   1   3   4  497.13   20.51
  -1   3  -4  482.53   12.49
   1  -3   5  168.38    8.91
   1   3   5  157.99    7.72
   1   3   5  178.99    6.57
  -1   3  -5  165.21    4.63
   1  -3   6   18.58    3.49
   1   3   6   23.90    2.01
   1   3   6   31.15    3.40
  -1   3  -6   31.74    1.61
   1   3   7  171.58   11.20
   1   3   7  161.55    8.94
   1  -3   7  164.88   11.52
  -1   3  -7  158.25    5.95
   1  -3   8  301.44   20.63
   1   3   8  290.26   20.74
   1   3   8  288.95   16.51
  -1   3  -8  273.97   10.71
   1  -3   9   40.67    5.80
   1   3   9   21.54    5.16
   1   3   9   37.36    3.74
   1  -3  10  106.54   10.77
   1   3  10   85.59   10.40
   1  -3  11  131.88   14.54
   1   3  11  126.04   14.02
   1  -3  12   17.68    7.09
   1   3  12   43.65    7.11
  -1   4  12    0.79    4.34
  -1  -4  12   16.75    4.95
  -1   4  11   52.13    8.07
  -1  -4  11   29.22    7.10
  -1   4  11   36.64    6.39
   1   4 -10   34.69    4.52
  -1   4  10   24.09    7.36
  -1   4  10   24.94    5.41
  -1  -4  10   38.26    5.88
   1   4  -9   66.78    7.23
  -1   4   9   60.37    7.28
  -1  -4   9   77.48    7.85
  -1   4   9   85.78    9.21
   1   4  -8   35.95    4.06
  -1   4   8   35.33    5.39
  -1   4   8   51.69    5.09
  -1  -4   8   48.70    5.57
   1   4  -7   61.53    4.97
  -1   4   7   84.56    6.15
  -1   4   7   85.57    7.19
  -1  -4   7   82.93    6.44
   1   4  -6  222.98   13.11
  -1  -4   6  255.54   13.23
  -1   4   6  236.26   14.21
  -1   4   6  259.43   13.24
   1   4  -5   62.68    3.92
  -1  -4   5   65.47    4.11
  -1   4   5   58.57    5.26
  -1   4   5   70.26    3.73
   1   4  -4  400.95   16.31
  -1   4   4  373.03   16.58
  -1   4   4  343.24   14.06
  -1  -4   4  394.18   15.89
   1   4  -3  533.70   20.61
  -1   4   3  489.56   20.71
  -1   4   3  489.16   16.87
  -1  -4   3  499.10   18.42
   1   4  -2  417.03   14.28
  -1   4   2  449.04   16.08
  -1   4   2  420.82   11.05
  -1  -4   2  427.79   13.95
   1   4  -1  423.58   13.66
  -1   4   1  450.84   14.83
  -1   4   1  426.91    6.00
  -1   4   1  421.78    5.38
  -1  -4   1  461.37   15.11
   1   4   0  695.69   20.85
   1  -4   0  643.23    9.97
  -1   4   0  669.06   21.18
  -1  -4   0  629.46   24.01
   1  -4   1  589.71   12.69
   1   4   1  614.22   17.88
  -1   4  -1  661.65   18.79
  -1  -4  -1  566.89   20.43
   1  -4   2  331.49    9.32
   1   4   2  302.92    8.67
   1   4   2  316.31   10.58
  -1   4  -2  305.79    8.18
   1  -4   3  720.06   29.09
   1   4   3  783.97   30.67
   1   4   3  763.76   25.98
   1  -4   4  290.54   13.37
   1   4   4  327.97   10.78
   1   4   4  309.01   13.01
  -1   4  -4  304.15    8.85
   1  -4   5  110.37    7.09
   1   4   5  133.88    6.66
   1   4   5  130.57    5.05
  -1   4  -5  135.90    4.54
   1  -4   6  205.21   13.35
   1   4   6  228.25   12.26
   1   4   6  224.68   10.20
  -1   4  -6  229.69    8.27
   1  -4   7  106.04    9.18
   1   4   7  122.12    6.94
   1   4   7  114.67    8.60
  -1   4  -7  113.33    5.18
   1  -4   8   66.89    7.17
   1   4   8   73.16    5.36
   1   4   8   62.43    7.01
  -1   4  -8   71.29    4.28
   1   4   9   34.67    6.02
   1  -4   9   36.23    6.23
   1   4   9   43.89    4.99
   1  -4  10   67.97    9.17
   1   4  10   66.80    8.39
   1  -4  11   26.00    5.90
   1   4  11   18.22    5.58
   1  -4  12    1.23    4.01
   1   4  12    1.77    4.05
  -1   5  12   49.01    8.45
  -1  -5  12   79.21    9.99
  -1   5  11   78.93   10.19
  -1   5  11   63.26    8.22
  -1  -5  11   54.19    9.64
   1   5 -10   69.87    6.78
  -1   5  10   57.96    9.44
  -1   5  10   65.10    7.43
  -1  -5  10   61.45    8.32
   1   5  -9   70.71    6.40
  -1   5   9   70.50    7.09
  -1   5   9   77.20    9.78
  -1  -5   9   63.22    8.01
   1   5  -8  129.42   10.63
  -1   5   8  165.09   12.83
  -1   5   8  148.02   10.37
  -1  -5   8  137.86   11.49
   1   5  -7   69.26    5.66
  -1   5   7   81.55    6.71
  -1   5   7   75.20    7.38
  -1  -5   7   71.90    6.32
   1   5  -6  155.31    9.56
  -1   5   6  185.27   10.36
  -1   5   6  185.15   11.24
  -1  -5   6  182.87   10.48
   1   5  -5   78.41    4.87
  -1   5   5   84.67    4.79
  -1  -5   5   74.24    5.04
  -1   5   5   76.74    5.91
   1   5  -4   97.34    5.08
  -1   5   4  103.48    5.63
  -1  -5   4   85.97    4.73
  -1   5   4   97.66    4.15
   1   5  -3  141.80    6.14
  -1   5   3  151.27    6.74
  -1   5   3  149.61    5.23
  -1  -5   3  140.24    5.89
   1   5  -2  233.97    9.04
  -1   5   2  233.11    9.45
  -1   5   2  252.92    5.77
  -1  -5   2  247.12    8.88
   1   5  -1  234.86    8.40
  -1   5   1  245.51    9.01
  -1   5   1  253.26    3.61
  -1  -5   1  258.12    9.18
   1   5   0    2.50    0.81
  -1   5   0    2.36    0.90
  -1  -5   0    1.08    1.05
   1  -5   1  139.99    2.84
   1   5   1  132.10    4.38
  -1   5  -1  139.26    4.39
  -1  -5  -1  134.43    5.00
   1  -5   2   84.76    2.51
   1   5   2   85.02    3.15
   1   5   2   85.26    3.47
  -1   5  -2   81.35    3.25
   1   5   3  187.32    7.64
   1   5   3  193.98    6.97
   1  -5   3  207.29    7.24
  -1   5  -3  179.05    5.90
   1  -5   4   73.82    4.57
   1   5   4   72.50    4.80
   1   5   4   68.88    3.42
  -1   5  -4   75.19    2.96
   1  -5   5   95.60    5.86
   1   5   5   93.82    5.38
   1   5   5   94.32    5.04
   1   5   6  286.84   14.92
   1   5   6  268.72   12.91
   1  -5   6  225.54   15.20
  -1   5  -6  277.13   11.10
   1  -5   7   87.55    9.05
   1   5   7   98.40    7.51
   1   5   7   89.68    5.38
  -1   5  -7   98.29    4.75
   1  -5   8  120.66   10.79
   1   5   8  138.87    8.50
   1   5   8  114.51   10.67
  -1   5  -8  132.01    7.33
   1  -5   9   62.07    7.36
   1   5   9   52.51    7.38
   1   5   9   51.31    6.43
   1  -5  10   59.71    8.06
   1   5  10   47.65    7.36
   1  -5  11   66.14    9.82
   1   5  11   55.58    8.59
   1  -5  12   57.88    9.18
   1   5  12   53.76    9.27
  -1   6  11   38.99    7.35
  -1  -6  11   25.68    6.74
  -1   6  11   23.45    5.28
   1   6 -10  112.89   12.39
  -1   6  10  108.48   10.25
  -1  -6  10  111.33   12.73
  -1   6  10  137.42   14.81
   1   6  -9  186.93   14.83
  -1   6   9  209.22   16.98
  -1  -6   9  203.43   17.72
  -1   6   9  244.33   20.31
   1   6  -8  100.21    8.69
  -1   6   8  133.53   11.80
  -1  -6   8  122.39   10.47
  -1   6   8  124.69    9.65
   1   6  -7   95.20    7.53
  -1   6   7  127.32    9.56
  -1   6   7  113.51    8.07
  -1  -6   7  114.88    8.97
   1   6  -6  228.81   14.50
  -1  -6   6  236.64   14.31
  -1   6   6  263.93   15.97
  -1   6   6  209.73   12.39
   1   6  -5  281.63   14.56
  -1  -6   5  269.54   14.18
  -1   6   5  305.84   16.16
   1   6  -4   34.31    3.36
  -1   6   4   46.64    2.75
  -1  -6   4   40.38    3.14
  -1   6   4   44.00    3.73
   1   6  -3   95.85    4.94
  -1  -6   3   92.75    5.05
  -1   6   3   98.00    5.01
  -1   6   3   91.84    3.32
   1   6  -2  161.36    7.21
  -1   6   2  174.79    3.62
  -1   6   2  189.11    7.86
  -1  -6   2  167.33    6.86
   1   6  -1   80.74    3.97
  -1   6   1   89.21    1.47
  -1   6   1   88.10    4.09
  -1  -6   1   91.64    4.05
   1  -6   0   42.40    1.13
   1   6   0   39.51    2.30
  -1  -6   0   36.92    3.01
  -1   6   0   50.68    2.39
   1  -6   1   29.73    1.06
   1   6   1   32.88    1.94
  -1  -6  -1   27.80    2.00
  -1   6  -1   29.12    1.79
   1  -6   2  234.72    6.83
   1   6   2  254.02    8.94
   1   6   2  240.37    9.78
  -1   6  -2  245.23    8.62
   1   6   3   32.03    2.33
   1   6   3   40.07    2.49
   1  -6   3   33.55    1.97
  -1   6  -3   37.86    2.12
   1  -6   4   63.74    3.60
   1   6   4   67.98    3.57
   1   6   4   59.95    3.78
  -1   6  -4   68.08    3.07
   1   6   5  227.40   11.29
   1   6   5  219.19   11.15
   1  -6   5  211.72   10.63
  -1   6  -5  220.79    8.97
   1  -6   6  192.81   11.64
   1   6   6  224.80   10.78
   1   6   6  209.06   11.36
   1  -6   7  105.64   10.04
   1   6   7  102.84    7.72
   1   6   7  110.31    7.80
  -1   6  -7  102.15    6.60
   1   6   8   85.58    8.02
   1  -6   8   75.93    8.31
   1   6   8   80.55    6.44
  -1   6  -8   77.17    5.36
   1  -6   9  231.56   19.11
   1   6   9  232.88   18.68
   1   6   9  257.01   18.59
   1  -6  10  105.87   11.04
   1   6  10   95.04   11.18
   1  -6  11   41.72    7.20
   1   6  11   28.40    8.39
  -1  -7  11   75.16   12.28
  -1   7  11  103.24   14.59
   1   7 -10   21.24    4.56
  -1  -7  10   22.46    5.99
  -1   7  10   23.78    5.21
  -1   7  10   19.08    6.36
   1   7  -9   68.64    7.78
  -1   7   9   77.15    8.03
  -1  -7   9   91.21    9.79
  -1   7   9   81.77   10.41
   1   7  -8  112.72    9.52
  -1   7   8  118.99    9.65
  -1   7   8  138.21   12.16
  -1  -7   8  150.81   12.10
   1   7  -7  181.83   12.85
  -1   7   7  179.23   10.19
  -1  -7   7  198.63   13.75
  -1   7   7  212.66   15.10
   1   7  -6    8.69    2.70
  -1   7   6    9.88    2.85
  -1  -7   6   13.17    2.75
  -1   7   6   10.25    1.96
   1   7  -5  131.67    8.68
  -1  -7   5  124.90    8.46
  -1   7   5  144.66    7.15
  -1   7   5  156.16    9.47
   1   7  -4  381.47   19.16
  -1   7   4  389.23   19.94
  -1  -7   4  352.30   19.04
  -1   7   4  377.96   14.23
   1   7  -3   11.34    2.10
  -1   7   3   14.10    0.99
  -1   7   3   19.11    2.35
  -1  -7   3   13.61    2.00
   1   7  -2   18.61    2.09
  -1   7   2   18.76    0.74
  -1   7   2   20.75    2.30
  -1  -7   2   17.35    1.89
   1   7  -1  125.03    5.55
  -1   7   1  123.02    2.33
  -1  -7   1  122.35    5.51
  -1   7   1  123.70    5.85
   1   7   0   18.97    1.89
   1  -7   0   18.50    0.87
  -1   7   0   15.53    1.81
  -1  -7   0   21.30    2.30
   1  -7   1  168.06    4.62
   1   7   1  173.04    7.08
  -1   7  -1  186.79    7.65
  -1  -7  -1  180.77    7.27
   1   7   2    1.17    1.27
   1  -7   2    3.12    0.87
   1   7   2    3.65    1.18
  -1   7  -2    2.87    1.24
   1  -7   3   17.91    1.77
   1   7   3   22.65    2.17
   1   7   3   16.66    1.82
  -1   7  -3   18.32    1.98
   1   7   4  322.86   15.15
   1   7   4  335.12   15.41
   1  -7   4  354.35   15.59
  -1   7  -4  342.92   14.66
   1   7   5   92.46    5.80
   1  -7   5  104.54    5.91
   1   7   5   98.60    6.03
  -1   7  -5   98.92    5.79
   1   7   6   12.93    2.47
   1   7   6   12.84    2.51
   1  -7   6   15.44    2.78
  -1   7  -6   15.72    2.19
   1  -7   7   94.76    8.82
   1   7   7   87.81    7.11
   1   7   7   87.11    7.73
   1   7   8  184.87   14.45
   1   7   8  197.19   12.89
   1  -7   8  190.26   15.53
  -1   7  -8  221.14   14.31
   1  -7   9   59.76    7.34
   1   7   9   56.43    7.37
   1   7   9   51.27    7.00
   1   7  10   10.46    4.29
   1  -7  10    7.68    4.38
   1  -7  11  108.97   12.84
   1   7  11   95.59   13.80
  -1   8  11    1.21    6.48
  -1  -8  11   16.44    5.28
   1   8 -10   16.95    6.47
  -1  -8  10   36.17    6.30
  -1   8  10   22.62    6.98
   1   8  -9   65.84    8.57
  -1  -8   9   89.40   10.04
  -1   8   9   77.89    6.74
  -1   8   9  103.81   11.74
   1   8  -8   53.27    7.83
  -1  -8   8   45.93    6.77
  -1   8   8   70.92    9.36
  -1   8   8   48.84    5.31
   1   8  -7   24.57    4.00
  -1  -8   7   17.95    4.39
  -1   8   7   25.04    2.48
  -1   8   7   24.99    4.88
   1   8  -6  151.95   12.57
  -1  -8   6  155.21   11.25
  -1   8   6  167.93   12.00
  -1   8   6  157.76    7.33
   1   8  -5  269.14   17.98
  -1  -8   5  256.72   15.35
  -1   8   5  303.81   18.26
  -1   8   5  261.46   12.20
   1   8  -4  159.94    9.86
  -1   8   4  164.69    6.48
  -1   8   4  184.49   10.40
  -1  -8   4  158.56    9.01
   1   8  -3  205.86   11.18
  -1  -8   3  211.75   10.40
  -1   8   3  221.33   11.41
  -1   8   3  202.39    5.87
   1   8  -2  598.97   30.48
  -1   8   2  644.86   17.48
  -1   8   2  635.74   31.85
  -1  -8   2  651.14   31.90
   1   8  -1  505.24   22.94
  -1   8   1  505.65   23.33
  -1   8   1  486.72   11.61
  -1  -8   1  527.66   24.28
   1   8   0  212.43    9.61
   1  -8   0  213.70    5.53
  -1   8   0  213.05    9.92
  -1  -8   0  248.50   12.63
   1   8   1  498.05   21.64
   1  -8   1  498.94   16.79
  -1  -8  -1  499.50   22.27
  -1   8  -1  548.62   24.23
   1   8   2  596.64   26.76
   1   8   2  601.51   27.97
   1  -8   2  642.66   22.89
  -1   8  -2  646.37   29.73
   1   8   3  265.50   13.01
   1   8   3  299.10   13.63
   1  -8   3  269.42   11.06
  -1   8  -3  306.26   13.85
   1   8   4  111.99    6.60
   1  -8   4  137.65    6.88
   1   8   4  119.14    6.47
  -1   8  -4  113.31    6.35
   1   8   5  381.52   20.23
   1   8   5  373.83   19.84
   1  -8   5  407.04   20.08
  -1   8  -5  376.38   19.38
   1   8   6  198.44   11.93
   1   8   6  195.11   11.57
   1  -8   6  221.42   12.69
  -1   8  -6  214.94   13.27
   1   8   7   33.18    4.19
   1  -8   7   40.89    4.79
   1   8   7   33.08    4.90
  -1   8  -7   31.50    4.12
   1   8   8   68.14    7.50
   1  -8   8   86.65    8.30
   1   8   8   77.28    7.08
   1   8   9   85.06    9.32
   1  -8   9   83.01   11.82
   1   8   9  106.24    9.47
   1   8  10   22.55    7.08
   1  -8  10   28.83    6.13
  -1  -9  10   32.96    9.61
  -1   9  10   39.39    8.42
   1   9  -9   41.31    7.18
  -1  -9   9   51.46    7.90
  -1   9   9   59.16    8.48
   1   9  -8   90.44   10.10
  -1  -9   8  108.06   11.23
  -1   9   8  121.41   11.95
   1   9  -7    7.03    3.07
  -1  -9   7    7.56    3.27
  -1   9   7    3.55    3.22
   1   9  -6   36.68    4.61
  -1   9   6   26.53    2.85
  -1  -9   6   25.36    4.29
  -1   9   6   35.16    4.74
   1   9  -5   97.13    8.34
  -1   9   5   93.19    5.12
  -1   9   5  108.72    8.10
  -1  -9   5   99.02    7.24
   1   9  -4   11.31    2.63
  -1  -9   4   11.00    2.52
  -1   9   4   10.65    2.75
   1   9  -3    8.75    2.52
  -1  -9   3   11.78    2.20
  -1   9   3   10.99    2.60
   1   9  -2   42.24    3.99
  -1  -9   2   48.85    3.87
  -1   9   2   48.52    4.04
   1   9  -1   37.86    3.15
  -1  -9   1   39.25    3.41
  -1   9   1   34.64    3.36
   1   9   0    7.02    1.72
   1  -9   0    4.60    0.70
  -1  -9   0    3.41    1.69
  -1   9   0    4.11    1.81
   1   9   1    7.29    2.07
   1  -9   1    9.30    1.18
  -1  -9  -1   11.04    1.75
  -1   9  -1   10.54    2.14
   1   9   2    9.33    2.10
   1   9   2    7.54    1.69
   1  -9   2   12.35    1.18
  -1   9  -2    8.08    2.10
   1   9   3   11.13    2.29
   1   9   3   15.22    2.20
   1  -9   3    9.58    1.75
  -1   9  -3   10.51    2.23
   1   9   4    9.74    2.24
   1   9   4    7.90    2.29
   1  -9   4    6.34    1.96
  -1   9  -4    6.82    2.13
   1   9   5   57.27    5.60
   1   9   5   52.58    6.13
   1  -9   5   64.94    5.09
  -1   9  -5   60.70    4.82
   1   9   6   32.42    3.97
   1   9   6   23.75    4.19
   1  -9   6   32.89    3.88
  -1   9  -6   33.07    3.93
   1   9   7   33.61    4.07
   1   9   7   15.94    3.84
   1  -9   7   31.11    4.31
  -1   9  -7   26.93    5.09
   1   9   8   54.38    6.00
   1   9   8   49.94    6.30
   1  -9   8   50.67    8.06
   1   9   9   43.79    6.81
   1   9   9   36.88    7.06
   1  -9   9   40.71    6.57
   1   9  10   20.21    5.66
   1  -9  10   27.45    6.02
   1  10  -9  107.50   15.45
  -1 -10   9  137.43   14.94
  -1  10   9  123.69   15.55
   1  10  -8  139.53   14.52
  -1 -10   8  161.88   15.58
  -1  10   8  168.81   16.79
   1  10  -7   75.62   10.20
  -1 -10   7   65.31    9.88
  -1  10   7   73.97    8.42
   1  10  -6  102.75    9.46
  -1 -10   6   95.96    9.22
  -1  10   6  123.43   10.45
   1  10  -5  234.14   16.98
  -1 -10   5  239.06   16.08
  -1  10   5  262.09   17.22
   1  10  -4   71.52    6.54
  -1 -10   4   69.35    6.01
  -1  10   4   70.82    6.29
   1  10  -3   31.04    4.21
  -1 -10   3   40.49    3.98
  -1  10   3   37.67    4.12
   1  10  -2  154.39   10.04
  -1 -10   2  177.44   10.12
  -1  10   2  168.75    9.98
   1  10  -1  112.35    7.15
  -1 -10   1  122.74    7.51
  -1  10   1  111.96    7.48
   1  10   0   33.45    3.45
  -1 -10   0   37.35    3.78
  -1  10   0   36.51    3.69
   1 -10   1   66.20    3.20
   1  10   1   62.89    4.87
  -1 -10  -1   64.74    4.17
  -1  10  -1   66.61    5.12
   1  10   2  198.10   10.37
   1  10   2  232.81   12.57
   1 -10   2  237.13   10.16
  -1  10  -2  239.03   14.13
   1  10   3   38.46    4.10
   1  10   3   35.08    3.01
   1 -10   3   43.11    3.19
  -1  10  -3   44.82    4.19
   1  10   4   50.80    4.70
   1  10   4   48.61    4.42
   1 -10   4   42.59    3.50
  -1  10  -4   65.68    4.79
   1  10   5  191.89   12.87
   1  10   5  187.68   12.70
   1 -10   5  203.31   12.96
  -1  10  -5  229.03   15.58
   1  10   6  117.22    8.43
   1  10   6  138.67   10.34
   1 -10   6  154.35   11.14
  -1  10  -6  153.58   12.33
   1  10   7   40.82    5.95
   1  10   7   45.18    5.65
   1 -10   7   48.80    5.46
  -1  10  -7   53.18    7.10
   1  10   8  109.15   10.44
   1  10   8   94.32    9.36
   1 -10   8  117.06   10.67
   1  10   9  144.00   13.74
   1  10   9  163.92   14.30
   1 -10   9  160.12   15.88
  -1  11   9   61.09   11.42
  -1 -11   9   71.74   12.78
   1  11  -8   11.47    5.51
  -1 -11   8   29.24    5.80
  -1  11   8   29.80    7.95
   1  11  -7   86.53   11.40
  -1  11   7   78.46    9.71
  -1 -11   7   75.81    9.59
   1  11  -6   58.00    7.67
  -1 -11   6   69.33    7.62
  -1  11   6   64.02    7.96
   1  11  -5   28.73    5.23
  -1 -11   5   34.16    4.74
  -1  11   5   38.96    5.23
   1  11  -4   41.73    5.18
  -1 -11   4   40.15    5.08
  -1  11   4   32.35    4.78
   1  11  -3   44.26    5.12
  -1 -11   3   48.87    4.84
  -1  11   3   49.09    5.26
   1  11  -2   48.31    4.81
  -1  11   2   51.89    4.85
  -1 -11   2   35.25    5.19
   1  11  -1    3.68    2.19
  -1 -11   1    2.78    2.38
  -1  11   1    3.26    2.17
   1  11   0    2.50    1.96
  -1 -11   0   -0.91    1.58
  -1  11   0    2.63    2.00
   1  11   1    2.85    2.04
  -1 -11  -1   -0.88    1.53
  -1  11  -1    4.42    2.10
   1  11   2   10.30    2.00
   1  11   2   11.83    2.67
  -1  11  -2   14.07    3.01
   1 -11   3   35.30    2.99
   1  11   3   32.44    3.01
   1  11   3   31.55    4.95
  -1  11  -3   36.34    4.24
   1  11   4   26.64    5.06
   1  11   4   30.33    3.14
   1 -11   4   33.15    3.07
  -1  11  -4   36.48    4.46
   1  11   5   10.94    2.78
   1 -11   5    5.31    2.67
   1  11   5    6.58    2.90
  -1  11  -5    4.98    2.92
   1  11   6   73.47    7.24
   1  11   6   79.01    8.06
   1 -11   6  101.17    7.60
  -1  11  -6  104.13   10.58
   1  11   7   47.57    7.55
   1  11   7   28.45    5.91
   1 -11   7   61.77    6.13
  -1  11  -7   53.44    8.65
   1  11   8    9.91    4.16
   1 -11   8   12.95    4.10
   1  12  -8   40.76    7.95
  -1  12   8   39.97    7.72
  -1 -12   8   41.94    8.21
   1  12  -7   54.95    8.68
  -1  12   7   50.87   10.23
  -1 -12   7   60.78    8.27
   1  12  -6   51.48    8.59
  -1  12   6   34.84    6.92
  -1 -12   6   41.10    6.45
   1  12  -5  129.23   13.41
  -1 -12   5  140.17   12.52
  -1  12   5  148.86   12.55
   1  12  -4  152.30   13.85
  -1 -12   4  194.83   13.57
  -1  12   4  173.20   13.50
   1  12  -3  135.66   11.36
  -1 -12   3  136.97   12.30
  -1  12   3  144.14   10.93
   1  12  -2  239.01   17.25
  -1 -12   2  278.41   17.64
  -1  12   2  253.49   17.09
   1  12  -1  269.12   18.41
  -1 -12   1  322.22   20.77
  -1  12   1  285.93   18.81
   1  12   0  232.70   15.01
  -1  12   0  232.07   15.38
  -1 -12   0  234.05   13.24
   1  12   1  254.12   16.50
  -1 -12  -1  275.53   14.16
  -1  12  -1  266.33   17.70
   1  12   2  242.33   13.38
   1  12   2  262.71   17.21
  -1  12  -2  288.90   18.07
   1  12   3  171.42   11.90
   1  12   3  158.57    8.83
  -1  12  -3  181.84   13.35
   1  12   4  134.45    8.01
   1  12   4  141.80   10.68
  -1  12  -4  138.63   11.18
   1  12   5  161.32   13.01
   1  12   5  154.64   11.40
  -1  12  -5  168.61   16.05
   1  12   6   66.32    7.80
  -1  12  -6   77.20    9.04
   1  12   7   48.66    6.99
   1  12   8   33.22    7.79
   1  13  -7    2.07    4.82
  -1 -13   7    4.31    4.75
  -1  13   7   19.57    4.65
   1  13  -6   45.94    7.35
  -1 -13   6   47.49    9.25
  -1  13   6   35.11    7.43
   1  13  -5   21.73    5.16
  -1  13   5   14.49    4.56
  -1 -13   5   21.94    4.80
   1  13  -4   16.93    4.38
  -1 -13   4   12.41    3.77
  -1  13   4   15.87    4.00
   1  13  -3   22.76    4.59
  -1  13   3   12.99    4.21
  -1 -13   3   28.25    5.15
   1  13  -2   11.63    3.54
  -1  13   2   10.69    3.46
  -1 -13   2   12.82    2.98
   1  13  -1   -0.55    2.61
  -1 -13   1    2.63    2.25
  -1  13   1    5.39    2.70
   1  13   0    2.72    2.62
  -1 -13   0    2.21    2.32
  -1  13   0    1.83    2.60
   1  13   1   15.77    3.31
  -1 -13  -1    7.29    2.22
  -1  13  -1   16.99    3.45
   1  13   2   10.56    3.40
  -1  13  -2   11.83    4.30
   1  13   3   20.57    4.02
  -1  13  -3   17.73    4.15
   1  13   4   16.35    5.18
  -1  13  -4   22.38    4.77
   1  13   5   12.79    4.04
  -1  13  -5   13.53    4.35
   1  13   6   21.57    4.94
  -1  13  -6   26.31    7.06
   1  14  -5   68.23    9.46
  -1  14   5   61.89   10.22
   1  14  -4   74.98    9.93
  -1  14   4   92.78    9.25
   1  14  -3   35.90    6.57
  -1  14   3   43.71    7.33
   1  14  -2   41.94    7.44
  -1  14   2   41.22    6.01
   1  14  -1   57.20    7.06
  -1  14   1   63.56    7.32
   1  14   0   43.31    5.34
  -1  14   0   31.44    5.76
   1  14   1   45.20    5.73
  -1  14  -1   35.53    5.95
   1  14   2   43.22    5.79
  -1  14  -2   40.07    6.31
   1  14   3   45.28    6.14
  -1  14  -3   42.72    6.63
   1  14   4   54.48    7.04
  -1  14  -4   58.07    9.54
   1  14   5   57.29    7.54
  -1  14  -5   53.10    9.01
   1  15  -3   16.95    5.62
  -1  15   3   24.22    5.16
   1  15  -2   25.28    5.57
  -1  15   2   21.54    5.05
   1  15  -1    8.81    3.65
  -1  15   1    3.34    3.72
   1  15   0    2.78    3.01
  -1  15   0   -1.49    3.11
   1  15   1    1.99    3.14
  -1  15  -1    2.48    3.32
   1  15   2    4.14    3.51
  -1  15  -2    9.32    3.85
   1  15   3   22.89    4.73
  -1  15  -3   13.85    5.11
  -2   0  12   19.54    5.70
  -2   0  12   19.67    6.20
  -2   0  11   28.97    6.53
  -2   0  11   28.06    7.29
  -2   0  10  192.38   17.56
  -2   0  10  202.09   20.16
  -2   0   9   34.67    5.46
  -2   0   9   34.05    5.26
  -2   0   8   51.03    5.90
  -2   0   8   42.73    5.18
  -2   0   7  803.65   51.67
  -2   0   7  610.04   38.40
  -2   0   6  495.40   30.28
  -2   0   6  423.50   22.98
  -2   0   5  264.32   15.05
  -2   0   5  239.65   10.80
  -2   0   4  783.96   32.55
  -2   0   4  883.96   52.81
  -2   0   3 1632.18  106.98
  -2   0   3 1678.96   66.25
  -2   0   2  614.85   32.22
  -2   0   2  657.24   20.06
  -2   0   1  820.00   25.94
  -2   0   1  738.96   33.32
  -2   0   0 2583.62  106.51
  -2   0   0 2567.21  126.55
   2   0   1 1132.76   39.56
  -2   0  -1 1067.31   37.46
   2   0   2  560.55   11.51
   2   0   2  554.09   19.83
   2   0   3 1390.27   65.05
   2   0   3 1420.88   17.27
   2   0   4 1513.84   75.78
   2   0   5  251.14   12.82
   2   0   6  348.92   20.18
   2   0   7  892.58   61.56
   2   0   8  115.86   11.17
   2   0   9   29.73    5.18
   2   0  10  161.43   15.15
   2   0  11  132.94   14.68
  -2   1  12    2.72    4.10
  -2   1  12    2.15    3.81
  -2  -1  12    6.44    4.26
  -2  -1  12    1.61    3.21
  -2   1  11   55.53    9.94
  -2   1  11   55.92    8.80
  -2  -1  11   54.04    9.27
  -2  -1  11   61.36    8.60
  -2   1  10  209.14   17.67
  -2   1  10  222.85   18.24
  -2  -1  10  204.57   18.44
  -2  -1  10  182.31   15.45
  -2   1   9   22.69    4.32
  -2   1   9   14.30    3.82
  -2  -1   9    9.07    4.78
  -2  -1   9   11.18    3.65
  -2   1   8   16.35    3.71
  -2   1   8   12.78    3.05
  -2  -1   8   13.94    3.64
  -2  -1   8   10.37    3.44
  -2   1   7  317.95   23.43
  -2   1   7  236.26   14.84
  -2  -1   7  253.21   15.88
  -2  -1   7  259.64   18.10
  -2   1   6  174.56    9.33
  -2   1   6  218.59   15.41
  -2  -1   6  186.49   12.30
  -2  -1   6  171.73    9.82
  -2   1   5   60.99    4.17
  -2   1   5   67.97    6.26
  -2  -1   5   59.86    3.90
  -2  -1   5   60.28    4.91
  -2   1   4  140.24    8.96
  -2   1   4  125.62    4.78
  -2  -1   4  126.26    5.44
  -2  -1   4  115.25    7.29
  -2   1   3  212.96    6.20
  -2   1   3  189.26   11.16
  -2  -1   3  227.14    7.40
  -2  -1   3  188.74   10.07
  -2   1   2   42.10    3.32
  -2   1   2   44.66    1.62
  -2  -1   2   40.62    2.86
  -2  -1   2   44.61    1.95
  -2   1   1    6.80    1.40
  -2  -1   1    7.58    1.27
  -2  -1   1    4.61    0.91
  -2   1   0   41.68    2.91
  -2   1   0   54.16    1.81
  -2  -1   0   61.79    2.50
  -2  -1   0   59.02    2.34
   2   1   1   56.88    1.73
   2  -1   1   53.08    2.03
  -2   1  -1   52.23    2.09
  -2  -1  -1   53.24    2.38
   2  -1   2   27.88    1.58
   2   1   2   28.73    1.78
   2   1   2   25.63    0.83
  -2   1  -2   32.49    1.00
   2  -1   3  118.37    4.82
   2   1   3  131.45    2.09
   2   1   3  132.00    5.50
   2  -1   4   37.33    2.62
   2   1   4   30.96    2.65
   2   1   4   31.17    0.71
   2  -1   5   32.21    3.22
   2   1   5   30.98    0.94
   2   1   5   29.06    2.98
   2  -1   6   64.35    5.75
   2   1   6   69.32    5.27
   2   1   7  124.05    9.39
   2  -1   7  120.50    9.87
   2  -1   8   16.63    3.93
   2   1   8   17.28    4.10
   2  -1   9   21.67    5.17
   2   1   9   30.07    5.45
   2  -1  10   98.40   10.33
   2   1  10   84.45   10.79
   2  -1  11   53.20    9.23
   2   1  11   61.51    8.68
   2  -1  12    9.59    4.90
   2   1  12    5.92    5.10
  -2   2  12   44.67    9.73
  -2  -2  12   46.59    8.81
  -2   2  12   44.11    7.89
  -2   2  11  164.56   16.03
  -2   2  11  161.43   16.49
  -2  -2  11  167.75   16.33
  -2  -2  11  130.44   10.50
  -2   2  10  296.96   24.13
  -2   2  10  263.67   21.78
  -2  -2  10  252.83   21.83
  -2  -2  10  242.69   19.40
  -2   2   9  366.67   28.68
  -2  -2   9  274.91   21.65
  -2   2   9  291.94   22.16
  -2  -2   9  298.53   20.98
  -2   2   8  234.04   15.48
  -2   2   8  310.60   26.99
  -2  -2   8  233.82   16.70
  -2  -2   8  236.59   16.62
  -2   2   7  665.88   47.49
  -2   2   7  513.96   30.53
  -2  -2   7  574.81   33.60
  -2  -2   7  540.47   34.68
  -2   2   6  692.81   45.50
  -2   2   6  605.74   31.53
  -2  -2   6  601.83   37.42
  -2  -2   6  635.17   34.35
  -2   2   5  218.99   13.58
  -2   2   5  190.46    8.27
  -2  -2   5  167.95   10.64
  -2  -2   5  198.46    9.40
  -2   2   4  802.59   51.51
  -2   2   4  802.22   30.08
  -2  -2   4  753.80   42.81
  -2  -2   4  806.49   34.66
  -2   2   3  802.37   48.13
  -2  -2   3  964.91   37.06
  -2  -2   3  884.30   45.00
  -2   2   2  379.36   17.95
  -2  -2   2  372.32   16.15
  -2   2   2  370.04    8.80
  -2  -2   2  374.05   12.73
   2   2  -1  391.87   15.31
  -2   2   1  408.82   10.02
  -2   2   1  357.43   15.98
  -2  -2   1  371.18   13.45
   2  -2   0  880.15   22.30
   2   2   0  858.92   31.60
  -2   2   0  816.01   35.57
  -2  -2   0  860.82   34.38
   2  -2   1  664.75   18.80
   2   2   1  675.22   19.50
  -2  -2  -1  638.49   25.70
   2  -2   2  187.33    6.08
   2   2   2  195.66    4.48
   2   2   2  184.76    7.12
  -2   2  -2  174.72    4.80
   2  -2   3  977.71   41.41
   2   2   3  965.48   44.07
   2   2   3  974.81   25.00
  -2   2  -3  967.60   23.05
   2   2   4  792.17   39.01
   2  -2   4  805.61   39.26
   2   2   4  802.39   21.10
   2  -2   5  193.10   10.62
   2   2   5  199.93    5.05
   2   2   5  200.10   10.55
   2  -2   6  385.08   23.54
   2   2   6  407.50   22.51
   2   2   6  365.79   11.85
   2  -2   7  652.48   44.13
   2   2   7  722.19   47.17
   2  -2   8  301.80   22.14
   2   2   8  339.07   24.23
   2  -2   9  113.79   11.48
   2   2   9  134.87   13.05
   2  -2  10  331.18   27.55
   2   2  10  301.83   27.23
   2  -2  11  170.40   17.46
   2   2  11  146.40   17.13
   2  -2  12   41.54    8.01
   2   2  12   28.84    7.85
  -2   3  12    6.34    5.49
  -2   3  12   21.54    5.87
  -2  -3  12   25.35    6.23
   2   3 -11   61.11    7.58
  -2   3  11   48.55    8.52
  -2   3  11   52.37    7.89
  -2  -3  11   57.19    9.07
   2   3 -10  125.69   11.68
  -2   3  10  114.29   13.82
  -2   3  10  142.71   17.56
  -2  -3  10  110.32   12.62
   2   3  -9   11.80    3.92
  -2   3   9   16.71    3.89
  -2   3   9   11.12    5.50
  -2  -3   9   24.59    4.34
  -2   3   8   90.75    7.64
  -2   3   8  114.74   11.11
  -2  -3   8  111.57    9.17
  -2   3   7  110.42    7.39
  -2   3   7  129.74   11.47
  -2  -3   7  134.28    9.12
  -2   3   6   65.49    6.78
  -2   3   6   56.23    3.77
  -2  -3   6   48.05    3.75
  -2  -3   6   60.42    4.74
  -2   3   5   69.28    3.71
  -2   3   5   80.87    6.37
  -2  -3   5   79.69    4.71
   2   3  -4  287.31   15.61
  -2   3   4  311.42   17.28
  -2  -3   4  299.07   12.90
   2   3  -3   86.45    5.22
  -2   3   3   97.73    5.66
  -2   3   3   86.32    2.56
  -2  -3   3   81.17    3.93
   2   3  -2   15.74    1.90
  -2   3   2   14.62    2.05
  -2   3   2   15.78    0.64
  -2  -3   2   15.07    1.52
   2   3  -1  262.00   10.14
  -2   3   1  285.69   11.20
  -2   3   1  260.52    4.69
  -2  -3   1  270.32    9.95
   2  -3   0   24.33    0.64
   2   3   0   23.43    1.51
  -2   3   0   22.55    1.52
  -2  -3   0   23.67    1.90
   2  -3   1  125.30    3.25
   2   3   1  128.49    3.93
  -2   3  -1  131.94    4.06
  -2  -3  -1  123.36    5.44
   2  -3   2    3.54    0.82
   2   3   2    0.29    1.14
   2   3   2    1.39    0.58
  -2   3  -2    1.02    0.73
   2  -3   3   55.22    2.92
   2   3   3   52.23    1.65
   2   3   3   47.19    3.01
  -2   3  -3   48.30    1.45
   2  -3   4  180.24    9.16
   2   3   4  173.45    8.30
   2   3   4  196.74    5.45
  -2   3  -4  164.86    3.68
   2  -3   5  190.26   10.83
   2   3   5  192.58    6.11
   2   3   5  194.66   10.64
   2  -3   6   46.99    4.68
   2   3   6   45.80    2.30
   2   3   6   42.70    4.26
   2  -3   7   71.10    6.83
   2   3   7   76.48    3.78
   2   3   7   73.18    7.09
   2  -3   8  122.25   10.82
   2   3   8  127.20   11.07
   2  -3   9    9.40    3.97
   2   3   9    9.04    4.11
   2  -3  10   48.67    8.17
   2   3  10   55.16    8.54
   2  -3  11   60.62    9.21
   2   3  11   49.86    9.25
   2  -3  12   24.57    7.28
   2   3  12   28.57    6.91
  -2   4  12   42.31    7.08
  -2   4  12   17.45    5.67
  -2  -4  12   22.13    7.21
   2   4 -11   14.92    4.40
  -2   4  11   18.45    4.67
  -2   4  11   18.65    6.43
  -2  -4  11   19.11    5.75
   2   4 -10   99.47   10.38
  -2   4  10  101.77   10.06
  -2   4  10  117.66   14.52
  -2  -4  10   87.99   11.33
   2   4  -9  146.72   15.09
  -2   4   9  154.33   13.05
  -2   4   9  153.93   16.24
  -2  -4   9  154.41   14.20
   2   4  -8   64.05    6.82
  -2   4   8   64.85    9.13
  -2   4   8   67.70    7.77
  -2  -4   8   77.35    7.40
   2   4  -7  207.05   17.51
  -2   4   7  283.34   21.98
  -2   4   7  233.89   14.45
  -2  -4   7  264.75   16.30
   2   4  -6  453.88   28.82
  -2   4   6  524.35   35.35
  -2   4   6  487.33   25.45
  -2  -4   6  493.02   27.23
   2   4  -5  397.86   23.12
  -2   4   5  428.51   26.64
  -2  -4   5  399.14   20.37
   2   4  -4  467.73   25.60
  -2   4   4  466.95   16.48
  -2   4   4  445.36   25.72
  -2  -4   4  478.50   21.80
   2   4  -3 1097.13   57.93
  -2   4   3 1093.03   31.26
  -2   4   3 1022.75   58.90
  -2  -4   3 1132.78   52.41
   2   4  -2  982.80   46.48
  -2   4   2  968.00   19.49
  -2   4   2  929.46   49.48
  -2  -4   2  954.13   42.40
   2   4  -1  944.10   39.65
  -2   4   1  864.90   40.15
  -2  -4   1  898.58   39.72
   2  -4   0 1360.75   27.77
   2   4   0 1442.45   58.89
  -2   4   0 1407.38   64.09
  -2  -4   0 1327.61   65.56
   2  -4   1 1047.21   32.73
   2   4   1 1138.56   41.16
  -2   4  -1 1056.50   42.68
  -2  -4  -1 1093.70   52.11
   2  -4   2  954.76   36.16
   2   4   2  861.05   41.33
   2   4   2  950.11   32.46
   2  -4   3  951.99   41.88
   2   4   3  918.42   30.87
   2   4   3  864.70   42.14
  -2   4  -3  902.48   32.54
   2  -4   4  977.76   49.75
   2   4   4 1021.04   38.60
   2   4   4  942.55   50.18
  -2   4  -4  968.92   34.19
   2  -4   5  497.11   26.13
   2   4   5  465.66   25.94
   2   4   5  482.41   17.93
  -2   4  -5  475.73   14.62
   2  -4   6  494.33   28.78
   2   4   6  467.65   27.22
   2   4   6  482.83   18.41
   2  -4   7  424.99   27.84
   2   4   7  407.42   27.12
   2   4   7  414.87   17.95
   2  -4   8   95.77   10.79
   2   4   8   91.86    5.80
   2   4   8  104.07    9.72
   2  -4   9  138.95   14.07
   2   4   9  161.56   14.70
   2  -4  10  129.72   13.90
   2   4  10  125.61   15.27
   2  -4  11   52.75    8.53
   2   4  11   51.20    8.99
   2  -4  12   25.72    6.89
   2   4  12   25.02    7.17
   2   5 -11   58.45    9.64
  -2   5  11   83.57   12.47
  -2   5  11   56.12    7.64
  -2  -5  11   70.89   10.04
   2   5 -10   46.40    6.41
  -2   5  10   32.46    7.67
  -2   5  10   37.86    8.23
  -2  -5  10   45.36    7.57
   2   5  -9   62.98    7.07
  -2   5   9   65.71    7.30
  -2   5   9   71.22   10.25
  -2  -5   9   56.08    8.36
   2   5  -8   54.03    6.46
  -2   5   8   66.23    9.39
  -2   5   8   68.39    6.30
  -2  -5   8   65.17    7.23
   2   5  -7   71.06    6.49
  -2   5   7   62.57    6.14
  -2   5   7   72.80    8.27
  -2  -5   7   79.61    6.36
   2   5  -6  171.16   11.28
  -2   5   6  141.61    8.05
  -2   5   6  219.03   14.73
  -2  -5   6  201.83   11.16
   2   5  -5   85.13    7.00
  -2   5   5  104.83    7.62
  -2   5   5  100.14    5.31
  -2  -5   5   94.69    6.40
   2   5  -4  134.76    8.30
  -2   5   4  136.56    4.61
  -2   5   4  132.90    8.70
  -2  -5   4  136.34    7.22
   2   5  -3  169.54    8.98
  -2   5   3  159.59    3.36
  -2   5   3  157.46    8.12
  -2  -5   3  170.47    7.90
   2   5  -2  131.99    6.79
  -2   5   2  138.70    7.00
  -2  -5   2  144.30    6.94
   2   5  -1   87.35    4.48
  -2   5   1   94.67    4.98
  -2  -5   1   99.91    5.14
   2   5   0   37.07    2.24
  -2   5   0   32.09    2.30
  -2  -5   0   32.60    2.68
   2  -5   1  264.10    5.82
   2   5   1  272.15    9.71
  -2   5  -1  269.45   10.30
  -2  -5  -1  257.93   12.36
   2  -5   2   43.58    2.09
   2   5   2   42.33    2.21
  -2   5  -2   48.53    2.40
  -2  -5  -2   48.87    3.19
   2  -5   3  273.60   12.09
   2   5   3  286.60   13.54
   2   5   3  298.50   10.60
   2  -5   4   91.35    5.04
   2   5   4   96.43    4.26
   2   5   4   83.37    5.66
  -2   5  -4   89.14    3.71
   2  -5   5   28.53    3.29
   2   5   5   33.09    2.52
   2   5   5   33.88    3.52
  -2   5  -5   26.20    1.77
   2  -5   6  177.35   11.01
   2   5   6  179.64   10.79
   2   5   6  174.92    7.73
  -2   5  -6  141.23    5.20
   2  -5   7   53.98    6.14
   2   5   7   57.41    4.13
   2   5   7   56.32    5.78
   2  -5   8  119.05   10.54
   2   5   8  104.27   10.09
   2   5   8  110.25    7.41
   2  -5   9   59.58    7.95
   2   5   9   54.25    7.91
   2  -5  10   62.11    8.96
   2   5  10   67.51   11.41
   2  -5  11   59.84   12.86
   2   5  11   83.86   11.73
   2   6 -11   64.72   10.80
  -2   6  11   79.93   12.44
  -2  -6  11   77.48   10.89
   2   6 -10  151.34   14.66
  -2   6  10  148.78   14.54
  -2   6  10  186.73   20.92
  -2  -6  10  157.48   16.43
   2   6  -9  308.07   26.32
  -2   6   9  364.30   25.22
  -2   6   9  410.53   37.99
  -2  -6   9  364.27   29.18
   2   6  -8  160.56   14.41
  -2   6   8  206.84   14.07
  -2   6   8  209.92   19.55
  -2  -6   8  194.48   15.68
   2   6  -7  133.69   12.44
  -2   6   7  206.83   16.12
  -2   6   7  171.74   10.51
  -2  -6   7  174.89   12.76
   2   6  -6  528.01   33.55
  -2   6   6  547.50   36.74
  -2   6   6  464.25   27.37
  -2  -6   6  523.93   31.87
   2   6  -5  337.22   20.27
  -2   6   5  325.73   15.19
  -2   6   5  376.43   22.77
  -2  -6   5  326.74   18.72
   2   6  -4  292.71   16.12
  -2   6   4  268.73    8.60
  -2   6   4  289.92   16.19
  -2  -6   4  300.73   15.24
   2   6  -3  402.69   21.00
  -2   6   3  429.29   22.25
  -2  -6   3  395.47   19.81
   2   6  -2  554.56   27.72
  -2   6   2  563.95   29.10
  -2  -6   2  558.47   27.68
   2   6  -1  307.27   14.17
  -2   6   1  342.85   15.43
  -2  -6   1  341.56   15.78
   2   6   0  207.37    8.82
  -2   6   0  207.80    9.38
  -2  -6   0  211.24   10.32
   2  -6   1  405.54    8.15
   2   6   1  447.13   16.99
  -2   6  -1  448.49   19.46
  -2  -6  -1  469.12   21.45
   2  -6   2  429.31   12.07
   2   6   2  383.63   15.04
  -2   6  -2  381.60   15.89
  -2  -6  -2  402.92   19.17
   2  -6   3  382.77   14.13
   2   6   3  373.33   14.74
   2   6   3  360.54   17.64
  -2   6  -3  352.46   13.97
   2  -6   4  249.23   11.75
   2   6   4  251.20   12.87
   2   6   4  229.44    9.19
  -2   6  -4  210.84    7.81
   2  -6   5  319.13   19.26
   2   6   5  348.93   14.55
   2   6   5  350.55   18.95
  -2   6  -5  325.41   13.70
   2  -6   6  435.82   28.55
   2   6   6  424.75   27.34
   2   6   6  447.73   20.47
  -2   6  -6  466.72   21.65
   2  -6   7  192.63   13.73
   2   6   7  181.42   13.08
   2   6   7  189.43   10.34
   2  -6   8  200.46   15.91
   2   6   8  199.93   15.82
   2   6   8  197.05   11.94
   2  -6   9  281.94   24.09
   2   6   9  288.85   28.27
   2  -6  10  164.67   18.69
   2   6  10  166.53   17.57
   2  -6  11   48.17    8.77
   2   6  11   46.63    9.31
  -2   7  11   39.38    9.09
  -2  -7  11   27.21    7.90
   2   7 -10   16.74    5.60
  -2   7  10   41.94    8.58
  -2  -7  10   28.88    6.31
   2   7  -9   54.27    6.96
  -2   7   9   43.51    9.17
  -2  -7   9   46.26    7.94
   2   7  -8  156.14   13.97
  -2   7   8  157.91   11.30
  -2   7   8  196.56   20.39
  -2  -7   8  179.05   15.30
   2   7  -7   46.49    6.17
  -2   7   7   45.95    4.89
  -2   7   7   54.31    6.96
  -2  -7   7   50.23    6.25
   2   7  -6   13.23    3.81
  -2   7   6   23.52    3.08
  -2   7   6   25.67    4.58
  -2  -7   6   23.65    3.74
   2   7  -5  100.08    7.60
  -2   7   5   83.58    4.59
  -2   7   5  123.81    8.92
  -2  -7   5   94.20    6.95
   2   7  -4  158.42   10.47
  -2   7   4  171.62   10.44
  -2  -7   4  155.29    9.66
   2   7  -3   33.88    3.59
  -2   7   3   29.60    2.80
  -2  -7   3   28.79    3.83
   2   7  -2   18.09    2.42
  -2   7   2   15.40    2.44
  -2  -7   2   12.82    2.45
   2   7  -1  191.95    9.67
  -2   7   1  203.33   10.12
  -2  -7   1  183.25   10.04
   2   7   0   11.34    1.92
  -2   7   0   15.26    2.05
  -2  -7   0   12.76    2.32
   2   7   1   64.67    3.81
  -2   7  -1   67.18    3.92
  -2  -7  -1   66.56    4.63
   2  -7   2    8.20    0.81
   2   7   2    7.90    1.60
  -2   7  -2    4.77    1.79
  -2  -7  -2    6.38    1.93
   2  -7   3    1.66    1.09
   2   7   3   -2.13    1.73
   2   7   3    4.02    1.37
  -2   7  -3    4.88    1.18
   2  -7   4   80.53    4.06
   2   7   4   70.69    4.38
   2   7   4   85.72    5.71
  -2   7  -4   71.02    4.53
   2  -7   5  115.52    7.17
   2   7   5  100.58    7.84
   2   7   5  115.97    6.34
  -2   7  -5  132.26    6.82
   2  -7   6    7.52    2.59
   2   7   6   11.87    2.89
   2   7   6    9.03    2.46
  -2   7  -6    8.74    2.28
   2  -7   7   56.80    6.91
   2   7   7   50.45    5.90
   2   7   7   57.05    4.15
   2  -7   8   97.65    9.75
   2   7   8  108.04    7.48
   2   7   8  100.63    9.94
   2  -7   9   32.06    7.09
   2   7   9   35.38    6.51
   2  -7  10   25.43    6.95
   2   7  10   16.91    5.95
   2  -7  11   27.44    7.04
   2   7  11   43.41    8.20
   2   8 -10   27.91    6.21
  -2   8  10   29.04    8.04
  -2  -8  10   39.08    9.11
   2   8  -9   77.52   10.11
  -2   8   9  114.80   14.13
  -2  -8   9   96.91   12.21
   2   8  -8   61.55    8.29
  -2   8   8   89.94   11.01
  -2  -8   8   79.81    9.32
   2   8  -7   72.30    7.99
  -2   8   7   89.62    9.55
  -2  -8   7   68.50    7.91
   2   8  -6  230.24   17.76
  -2   8   6  291.72   20.79
  -2  -8   6  227.67   16.81
   2   8  -5  405.79   27.54
  -2   8   5  430.88   27.55
  -2  -8   5  403.02   26.45
   2   8  -4  256.45   16.87
  -2   8   4  256.25   16.29
  -2  -8   4  233.74   14.87
   2   8  -3  387.62   23.41
  -2   8   3  439.26   25.86
  -2  -8   3  405.69   26.36
   2   8  -2  721.78   41.56
  -2   8   2  787.59   43.93
  -2  -8   2  740.30   41.92
   2   8  -1  726.88   38.63
  -2   8   1  698.66   38.79
  -2  -8   1  754.53   42.86
   2   8   0  491.31   23.67
  -2   8   0  489.67   24.64
  -2  -8   0  453.50   24.55
   2   8   1  592.59   28.34
  -2   8  -1  588.62   30.88
  -2  -8  -1  610.48   33.47
   2  -8   2  779.19   25.20
   2   8   2  843.97   39.68
  -2   8  -2  817.15   40.93
  -2  -8  -2  851.56   45.42
   2  -8   3  434.67   15.51
   2   8   3  415.44   22.69
   2   8   3  428.49   20.39
  -2   8  -3  420.04   20.63
   2  -8   4  343.91   15.18
   2   8   4  279.70   17.28
   2   8   4  302.06   15.81
  -2   8  -4  325.21   16.49
   2  -8   5  508.53   25.23
   2   8   5  448.28   28.17
   2   8   5  450.86   24.52
  -2   8  -5  531.61   30.16
   2  -8   6  354.90   20.45
   2   8   6  327.44   18.88
   2   8   6  347.05   25.59
  -2   8  -6  392.75   22.61
   2  -8   7  107.45    8.43
   2   8   7  104.85    6.95
   2   8   7   88.59    8.45
   2  -8   8   75.23    7.92
   2   8   8   83.60    8.18
   2   8   8   78.27    8.41
   2  -8   9  169.48   15.66
   2   8   9  179.93   16.88
   2  -8  10   51.03    8.42
   2   8  10   62.66   10.85
   2   9 -10   12.53    5.63
  -2   9  10   20.40    7.06
  -2  -9  10   19.76    6.33
   2   9  -9   58.93    9.55
  -2   9   9   82.95   12.20
  -2  -9   9   77.21   10.51
   2   9  -8   63.55   10.61
  -2   9   8   75.54   10.25
  -2  -9   8   66.96    9.22
   2   9  -7   24.57    5.79
  -2   9   7   35.26    6.27
  -2  -9   7   29.88    5.46
   2   9  -6   36.60    5.57
  -2   9   6   38.98    6.41
  -2  -9   6   37.71    5.60
   2   9  -5  138.60   11.94
  -2   9   5  167.90   12.29
  -2  -9   5  138.38   11.13
   2   9  -4   45.90    5.77
  -2   9   4   62.27    5.89
  -2  -9   4   46.16    5.74
   2   9  -3   10.72    3.14
  -2   9   3   12.90    2.94
  -2  -9   3   16.32    3.66
   2   9  -2   54.70    5.09
  -2   9   2   66.43    5.07
  -2  -9   2   54.82    5.53
   2   9  -1   23.40    3.05
  -2   9   1   17.56    3.02
  -2  -9   1   18.96    3.19
   2   9   0    0.57    1.92
  -2   9   0    8.22    2.32
  -2  -9   0    1.95    1.88
   2   9   1    8.85    2.20
  -2   9  -1    7.70    2.16
  -2  -9  -1   12.99    2.84
   2   9   2   10.22    2.29
  -2   9  -2   14.06    2.33
  -2  -9  -2    9.76    2.46
   2  -9   3   20.87    1.84
   2   9   3   26.14    3.02
   2   9   3   23.12    3.19
  -2   9  -3   22.89    2.99
   2  -9   4   39.84    2.78
   2   9   4   43.59    4.40
   2   9   4   42.32    3.94
  -2   9  -4   45.64    5.27
   2  -9   5   49.02    4.43
   2   9   5   48.27    4.29
   2   9   5   43.98    4.79
  -2   9  -5   41.23    5.34
   2  -9   6   27.01    4.57
   2   9   6   34.27    4.10
   2   9   6   28.04    4.78
  -2   9  -6   59.37    5.07
   2  -9   7   13.39    3.59
   2   9   7   19.88    3.22
   2   9   7   17.02    3.82
   2  -9   8   46.87    6.23
   2   9   8   42.54    5.10
   2   9   8   44.48    6.40
   2  -9   9   42.97    6.65
   2   9   9   40.63    7.13
   2  -9  10   11.05    4.65
   2   9  10    8.73    4.85
   2  10  -9   92.81   13.18
  -2  10   9  143.03   17.62
  -2 -10   9  128.44   17.81
   2  10  -8  126.36   15.80
  -2  10   8  197.13   18.73
  -2 -10   8  161.17   17.45
   2  10  -7  121.51   13.92
  -2  10   7  156.82   15.64
  -2 -10   7  144.25   13.98
   2  10  -6  130.10   13.13
  -2  10   6  146.65   12.95
  -2 -10   6  139.55   12.86
   2  10  -5  219.81   18.36
  -2  10   5  248.99   18.29
  -2 -10   5  220.03   16.89
   2  10  -4  182.75   14.67
  -2  10   4  203.11   17.17
  -2 -10   4  177.01   14.11
   2  10  -3  195.43   14.11
  -2  10   3  213.89   13.81
  -2 -10   3  192.68   13.84
   2  10  -2  191.10   12.92
  -2  10   2  182.92   12.12
  -2 -10   2  182.19   12.61
   2  10  -1  164.45   10.54
  -2  10   1  156.96   10.24
  -2 -10   1  157.77   12.27
   2  10   0  189.68   11.83
  -2  10   0  198.91   12.25
  -2 -10   0  215.67   12.33
   2  10   1  110.58    7.45
  -2  10  -1  115.22    8.02
  -2 -10  -1  121.30    7.93
   2  10   2  192.02   11.82
  -2  10  -2  214.97   12.97
   2  10   3  157.69   10.25
   2  10   3  161.81   10.28
  -2  10  -3  181.49   12.89
   2 -10   4  160.39    8.29
   2  10   4  148.79   10.82
   2  10   4  158.99   11.79
  -2  10  -4  173.15   11.81
   2 -10   5  225.70   12.31
   2  10   5  196.12   13.39
   2  10   5  199.38   14.97
  -2  10  -5  217.71   16.62
   2 -10   6  182.07   11.37
   2  10   6  152.77   12.49
   2  10   6  158.83   11.61
  -2  10  -6  176.29   13.45
   2 -10   7  152.31   10.95
   2  10   7  119.22   11.09
   2  10   7  131.87   10.33
   2 -10   8  127.42   13.00
   2  10   8  123.61   10.35
   2  10   8  111.14   11.48
   2  10   9  112.28   12.83
   2  11  -8   44.95    8.98
  -2  11   8   67.23   10.47
  -2 -11   8   61.72    9.78
   2  11  -7   31.70    7.23
  -2  11   7   41.77    7.98
  -2 -11   7   41.79    7.34
   2  11  -6   59.70    8.95
  -2  11   6   68.26    8.42
  -2 -11   6   64.16    8.18
   2  11  -5   41.26    6.57
  -2  11   5   45.78    6.62
  -2 -11   5   42.27    6.82
   2  11  -4   17.44    4.66
  -2  11   4   22.93    4.64
  -2 -11   4   26.39    5.48
   2  11  -3   60.49    7.05
  -2  11   3   62.71    6.60
  -2 -11   3   63.18    6.82
   2  11  -2   18.64    3.86
  -2  11   2   21.36    3.67
  -2 -11   2   20.99    4.91
   2  11  -1   12.07    3.09
  -2  11   1   10.16    3.07
  -2 -11   1   15.46    2.99
   2  11   0    7.66    2.71
  -2  11   0    6.90    2.77
  -2 -11   0    8.08    2.40
   2  11   1    5.81    2.49
  -2  11  -1    9.31    2.67
  -2 -11  -1    2.67    2.97
   2  11   2    3.82    2.88
   2  11   2    1.55    2.16
  -2  11  -2    6.11    2.51
   2  11   3   42.58    5.16
   2  11   3   30.73    4.04
  -2  11  -3   36.94    5.84
   2  11   4    5.40    2.66
   2  11   4    3.80    2.69
  -2  11  -4   15.47    3.63
   2  11   5   16.09    3.32
   2  11   5    9.79    3.35
  -2  11  -5   21.93    3.84
   2  11   6   22.95    4.45
   2  11   6   27.66    4.33
   2  11   7   42.25    5.71
   2  11   7   46.89    5.76
   2  11   8   14.62    3.92
   2  11   8   13.49    4.06
   2  12  -7   58.16   10.42
  -2  12   7   75.55   11.56
  -2 -12   7   84.64   10.42
   2  12  -6   44.96    7.91
  -2  12   6   49.96    8.00
  -2 -12   6   58.08    8.46
   2  12  -5  128.74   14.09
  -2  12   5  146.76   13.79
  -2 -12   5  133.27   15.90
   2  12  -4  209.70   17.71
  -2  12   4  204.55   17.95
  -2 -12   4  193.81   16.67
   2  12  -3  146.54   12.99
  -2  12   3  148.45   12.32
  -2 -12   3  134.82   12.11
   2  12  -2  197.22   15.26
  -2  12   2  202.46   14.83
  -2 -12   2  202.47   17.39
   2  12  -1  291.02   20.53
  -2  12   1  304.62   20.91
  -2 -12   1  308.73   19.95
   2  12   0  252.23   17.83
  -2  12   0  275.38   19.17
  -2 -12   0  296.19   21.40
   2  12   1  214.25   15.19
  -2  12  -1  257.66   17.80
  -2 -12  -1  212.53   16.81
   2  12   2  278.37   19.16
   2  12   2  256.83   17.05
  -2  12  -2  322.27   21.57
   2  12   3  208.43   14.30
   2  12   3  227.13   16.00
  -2  12  -3  254.86   20.66
   2  12   4  143.36   10.76
   2  12   4  151.87   11.53
  -2  12  -4  153.11   13.03
   2  12   5  143.87   11.98
   2  12   5  131.72   12.32
  -2  12  -5  161.54   13.99
   2  12   6   99.02   11.52
   2  12   6  101.19    9.27
   2  12   7   77.45    8.44
   2  13  -6   30.34    8.80
  -2  13   6   34.05    6.61
  -2 -13   6   34.22    8.95
   2  13  -5   33.59    7.42
  -2  13   5   26.80    8.32
  -2 -13   5   52.32    6.97
   2  13  -4   20.31    4.94
  -2  13   4   17.32    4.74
  -2 -13   4   10.62    4.70
   2  13  -3   14.55    4.41
  -2  13   3   14.40    4.12
  -2 -13   3   14.36    4.32
   2  13  -2   27.59    5.19
  -2  13   2   29.64    5.13
  -2 -13   2   31.14    5.79
   2  13  -1   17.17    4.11
  -2  13   1   13.24    4.17
  -2 -13   1   21.51    4.37
   2  13   0    2.63    2.83
  -2  13   0    2.68    2.95
  -2 -13   0    0.63    2.58
   2  13   1   13.49    3.97
  -2  13  -1   15.44    4.36
  -2 -13  -1   19.63    4.14
   2  13   2    3.01    2.59
   2  13   2    1.94    2.80
  -2  13  -2    1.05    3.14
   2  13   3   22.47    3.96
   2  13   3   15.10    4.15
  -2  13  -3   13.03    4.59
   2  13   4    5.90    2.91
   2  13   4    6.48    3.35
  -2  13  -4   12.60    3.85
   2  13   5   24.92    4.61
   2  13   6   42.87    6.43
   2  14  -4   88.17   11.83
  -2  14   4  101.56   11.57
  -2 -14   4   95.39   14.10
   2  14  -3   59.59    8.74
  -2  14   3   67.37    8.11
  -2 -14   3   57.76    7.86
   2  14  -2   28.78    5.98
  -2  14   2   32.12    5.72
  -2 -14   2   32.33    6.10
   2  14  -1   43.13    7.00
  -2  14   1   62.89    7.53
  -2 -14   1   55.98    6.14
   2  14   0   76.79    8.92
  -2  14   0   84.88    9.67
  -2 -14   0   88.12    9.75
   2  14   1   40.12    5.05
  -2  14  -1   29.93    5.58
  -2 -14  -1   16.84    2.97
   2  14   2   58.72    7.20
  -2  14  -2   64.49    8.31
   2  14   3   54.97    7.14
  -2  14  -3   50.10    8.10
   2  14   4   62.74    7.92
  -2  14  -4   73.42   11.26
   2  15  -1    2.74    3.09
  -2  15   1   -1.89    3.34
   2  15   0    2.09    3.05
  -2  15   0   -2.59    3.21
   2  15   1    5.84    3.61
  -2  15  -1    6.02    4.17
  -3   0  11   26.73    6.40
  -3   0  11   17.61    6.49
  -3   0  10    9.13    4.49
  -3   0  10   14.31    4.78
  -3   0   9   21.12    4.63
  -3   0   9   20.59    5.22
  -3   0   8    5.19    3.07
  -3   0   8    9.31    3.70
  -3   0   7  120.68   10.78
  -3   0   7  110.11    8.83
  -3   0   6  148.31   12.03
  -3   0   6  128.09    8.03
  -3   0   5    5.78    1.66
  -3   0   5    1.66    2.66
  -3   0   4  423.67   25.16
  -3   0   4  371.09   15.90
  -3   0   3  417.69   24.48
  -3   0   3  434.64   17.09
  -3   0   2  180.41    7.11
  -3   0   2  182.57   10.24
  -3   0   1  131.29    6.65
  -3   0   1  141.02    6.37
  -3   0   0  882.73   41.12
  -3   0   0  869.79   35.96
  -3   0  -1  408.25   14.57
   3   0   2   25.64    2.15
   3   0   2   26.94    1.58
   3   0   3  666.04   31.32
   3   0   3  664.08   15.36
   3   0   4  503.39   25.73
   3   0   5   36.14    3.79
   3   0   6   50.64    5.23
   3   0   7  327.88   23.75
   3   0   8   94.15    9.90
   3   0   9    1.51    3.72
   3   0  10   92.17   11.58
   3   0  11   41.10    8.15
  -3  -1  11   65.76   11.02
  -3  -1  11   80.98   11.26
  -3   1  11   58.21   10.79
  -3   1  11   86.32   10.93
  -3  -1  10  277.55   25.06
  -3  -1  10  239.49   22.90
  -3   1  10  233.17   22.75
  -3   1  10  297.93   24.71
  -3  -1   9   38.86    7.03
  -3  -1   9   42.24    8.08
  -3   1   9   41.44    6.29
  -3   1   9   48.83    7.10
  -3  -1   8   33.87    5.66
  -3  -1   8   33.18    4.91
  -3   1   8   29.07    5.96
  -3   1   8   23.34    4.70
  -3  -1   7  364.21   25.60
  -3  -1   7  275.64   19.43
  -3   1   7  358.85   25.47
  -3   1   7  303.04   19.96
  -3  -1   6  203.97   15.14
  -3  -1   6  184.39   11.10
  -3   1   6  224.95   18.07
  -3   1   6  181.12   10.10
  -3  -1   5   45.29    4.98
  -3  -1   5   42.98    3.59
  -3   1   5   45.97    5.90
  -3   1   5   41.08    3.10
  -3  -1   4  103.16    7.35
  -3  -1   4  100.08    5.15
  -3   1   4   96.69    4.82
  -3   1   4   97.15    8.54
  -3  -1   3  320.00   18.56
  -3  -1   3  317.89   13.38
  -3   1   3  333.00   12.78
  -3   1   3  317.42   21.61
  -3  -1   2  111.06    5.19
  -3  -1   2  117.80    6.94
  -3   1   2  119.14    4.44
  -3   1   2   92.04    7.68
  -3  -1   1   20.82    2.26
  -3  -1   1   19.17    2.05
  -3   1   1   21.35    1.78
  -3   1   1   13.03    2.42
  -3   1   0   82.07    3.21
  -3  -1   0   82.51    3.95
  -3   1   0   75.38    4.51
  -3  -1   0   81.29    4.74
   3   1   1    8.35    1.16
   3  -1   1    5.12    1.13
  -3  -1  -1    5.80    1.51
  -3   1  -1    3.29    0.82
   3   1   2   19.69    2.28
   3  -1   2   24.61    1.99
   3   1   2   19.66    1.31
  -3   1  -2   24.25    1.38
   3   1   3   80.27    1.97
   3   1   3   76.83    4.95
   3  -1   3   73.79    4.29
   3   1   4    8.98    0.39
   3   1   4    9.30    2.28
   3  -1   4   12.14    1.93
   3   1   5   20.84    3.45
   3  -1   5   29.20    3.21
   3   1   6  140.91    9.28
   3  -1   6  133.39   10.24
   3   1   7   89.49    8.25
   3  -1   7   84.88    8.68
   3   1   8   34.20    5.99
   3  -1   8   32.85    6.22
   3   1   9   25.72    5.95
   3  -1   9   26.65    6.02
   3   1  10   97.00   15.27
   3  -1  10   95.21   11.92
   3   1  11   59.56   10.00
   3  -1  11   61.94    9.86
  -3  -2  11   30.97    8.00
  -3  -2  11   43.46    9.88
  -3   2  11   28.10    7.86
  -3   2  11   47.08    7.52
  -3  -2  10  156.90   17.56
  -3   2  10  158.25   15.71
  -3   2  10  183.21   19.15
  -3  -2  10  179.82   17.92
  -3   2   9   70.98    8.36
  -3  -2   9   82.71    9.72
  -3  -2   9   78.25    8.88
  -3   2   9   85.84   12.46
  -3  -2   8   90.21    9.84
  -3  -2   8   85.04    8.23
  -3   2   8   79.55    7.91
  -3   2   8   95.96   11.61
  -3  -2   7  281.90   20.56
  -3  -2   7  213.50   15.86
  -3   2   7  250.98   15.34
  -3   2   7  267.24   22.78
  -3  -2   6  201.81   13.23
  -3   2   6  282.65   21.50
  -3   2   6  227.57   13.44
  -3  -2   6  231.06   17.29
  -3   2   5   39.11    5.90
  -3  -2   5   42.67    4.59
  -3  -2   5   38.34    3.43
  -3   2   5   35.14    2.59
  -3  -2   4   77.83    6.75
  -3  -2   4   84.05    4.99
  -3   2   4   73.00    7.27
  -3   2   4   84.42    3.50
  -3  -2   3  447.94   26.46
  -3  -2   3  455.96   21.46
  -3   2   3  417.53   27.77
  -3  -2   2   27.15    2.43
  -3  -2   2   31.17    3.03
  -3   2   2   23.96    1.50
  -3   2   2   29.14    3.28
  -3   2   1   38.61    1.66
  -3  -2   1   32.07    2.88
  -3   2   1   22.26    3.15
   3   2   0  375.33   15.78
  -3  -2   0  369.30   14.99
  -3   2   0  264.73   16.35
   3   2   1   45.00    2.33
   3  -2   1   46.68    2.30
  -3   2  -1   39.55    2.36
  -3  -2  -1   45.44    3.06
   3   2   2   13.07    1.29
   3   2   2   13.99    2.16
   3  -2   2   16.15    1.55
  -3   2  -2   18.82    1.71
   3   2   3   80.58    2.37
   3   2   3   81.67    4.79
   3  -2   3   77.58    3.99
  -3   2  -3   67.56    2.08
   3   2   4  396.28   21.25
   3   2   4  396.92    9.89
   3  -2   4  393.13   19.40
   3   2   5    4.68    2.54
   3  -2   5    7.42    2.27
   3   2   6   56.28    5.78
   3  -2   6   63.20    6.09
   3   2   7  345.50   24.77
   3  -2   7  344.88   25.79
   3  -2   8   47.82    7.48
   3   2   8   63.93    7.74
   3   2   9   36.40    6.63
   3  -2   9   30.64    6.07
   3   2  10  106.55   13.41
   3  -2  10   90.08   11.78
   3   2  11  141.75   17.41
   3  -2  11  119.44   15.51
   3   3 -11   83.22   10.86
  -3  -3  11   69.24   11.29
  -3   3  11   71.22   10.94
  -3   3  11   71.56   11.64
   3   3 -10  152.49   16.07
  -3  -3  10  140.90   15.41
  -3   3  10  129.75   13.71
  -3   3  10  173.73   19.74
  -3  -3   9   51.44    7.49
  -3   3   9   50.74    6.92
  -3   3   9   62.78    9.90
  -3  -3   8   68.84    8.24
  -3  -3   8   69.86    7.64
  -3   3   8   64.89    6.84
  -3   3   8   88.78   11.44
  -3  -3   7  269.27   21.53
  -3  -3   7  267.96   19.43
  -3   3   7  280.97   18.67
  -3   3   7  364.78   29.17
  -3  -3   6   59.88    7.26
  -3  -3   6   71.40    6.17
  -3   3   6   79.16    5.43
  -3   3   6   75.37    8.68
  -3  -3   5  109.11    9.07
  -3  -3   5  108.60    6.84
  -3   3   5  118.20   10.51
  -3   3   5  105.36    5.08
  -3  -3   4  297.41   14.80
  -3   3   4  321.30   22.28
  -3   3   4  269.98    9.08
   3   3  -3   99.92    7.56
  -3  -3   3  100.84    5.65
  -3   3   3   98.25    3.59
  -3   3   3  104.74    8.67
   3   3  -2    3.45    2.15
  -3  -3   2    6.07    1.68
  -3   3   2    2.38    2.13
  -3   3   2    5.23    0.91
   3   3  -1  132.38    7.35
  -3  -3   1  128.17    6.97
  -3   3   1  125.09    3.68
  -3   3   1  121.51    7.63
   3   3   0  125.18    5.94
   3  -3   0  125.23    3.89
  -3  -3   0  126.89    6.20
  -3   3   0  112.24    6.70
   3   3   1  240.73    9.14
   3  -3   1  233.41    7.38
  -3  -3  -1  266.18   11.53
  -3   3  -1  218.18   11.21
   3   3   2   12.10    1.42
   3   3   2    8.80    2.21
   3  -3   2    6.43    1.52
  -3   3  -2   15.56    1.64
   3   3   3   25.83    1.53
   3  -3   3   25.99    2.20
   3   3   3   22.58    2.96
  -3   3  -3   26.79    1.60
   3   3   4  148.87    9.11
   3   3   4  145.68    4.38
   3  -3   4  146.70    9.09
   3   3   5  137.74    9.31
   3   3   5  134.07    4.25
   3  -3   5  136.39    8.77
   3   3   6   16.42    3.39
   3  -3   6   13.71    3.41
   3   3   7   48.32    6.06
   3  -3   7   59.05    6.70
   3   3   8  235.26   18.90
   3  -3   8  222.84   18.11
   3   3   9   30.18    6.16
   3  -3   9   25.51    5.53
   3   3  10   59.60    8.97
   3  -3  10   43.27    8.27
   3   3  11   98.62   13.38
   3  -3  11   74.95   12.04
   3   4 -11   25.72    7.24
  -3   4  11   39.19    9.68
  -3  -4  11   40.72    7.92
   3   4 -10   24.27    5.38
  -3  -4  10   17.44    5.57
  -3   4  10    9.27    4.42
  -3   4  10   22.55    6.77
   3   4  -9   89.22    9.63
  -3  -4   9   74.79   11.46
  -3   4   9   87.26   12.59
  -3   4   9   55.95    8.26
   3   4  -8   13.69    4.52
  -3  -4   8   18.33    4.23
  -3   4   8   18.33    3.46
  -3   4   8   14.17    5.54
   3   4  -7   71.74    8.84
  -3  -4   7   90.42    7.87
  -3   4   7   77.30    5.81
  -3   4   7   82.43   10.37
   3   4  -6  151.65   12.99
  -3  -4   6  167.53   10.94
  -3   4   6  141.65    6.85
  -3   4   6  216.67   16.74
   3   4  -5   40.86    5.64
  -3  -4   5   48.11    4.46
  -3   4   5   59.75    7.09
  -3   4   5   47.15    2.45
   3   4  -4  264.19   18.99
  -3  -4   4  285.68   15.31
  -3   4   4  256.89   19.97
  -3   4   4  298.08    9.65
   3   4  -3  281.38   18.48
  -3   4   3  317.37    9.97
  -3   4   3  284.16   19.41
  -3  -4   3  300.24   16.23
   3   4  -2  363.39   20.41
  -3  -4   2  400.71   19.24
  -3   4   2  369.48    9.96
  -3   4   2  382.13   23.02
   3   4  -1  197.07   10.66
   3  -4  -1  199.71    4.66
  -3  -4   1  228.09   11.27
  -3   4   1  206.29   11.16
   3   4   0  517.06   23.94
   3  -4   0  532.47   14.46
  -3  -4   0  511.04   24.76
  -3   4   0  497.60   25.81
   3   4   1  489.65   19.93
   3  -4   1  478.47   15.04
  -3  -4  -1  481.65   23.58
  -3   4  -1  451.78   21.84
   3   4   2  216.77    8.54
   3  -4   2  227.81    8.92
  -3  -4  -2  202.21   10.18
  -3   4  -2  205.56    8.94
   3   4   3  502.67   18.80
   3  -4   3  557.88   25.16
   3   4   3  499.92   28.20
  -3   4  -3  561.49   21.99
   3   4   4  207.38    7.74
   3   4   4  220.15   13.77
   3  -4   4  237.71   12.95
  -3   4  -4  244.39    7.52
   3   4   5  165.19   11.09
   3   4   5  166.99    6.25
   3  -4   5  175.46   12.50
   3   4   6  126.98   10.41
   3   4   6  120.88    4.89
   3  -4   6  137.53    9.49
   3   4   7  137.56   11.48
   3  -4   7  137.46   10.93
   3   4   8   58.44    7.88
   3  -4   8   61.85    7.32
   3   4   9   26.00    6.28
   3  -4   9   29.88    5.92
   3   4  10   56.69   10.93
   3  -4  10   77.68   10.01
   3   4  11    6.03    6.47
   3  -4  11   19.18    5.73
   3   5 -11   65.49   10.89
  -3  -5  11  105.69   12.74
  -3   5  11   71.33   14.18
   3   5 -10   40.15    8.46
  -3  -5  10   65.49    9.40
  -3   5  10   70.83   12.25
   3   5  -9   61.76    8.41
  -3  -5   9   52.19    8.75
  -3   5   9   48.10    8.39
  -3   5   9   71.89   12.20
   3   5  -8   89.66   10.36
  -3  -5   8  113.31   10.95
  -3   5   8   94.38    9.52
  -3   5   8  137.59   13.78
   3   5  -7   47.43    6.56
  -3  -5   7   53.52    6.41
  -3   5   7   63.91    9.11
   3   5  -6   57.03    7.56
  -3  -5   6   81.03    7.02
  -3   5   6   76.54    4.50
  -3   5   6   74.20    8.86
   3   5  -5   57.47    7.49
  -3  -5   5   84.34    6.67
  -3   5   5   91.99    8.58
  -3   5   5   77.69    3.47
   3   5  -4  102.46    8.90
  -3  -5   4  126.61    7.83
  -3   5   4  105.73    3.51
  -3   5   4  120.19    9.93
   3   5  -3   72.67    6.22
  -3  -5   3   85.62    6.01
  -3   5   3   74.36    2.07
  -3   5   3   64.74    6.41
   3   5  -2  147.05    9.74
  -3  -5   2  153.00    9.00
  -3   5   2  157.83   10.01
   3   5  -1  141.98    8.39
  -3  -5   1  148.86    8.76
  -3   5   1  146.23    8.78
   3   5   0   -0.27    1.42
   3  -5   0    1.05    0.40
  -3  -5   0   -2.84    1.47
  -3   5   0   -1.03    1.51
   3  -5   1   46.28    1.89
   3   5   1   52.91    3.11
  -3  -5  -1   53.84    4.05
  -3   5  -1   50.25    3.75
   3   5   2    2.27    1.17
   3  -5   2    1.32    1.13
  -3  -5  -2   -2.66    1.90
   3   5   3  130.66    5.24
   3   5   3  127.45    8.38
   3  -5   3  133.63    6.03
  -3   5  -3  123.84    5.81
   3   5   4   44.55    2.76
   3   5   4   37.77    4.25
   3  -5   4   48.10    4.13
  -3   5  -4   41.18    2.30
   3   5   5   62.98    6.06
   3   5   5   61.90    3.62
   3  -5   5   58.12    5.76
   3   5   6  152.73   11.67
   3   5   6  136.71    6.41
   3  -5   6  142.00   10.08
   3  -5   7   50.59    6.13
   3   5   7   57.27    6.73
   3   5   8   66.63    8.97
   3  -5   8   76.41    8.26
   3   5   9   16.38    6.17
   3  -5   9   29.54    6.62
   3   5  10   48.69    9.28
   3  -5  10   50.89    8.34
   3   5  11   47.55    9.45
   3  -5  11   41.57    8.73
   3   6 -10   77.92   13.56
  -3  -6  10  100.51   12.87
  -3   6  10  107.24   15.66
   3   6  -9  130.23   14.38
  -3  -6   9  136.91   15.25
  -3   6   9  164.36   18.90
   3   6  -8   96.28   13.41
  -3  -6   8  123.76   12.06
  -3   6   8  123.30   16.24
   3   6  -7   68.13    8.19
  -3  -6   7   72.06    7.91
  -3   6   7   73.99    9.91
   3   6  -6  173.89   15.09
  -3  -6   6  190.12   14.57
  -3   6   6  196.60   17.89
   3   6  -5  186.97   15.23
  -3  -6   5  209.56   13.91
  -3   6   5  235.46   18.13
   3   6  -4   48.10    5.65
  -3  -6   4   48.31    4.88
  -3   6   4   51.90    5.81
   3   6  -3  126.43    9.28
  -3  -6   3  133.29    9.02
  -3   6   3  124.20   10.05
   3   6  -2  125.80    8.39
  -3  -6   2  135.23    9.12
  -3   6   2  136.71    9.70
   3   6  -1  121.32    8.08
  -3   6   1  135.00    8.16
  -3  -6   1  149.70    9.08
   3   6   0   33.03    3.25
  -3  -6   0   30.49    3.45
  -3   6   0   33.05    3.22
   3   6   1   51.69    3.56
  -3  -6  -1   46.92    4.26
  -3   6  -1   58.74    4.58
   3   6   2  176.83    7.88
   3  -6   2  162.72    6.10
  -3  -6  -2  185.17   11.19
  -3   6  -2  195.94    9.21
   3   6   3   27.56    2.16
   3   6   3   33.48    3.56
   3  -6   3   19.86    2.24
  -3   6  -3   16.01    2.23
   3   6   4   69.20    3.63
   3   6   4   64.75    5.54
   3  -6   4   55.51    3.97
  -3   6  -4   62.08    3.24
   3   6   5  119.08    5.68
   3   6   5  113.74    9.24
   3  -6   5  112.98    7.45
   3   6   6  167.70   13.31
   3   6   6  170.85    8.64
   3  -6   6  163.91   11.65
   3   6   7   52.09    3.42
   3  -6   7   56.08    7.16
   3   6   7   52.17    6.98
   3   6   8   50.84    7.13
   3  -6   8   52.35    7.10
   3   6   9  157.46   16.01
   3  -6   9  147.11   15.30
   3   6  10   75.99   11.34
   3  -6  10   68.67   10.10
   3   7 -10   21.72    6.66
  -3  -7  10   26.58    7.55
  -3   7  10   36.61    8.69
   3   7  -9   52.06    9.18
  -3  -7   9   77.92   12.02
  -3   7   9   85.77   13.44
   3   7  -8   72.05   11.98
  -3  -7   8   95.93   10.43
  -3   7   8   90.56   12.65
   3   7  -7  140.30   14.07
  -3  -7   7  152.42   14.13
  -3   7   7  171.44   17.42
   3   7  -6    6.49    3.90
  -3  -7   6   16.29    3.53
  -3   7   6    7.93    4.57
   3   7  -5  147.70   12.77
  -3  -7   5  146.48   11.41
  -3   7   5  149.65   13.14
   3   7  -4  213.49   17.17
  -3  -7   4  235.98   16.52
  -3   7   4  238.19   18.57
   3   7  -3   39.28    4.61
  -3  -7   3   33.02    4.24
  -3   7   3   32.89    5.05
   3   7  -2   19.23    3.59
  -3  -7   2   23.91    3.47
  -3   7   2   19.84    3.29
   3   7  -1   72.46    6.12
  -3  -7   1   81.45    6.54
  -3   7   1   79.45    6.14
   3   7   0   64.41    4.93
  -3  -7   0   59.10    5.05
  -3   7   0   72.16    6.16
   3   7   1  103.42    6.18
  -3  -7  -1  105.18    7.27
  -3   7  -1  119.92    7.40
   3   7   2   10.75    1.97
   3  -7   2    8.21    0.88
  -3  -7  -2   10.95    2.77
  -3   7  -2   13.80    2.49
   3   7   3   12.19    2.07
   3   7   3   11.26    3.14
   3  -7   3   14.83    1.76
  -3   7  -3   16.68    2.75
   3   7   4  139.17    7.72
   3   7   4  125.96    9.39
   3  -7   4  119.92    7.27
  -3   7  -4  135.63    6.91
   3   7   5   79.94    6.74
   3   7   5   58.62    4.10
   3  -7   5   61.76    5.42
  -3   7  -5   56.34    4.10
   3   7   6    8.39    3.13
   3   7   6    4.50    1.73
   3  -7   6    4.26    2.37
   3   7   7   24.15    4.79
   3   7   7   24.29    3.15
   3  -7   7   14.58    4.71
   3   7   8  129.35   13.49
   3  -7   8  144.95   14.37
   3   7   9   25.01    5.53
   3  -7   9   12.06    4.96
   3   7  10    6.61    5.28
   3  -7  10   10.02    4.56
   3   8  -9   34.48    7.40
  -3  -8   9   42.37    8.34
  -3   8   9   47.26   10.85
   3   8  -8   15.70    4.94
  -3  -8   8   17.18    5.26
  -3   8   8   16.23    8.00
   3   8  -7   14.76    4.69
  -3  -8   7   15.80    4.89
  -3   8   7   19.34    5.69
   3   8  -6   76.23   11.77
  -3  -8   6   95.27    9.69
  -3   8   6  105.44   10.78
   3   8  -5  140.61   13.36
  -3  -8   5  146.66   12.20
  -3   8   5  169.15   14.64
   3   8  -4  147.77   12.68
  -3  -8   4  162.44   13.22
  -3   8   4  176.84   13.94
   3   8  -3  124.05   10.34
  -3  -8   3  127.15    9.85
  -3   8   3  123.61    9.69
   3   8  -2  419.90   26.91
  -3  -8   2  411.61   26.56
  -3   8   2  443.43   27.61
   3   8  -1  338.71   21.30
  -3  -8   1  329.51   21.05
  -3   8   1  359.00   22.09
   3   8   0  177.04   11.75
  -3  -8   0  185.51   11.80
  -3   8   0  203.33   12.76
   3   8   1  321.19   17.76
  -3  -8  -1  327.71   19.43
  -3   8  -1  340.12   21.92
   3   8   2  438.13   22.93
  -3  -8  -2  456.07   28.85
  -3   8  -2  469.09   27.69
   3   8   3  246.72   12.41
   3   8   3  231.57   15.72
  -3   8  -3  257.68   14.98
   3   8   4   79.28    5.17
   3   8   4   77.06    8.36
   3  -8   4   93.04    4.86
  -3   8  -4   64.88    5.95
   3   8   5  277.43   20.25
   3   8   5  277.74   15.24
   3  -8   5  318.40   17.48
  -3   8  -5  259.28   17.20
   3   8   6  180.03   16.34
   3   8   6  158.40    9.17
   3  -8   6  164.53   11.93
   3   8   7   48.16    7.42
   3   8   7   35.77    3.59
   3  -8   7   29.13    5.85
   3   8   8   37.85    6.45
   3  -8   8   40.08    5.82
   3   8   9   84.38   11.21
   3  -8   9   82.45   11.90
   3   9  -9   26.62    7.38
  -3  -9   9   29.34    8.29
  -3   9   9   59.04    9.65
   3   9  -8   88.79   12.89
  -3  -9   8  104.32   13.72
  -3   9   8  138.21   15.89
   3   9  -7   10.05    4.58
  -3  -9   7   12.06    4.55
  -3   9   7    7.41    5.60
   3   9  -6   21.55    5.48
  -3  -9   6   23.75    5.29
  -3   9   6   25.69    5.99
   3   9  -5   96.13   11.54
  -3  -9   5  115.80   11.26
  -3   9   5  114.55   11.95
   3   9  -4   40.69    6.16
  -3  -9   4   30.41    5.68
  -3   9   4   51.85    6.62
   3   9  -3    0.06    2.71
  -3  -9   3   -0.88    2.74
  -3   9   3    3.42    2.53
   3   9  -2   50.56    5.75
  -3  -9   2   50.12    7.18
  -3   9   2   48.52    5.79
   3   9  -1   48.85    5.93
  -3  -9   1   58.01    5.98
  -3   9   1   66.64    6.24
   3   9   0   10.49    2.85
  -3  -9   0    7.54    2.85
  -3   9   0   12.52    2.84
  -3  -9  -1    2.98    2.22
  -3   9  -1    0.73    2.17
   3   9   2    2.57    2.04
  -3  -9  -2    1.46    2.55
  -3   9  -2    5.49    2.72
   3   9   3    4.41    3.08
   3   9   3   13.87    2.40
  -3   9  -3    4.70    3.20
   3   9   4    7.09    4.13
   3   9   4   18.59    2.75
  -3   9  -4   15.09    3.22
   3   9   5   22.49    4.15
   3   9   5   17.26    3.45
   3  -9   5   15.36    2.36
  -3   9  -5   17.14    2.99
   3   9   6    9.49    3.99
   3   9   6   12.82    2.58
   3  -9   6   10.45    3.04
   3   9   7   29.85    5.85
   3   9   7   29.79    4.62
   3  -9   7   32.06    5.11
   3   9   8    8.09    5.48
   3  -9   8   17.69    4.49
   3   9   9   13.27    5.24
   3  10  -8   91.18   15.07
  -3 -10   8  134.78   15.83
  -3  10   8  144.19   18.46
   3  10  -7   63.91   10.18
  -3 -10   7   58.94    9.43
  -3  10   7   68.79   10.33
   3  10  -6   75.20   10.61
  -3 -10   6  104.72   11.64
  -3  10   6   90.94   11.80
   3  10  -5  161.49   16.52
  -3 -10   5  168.18   15.81
  -3  10   5  184.34   17.10
   3  10  -4   95.43   10.05
  -3 -10   4   77.64    9.29
  -3  10   4   87.68    9.24
   3  10  -3   50.56    6.71
  -3 -10   3   53.95    6.94
  -3  10   3   58.58    6.94
   3  10  -2  104.70    9.80
  -3 -10   2  101.83    9.69
  -3  10   2   98.98   11.20
   3  10  -1  150.47   12.12
  -3 -10   1  154.99   14.36
  -3  10   1  175.45   12.99
   3  10   0   32.63    5.83
  -3 -10   0   41.46    4.75
  -3  10   0   42.08    4.82
   3  10   1   43.35    4.77
  -3 -10  -1   41.27    6.02
  -3  10  -1   37.62    4.83
   3  10   2  180.92   11.90
  -3 -10  -2  191.42   14.15
  -3  10  -2  182.37   14.04
   3  10   3   50.15    5.08
   3  10   3   44.42    5.85
  -3  10  -3   55.94    5.02
   3  10   4   30.92    4.85
   3  10   4   41.78    4.12
  -3  10  -4   32.28    5.28
   3  10   5   94.38    9.92
   3  10   5  108.64    8.96
   3  10   6  125.05   12.43
   3  10   6  130.33    9.70
   3  10   7   33.63    6.20
   3  10   7   36.69    4.64
   3  10   8   54.48    7.84
   3  11  -7   46.03    9.75
  -3 -11   7   69.44   10.93
  -3  11   7   71.08   10.84
   3  11  -6   47.74    8.06
  -3 -11   6   29.78    7.91
  -3  11   6   46.31    7.97
   3  11  -5   48.71    8.68
  -3 -11   5   53.95    8.45
  -3  11   5   72.23    9.23
   3  11  -4   14.77    6.20
  -3 -11   4   32.42    5.80
  -3  11   4   39.70    5.84
   3  11  -3   40.59    6.67
  -3 -11   3   46.27    6.79
  -3  11   3   47.47    6.52
   3  11  -2   39.33    5.70
  -3 -11   2   30.72    5.45
  -3  11   2   35.38    5.59
   3  11  -1    4.82    2.87
  -3 -11   1    3.92    3.10
  -3  11   1   -1.93    2.53
   3  11   0    7.97    3.34
  -3 -11   0    9.35    3.12
  -3  11   0   10.68    3.19
   3  11   1   -0.19    2.37
  -3 -11  -1   -0.21    2.32
  -3  11  -1    0.99    2.34
   3  11   2    3.92    2.71
  -3  11  -2   10.45    2.84
  -3 -11  -2    2.85    2.12
   3  11   3   20.64    4.12
   3  11   3   17.57    3.62
  -3  11  -3   22.52    4.64
   3  11   4   12.66    3.20
   3  11   4   12.17    3.57
  -3  11  -4   10.88    3.55
   3  11   5    3.79    3.81
   3  11   5    4.55    2.64
   3  11   6   50.36    7.79
   3  11   6   36.53    5.20
   3  11   7   18.47    5.12
   3  12  -6   15.47    6.89
  -3 -12   6   30.94    6.95
  -3  12   6   31.06    7.19
   3  12  -5   68.98   11.45
  -3 -12   5   83.89   11.54
  -3  12   5   97.73   11.76
   3  12  -4  147.12   16.19
  -3 -12   4  137.80   15.12
  -3  12   4  159.68   14.59
   3  12  -3  117.21   12.70
  -3 -12   3  119.93   12.58
  -3  12   3  112.74   12.02
   3  12  -2  169.79   15.69
  -3 -12   2  170.66   15.44
  -3  12   2  184.01   15.87
   3  12  -1  199.23   17.84
  -3 -12   1  218.77   16.75
  -3  12   1  224.26   19.70
   3  12   0  182.37   15.33
  -3 -12   0  207.26   16.97
  -3  12   0  186.30   15.29
   3  12   1  161.20   13.21
  -3 -12  -1  150.06   14.90
  -3  12  -1  187.71   14.53
   3  12   2  217.18   15.79
   3  12   2  174.73   15.69
  -3  12  -2  208.95   17.14
   3  12   3  171.68   13.19
   3  12   3  155.69   14.27
  -3  12  -3  196.18   19.37
   3  12   4   79.55    9.02
   3  12   4  103.29    9.25
  -3  12  -4  109.83   13.59
   3  12   5  111.02   12.12
   3  12   5  138.44   10.94
   3  12   6   71.93    9.43
   3  12   6   75.41    7.97
   3  13  -5   19.29    6.46
  -3 -13   5   20.42    6.26
  -3  13   5   20.35    6.48
   3  13  -4   28.22    6.92
  -3 -13   4    9.89    5.59
  -3  13   4   14.46    5.04
   3  13  -3   15.28    4.70
  -3 -13   3    9.09    4.48
  -3  13   3    8.41    4.41
   3  13  -2   17.98    5.00
  -3 -13   2   19.29    4.46
  -3  13   2   16.51    4.97
   3  13  -1    8.58    3.39
  -3 -13   1    2.26    3.01
  -3  13   1   -1.95    3.32
   3  13   0    9.13    3.69
  -3 -13   0    3.01    3.96
  -3  13   0    7.23    3.73
   3  13   1   16.84    4.31
  -3 -13  -1   16.83    4.39
  -3  13  -1   15.89    4.98
   3  13   2    4.07    3.25
   3  13   2    3.66    3.16
  -3  13  -2    5.85    4.83
   3  13   3   17.38    4.02
   3  13   3    7.27    3.91
  -3  13  -3   12.21    5.04
   3  13   4    8.74    3.65
   3  13   4    3.49    4.31
   3  13   5    2.95    3.39
   3  13   5    5.41    3.92
  -3 -14   3   27.85    6.60
   3  14  -2   30.29    6.49
  -3 -14   2   21.62    7.07
  -3  14   2   35.45    6.71
   3  14  -1   62.27    9.03
  -3 -14   1   61.36    9.18
  -3  14   1   66.21   10.74
   3  14   0   51.18    7.53
  -3 -14   0   43.17    6.66
  -3  14   0   60.69   10.17
   3  14   1   34.79    6.14
  -3 -14  -1   26.40    6.02
  -3  14  -1   37.96    8.58
   3  14   2   50.45    6.87
   3  14   2   33.02    6.56
  -3  14  -2   43.73    8.38
  -4   0  11   23.22    6.58
  -4   0  11   11.40    6.71
  -4   0  10  107.61   13.17
  -4   0  10   65.43   12.07
  -4   0   9   33.72    7.23
  -4   0   9   45.53    8.11
  -4   0   8   99.97   11.67
  -4   0   8   93.05    9.83
  -4   0   7  215.37   16.37
  -4   0   7  260.73   21.98
  -4   0   6  475.30   34.16
  -4   0   6  370.75   24.02
  -4   0   5  169.55   10.20
  -4   0   5  202.17   15.09
  -4   0   4  474.91   25.79
  -4   0   4  470.73   33.32
  -4   0   3 1144.60   63.46
  -4   0   3 1203.26   83.12
  -4   0   2  490.45   30.51
  -4   0   2  506.69   25.84
  -4   0   1  756.23   41.94
  -4   0   1  689.83   34.20
  -4   0   0 1545.02   83.96
  -4   0   0 1614.11   97.77
   4   0   1 1169.89   60.87
  -4   0  -1 1153.60   60.41
   4   0   2  327.40   13.85
   4   0   2  364.78   19.81
   4   0   3  821.03   30.95
   4   0   3  889.20   50.48
   4   0   4 1243.45   82.09
   4   0   5  212.44   16.47
   4   0   6  275.37   18.95
   4   0   7  522.31   39.67
   4   0   8  220.15   20.43
   4   0   9   25.74    6.44
   4   0  10  126.50   17.14
   4   0  11  119.97   16.64
  -4  -1  11   31.65    8.44
  -4  -1  11   34.43    8.45
  -4   1  11   39.37    8.50
  -4   1  11   35.11    8.46
  -4  -1  10  174.64   19.44
  -4   1  10  193.79   19.93
  -4  -1  10  142.85   18.65
  -4   1  10  133.52   18.58
  -4  -1   9   35.15    7.21
  -4  -1   9   27.71    8.24
  -4   1   9   30.98    7.15
  -4   1   9   34.19    8.10
  -4   1   8    8.51    4.07
  -4  -1   8    8.83    3.57
  -4   1   8    1.70    3.42
  -4  -1   8    4.53    4.15
  -4  -1   7  223.12   18.75
  -4  -1   7  168.68   13.99
  -4   1   7  212.95   19.42
  -4   1   7  172.93   12.53
  -4  -1   6  159.19   14.14
  -4  -1   6  146.98   10.57
  -4   1   6  133.11    9.88
  -4   1   6  158.63   14.90
  -4  -1   5   10.45    3.77
  -4  -1   5   10.64    2.56
  -4   1   5   10.48    3.79
  -4   1   5   11.22    2.65
  -4   1   4   88.76    5.66
  -4  -1   4   87.77    8.18
  -4   1   4   93.34    8.84
  -4  -1   4   90.72    6.50
  -4  -1   3  144.33    8.60
  -4  -1   3  173.74   11.81
  -4   1   3  150.75    7.67
  -4   1   3  147.55   11.11
  -4   1   2   56.11    5.29
  -4  -1   2   56.77    5.42
  -4   1   2   61.90    4.55
  -4  -1   2   56.67    6.27
  -4  -1   1    7.03    1.83
  -4  -1   1    3.20    2.20
  -4   1   1    5.25    2.14
  -4   1   1    6.79    1.48
  -4  -1   0   70.77    4.61
  -4   1   0   70.36    3.93
  -4   1   0   83.97    5.91
  -4  -1   0   67.19    4.65
   4   1   1   45.94    3.46
   4  -1   1   67.86    4.18
  -4  -1  -1   58.58    4.23
  -4   1  -1   61.61    4.00
   4   1   2   33.44    3.70
   4   1   2   28.78    2.12
   4  -1   2   24.61    2.96
  -4   1  -2   33.36    2.25
   4   1   3   11.05    2.76
   4   1   3   10.69    1.21
   4  -1   3    8.63    2.25
   4  -1   3    9.02    0.92
   4  -1   4   16.60    2.94
   4   1   4   18.50    3.40
   4   1   5   -1.79    2.58
   4  -1   5    3.71    2.17
   4   1   6   32.02    5.04
   4  -1   6   34.66    4.97
   4   1   7   48.85    6.82
   4  -1   7   43.87    7.02
   4   1   8    9.36    4.49
   4  -1   8    5.76    4.18
   4   1   9   10.28    6.03
   4  -1   9   36.39    6.57
   4   1  10   40.31    8.51
   4  -1  10   32.76    8.43
   4   1  11   35.61    8.97
   4  -1  11   29.17    8.14
  -4  -2  11   96.65   14.54
  -4  -2  11   81.59   14.49
  -4   2  11  104.73   17.35
  -4  -2  10  154.38   17.53
  -4  -2  10  122.52   16.56
  -4   2  10  117.22   16.34
  -4   2  10  138.40   16.83
  -4  -2   9  287.04   27.11
  -4  -2   9  239.90   24.31
  -4   2   9  308.70   28.51
  -4   2   9  228.87   22.70
  -4   2   8  167.32   16.83
  -4  -2   8  166.88   16.11
  -4  -2   8  136.15   16.59
  -4   2   8  130.13   11.51
  -4  -2   7  406.27   29.94
  -4   2   7  538.37   44.72
  -4   2   7  374.16   26.99
  -4  -2   7  503.39   38.98
  -4  -2   6  460.90   34.02
  -4  -2   6  404.16   26.90
  -4   2   6  526.81   40.14
  -4   2   6  352.95   22.24
  -4  -2   5  328.01   23.45
  -4  -2   5  285.74   17.80
  -4   2   5  278.81   14.02
  -4   2   5  338.16   27.35
  -4   2   4  579.82   27.27
  -4  -2   4  525.71   34.58
  -4  -2   4  530.78   38.94
  -4   2   4  483.04   41.57
  -4  -2   3  625.71   35.78
  -4  -2   3  685.35   44.96
  -4   2   3  641.96   52.74
  -4   2   3  681.98   31.71
  -4   2   2  403.64   18.05
  -4  -2   2  502.63   28.19
  -4  -2   2  486.27   25.93
  -4   2   2  384.87   31.18
   4   2  -1  198.01   12.28
  -4  -2   1  225.03   11.58
  -4   2   1  198.83    7.96
  -4   2   1  196.48   14.58
   4   2   0  751.37   44.35
  -4  -2   0  840.34   41.46
  -4   2   0  680.96   44.87
   4   2   1  480.14   24.39
   4  -2   1  455.11   22.42
  -4  -2  -1  515.01   28.03
  -4   2  -1  558.38   29.30
   4   2   2  212.75    9.88
   4   2   2  218.59   12.92
   4  -2   2  222.09   10.76
  -4   2  -2  253.49   10.65
   4   2   3  536.40   19.46
   4  -2   3  496.58   26.80
   4   2   3  518.52   31.36
  -4   2  -3  529.34   18.69
   4   2   4  505.62   14.97
   4   2   4  522.33   33.02
   4  -2   4  473.34   28.91
   4   2   5  255.04   18.32
   4  -2   5  242.80   15.95
   4   2   6  167.95   13.82
   4  -2   6  169.70   13.06
   4   2   7  474.94   36.99
   4  -2   7  513.67   38.86
   4   2   8  211.07   19.06
   4  -2   8  181.77   17.69
   4   2   9   88.60   12.14
   4  -2   9   87.94   11.56
   4   2  10  171.54   21.64
   4  -2  10  175.21   19.10
   4   3 -10  110.94   15.22
  -4  -3  10   80.86   13.08
  -4   3  10   94.63   14.07
   4   3  -9   35.94    8.76
  -4  -3   9   28.39    7.34
  -4   3   9   44.62    9.84
  -4   3   9   43.51    7.24
  -4  -3   8   20.72    4.77
  -4  -3   8   23.17    5.43
  -4   3   8   45.22    9.07
  -4   3   8   24.17    4.91
  -4  -3   7   93.30    9.51
  -4   3   7  105.35   12.57
  -4   3   7   80.82    7.45
  -4  -3   7   94.32   10.97
  -4  -3   6   83.88    9.27
  -4  -3   6   77.13    8.81
  -4   3   6   91.50   11.46
  -4   3   6   68.60    5.48
  -4  -3   5   10.03    3.06
  -4   3   5   13.17    1.91
  -4   3   5   13.65    4.93
  -4  -3   5   10.12    2.93
   4   3  -4  185.18   16.34
  -4  -3   4  197.91   13.75
  -4   3   4  224.25    9.98
  -4   3   4  207.80   18.48
   4   3  -3   62.91    7.55
  -4  -3   3   74.55    6.13
  -4   3   3   72.31    8.08
  -4   3   3   85.86    3.95
   4   3  -2    9.24    2.95
  -4   3   2    7.67    1.37
  -4   3   2    4.83    2.81
  -4  -3   2    3.84    2.58
   4   3  -1   80.08    7.17
  -4  -3   1   79.97    5.69
  -4   3   1   81.03    3.20
  -4   3   1   62.23    7.57
   4   3   0   34.55    3.96
   4  -3   0   40.78    2.38
  -4  -3   0   40.35    3.84
  -4   3   0   39.58    4.09
   4   3   1   20.44    2.59
   4  -3   1   21.48    1.76
  -4  -3  -1   14.67    2.96
  -4   3  -1   20.78    3.08
   4   3   2   13.57    2.03
   4   3   2   10.68    2.91
   4  -3   2   15.00    1.85
  -4   3  -2   15.93    2.49
   4   3   3   64.33    3.44
   4   3   3   78.42    6.54
   4  -3   3   64.26    4.94
  -4   3  -3   74.33    3.84
   4   3   4   69.72    2.92
   4   3   4   69.67    7.06
   4  -3   4   74.42    6.17
   4   3   5   55.65    6.28
   4  -3   5   52.86    6.45
   4   3   6   21.68    4.78
   4  -3   6   22.01    4.18
   4   3   7   26.22    5.01
   4  -3   7   17.77    4.89
   4   3   8   45.42    7.76
   4  -3   8   47.38    7.52
   4   3   9   19.80    6.35
   4  -3   9   20.04    5.48
   4   3  10   35.09    8.88
   4  -3  10   50.82    8.22
   4   4 -10   53.23   11.90
  -4  -4  10   61.77   10.68
  -4   4  10   77.24   13.75
   4   4  -9  108.15   16.12
  -4  -4   9  107.74   13.83
  -4   4   9  132.66   17.55
   4   4  -8   82.81   11.25
  -4  -4   8   63.74    9.05
  -4   4   8   90.08   12.85
  -4   4   8   56.08    7.12
   4   4  -7   82.22   13.10
  -4  -4   7  113.36   10.72
  -4   4   7  128.29   15.15
  -4   4   7  101.20    7.15
   4   4  -6  347.52   33.72
  -4  -4   6  393.45   28.05
  -4   4   6  404.72   37.10
  -4   4   6  403.61   20.18
   4   4  -5  254.94   22.62
  -4  -4   5  248.85   17.78
  -4   4   5  266.77   12.61
  -4   4   5  292.36   24.53
   4   4  -4  259.62   24.10
  -4  -4   4  312.02   20.42
  -4   4   4  313.55   13.59
  -4   4   4  307.06   26.04
   4   4  -3  734.32   58.35
  -4  -4   3  732.99   45.17
  -4   4   3  749.86   31.81
  -4   4   3  706.58   60.80
   4   4  -2  665.63   46.78
  -4  -4   2  675.97   41.47
  -4   4   2  644.59   22.03
  -4   4   2  637.74   51.24
   4   4  -1  688.05   43.79
   4  -4  -1  638.72   21.47
  -4  -4   1  676.34   39.09
  -4   4   1  580.22   46.22
   4   4   0  776.66   44.19
   4  -4   0  699.72   27.59
  -4   4   0  591.70   46.28
  -4  -4   0  789.43   42.33
   4   4   1  902.88   47.10
   4  -4   1  851.17   37.37
  -4  -4  -1  980.90   54.66
  -4   4  -1  799.86   58.53
   4   4   2  593.13   29.09
   4   4   2  597.79   34.47
   4  -4   2  531.61   25.16
  -4   4  -2  594.14   33.55
   4   4   3  546.52   24.20
   4   4   3  596.61   37.75
   4  -4   3  560.89   27.85
  -4   4  -3  541.57   27.20
   4   4   4  734.24   51.06
   4  -4   4  714.92   40.72
   4   4   4  673.78   26.54
   4   4   5  317.15   12.00
   4   4   5  344.50   24.26
   4  -4   5  347.61   22.63
   4   4   6  366.91   29.15
   4  -4   6  371.33   27.21
   4   4   7  247.44   21.25
   4  -4   7  240.86   19.76
   4   4   8  145.84   14.59
   4  -4   8  130.32   13.35
   4   4   9   97.16   12.83
   4  -4   9   90.11   11.28
   4   4  10   83.25   12.73
   4  -4  10   73.94   10.99
   4   5 -10   46.42    9.64
  -4  -5  10   45.87    9.88
  -4   5  10   58.20   11.89
   4   5  -9   29.20    8.28
  -4  -5   9   49.04    8.02
  -4   5   9   50.32   11.10
   4   5  -8   55.01   10.31
  -4  -5   8   54.91    8.73
  -4   5   8   68.92   11.70
   4   5  -7   50.08    9.12
  -4   5   7   69.36   10.10
  -4  -5   7   53.20    7.71
   4   5  -6   72.71   11.14
  -4  -5   6   88.15    8.86
  -4   5   6   84.99   11.59
   4   5  -5   59.20    8.78
  -4  -5   5   68.93    8.03
  -4   5   5   82.06   10.43
   4   5  -4   51.14    8.26
  -4  -5   4   84.46    7.32
  -4   5   4   74.10    9.86
   4   5  -3   28.24    5.23
  -4  -5   3   28.73    4.50
  -4   5   3   27.51    5.03
   4   5  -2  104.27    9.41
  -4  -5   2  114.34    8.98
  -4   5   2  101.93   10.03
   4   5  -1   59.49    5.62
  -4  -5   1   50.74    5.56
  -4   5   1   54.27    6.06
   4   5   0   30.40    3.67
   4  -5   0   28.91    1.39
  -4  -5   0   27.70    3.73
  -4   5   0   30.71    3.88
   4   5   1  120.03    8.95
   4  -5   1  123.40    5.00
  -4  -5  -1  133.76    8.80
  -4   5  -1  117.53    9.43
   4   5   2   20.71    2.55
   4  -5   2   23.54    2.34
  -4  -5  -2   21.03    3.54
   4   5   3   75.76    4.93
   4   5   3   83.80    7.90
   4  -5   3   79.27    4.97
  -4   5  -3   93.19    5.71
   4   5   4   19.18    2.16
   4   5   4   19.51    3.93
   4  -5   4   21.25    3.02
   4   5   5   20.60    4.62
   4  -5   5   31.12    3.73
   4   5   5   22.16    2.26
   4   5   6   75.90    8.25
   4  -5   6   53.96    6.31
   4   5   7   48.76    7.42
   4  -5   7   49.52    6.11
   4   5   8   49.70    8.55
   4  -5   8   68.82    7.87
   4   5   9   25.97    6.99
   4  -5   9   28.88    7.52
   4   5  10   35.47    8.38
   4  -5  10   22.54    6.86
   4   6  -9  219.86   30.48
  -4  -6   9  230.60   25.89
  -4   6   9  267.86   32.79
   4   6  -8   81.14   12.28
  -4  -6   8  107.23   12.01
  -4   6   8   78.83   13.81
   4   6  -7  142.85   17.42
  -4  -6   7  170.79   16.23
  -4   6   7  187.04   21.23
   4   6  -6  328.39   31.57
  -4  -6   6  345.54   30.47
  -4   6   6  379.51   37.98
   4   6  -5  273.86   26.47
  -4  -6   5  319.30   23.62
  -4   6   5  284.75   27.11
   4   6  -4  204.21   19.20
  -4  -6   4  238.07   16.89
  -4   6   4  202.02   19.85
   4   6  -3  326.07   25.96
  -4  -6   3  308.45   21.84
  -4   6   3  315.94   25.73
   4   6  -2  482.97   35.00
  -4  -6   2  497.72   33.73
  -4   6   2  480.69   37.67
   4   6  -1  212.13   15.08
  -4  -6   1  213.80   14.73
  -4   6   1  234.55   17.48
   4   6   0  232.38   15.41
  -4  -6   0  231.75   15.10
  -4   6   0  256.67   17.84
   4   6   1  365.11   21.88
  -4  -6  -1  373.90   22.59
  -4   6  -1  352.73   22.06
   4   6   2  331.11   16.07
   4  -6   2  275.00   12.52
  -4  -6  -2  350.49   20.45
  -4   6  -2  290.81   17.09
   4   6   3  240.22   18.84
   4  -6   3  230.79   12.18
   4   6   3  242.23   11.91
  -4   6  -3  280.97   14.83
   4   6   4  179.77    8.10
   4   6   4  162.32   13.88
   4  -6   4  181.05   11.26
   4   6   5  258.59   11.91
   4   6   5  268.77   21.40
   4  -6   5  274.00   17.51
   4   6   6  231.68   20.25
   4  -6   6  249.54   18.70
   4   6   7  157.05   15.74
   4  -6   7  159.81   15.29
   4   6   8  100.09   12.48
   4  -6   8  107.67   10.96
   4   6   9  183.59   20.60
   4  -6   9  175.88   18.26
   4   7  -9   39.93    9.29
  -4  -7   9   45.63    9.23
  -4   7   9   55.92   10.91
   4   7  -8   69.52   12.69
  -4  -7   8   97.17   12.54
  -4   7   8  117.24   16.19
   4   7  -7   27.30    7.35
  -4  -7   7   31.75    6.73
  -4   7   7   50.35    9.31
   4   7  -6   20.39    7.53
  -4  -7   6   50.40    6.95
  -4   7   6   34.48    7.49
   4   7  -5   48.77    8.69
  -4  -7   5   68.20    8.08
  -4   7   5   63.97    9.67
   4   7  -4  122.38   13.62
  -4  -7   4  139.06   11.78
  -4   7   4  134.60   14.61
   4   7  -3   12.36    4.60
  -4  -7   3   15.42    4.01
  -4   7   3   19.83    4.90
   4   7  -2   12.94    4.43
  -4  -7   2   24.41    4.25
  -4   7   2   23.59    4.50
   4   7  -1   96.93    8.93
  -4  -7   1   90.83    8.35
  -4   7   1  108.69    9.29
   4   7   0   15.91    3.56
  -4  -7   0   20.33    3.41
  -4   7   0   21.30    3.89
   4   7   1   10.55    2.59
  -4  -7  -1    7.91    2.84
  -4   7  -1    6.10    2.79
   4   7   2   16.47    2.55
  -4  -7  -2   14.01    3.33
  -4   7  -2    7.46    2.78
   4   7   3   24.73    2.96
   4   7   3   25.58    4.89
   4   7   4   46.08    3.55
   4   7   4   41.19    6.03
   4  -7   4   42.43    4.11
   4   7   5   29.85    2.85
   4   7   5   32.25    5.76
   4  -7   5   28.99    3.56
   4   7   6    4.31    3.31
   4  -7   6    1.33    2.37
   4   7   7   39.20    6.44
   4  -7   7   20.72    5.72
   4   7   8   46.06    7.50
   4  -7   8   31.68    6.32
   4   7   9   24.60    6.64
   4   8  -8   43.52    9.97
  -4  -8   8   62.99    9.52
  -4   8   8   66.66   12.37
   4   8  -7   41.34    9.02
  -4  -8   7   49.58    7.96
  -4   8   7   47.68    9.68
   4   8  -6  155.60   18.33
  -4  -8   6  165.77   17.47
  -4   8   6  173.76   20.08
   4   8  -5  199.42   20.90
  -4  -8   5  210.28   19.41
  -4   8   5  237.09   22.83
   4   8  -4  167.78   16.88
  -4  -8   4  163.18   14.66
  -4   8   4  170.96   17.76
   4   8  -3  267.68   22.61
  -4   8   3  265.64   22.79
  -4  -8   3  249.55   20.34
   4   8  -2  443.12   34.36
  -4  -8   2  414.52   31.93
  -4   8   2  434.14   35.20
   4   8  -1  498.21   36.16
  -4  -8   1  494.57   33.23
  -4   8   1  512.86   38.89
   4   8   0  296.41   21.18
  -4  -8   0  327.17   21.35
  -4   8   0  337.11   25.04
   4   8   1  417.26   26.21
  -4  -8  -1  425.52   28.10
  -4   8  -1  458.88   35.89
   4   8   2  514.45   31.48
  -4  -8  -2  533.02   36.53
  -4   8  -2  566.85   41.29
   4   8   3  309.70   17.73
   4   8   3  307.64   24.83
  -4   8  -3  336.34   21.53
   4   8   4  213.72   11.59
   4   8   4  202.68   17.19
   4   8   5  247.67   13.82
   4   8   5  244.36   21.43
   4   8   6  255.79   25.40
   4   8   7   84.86   11.16
   4   8   8   69.98   10.35
   4   9  -8   43.54   10.49
  -4  -9   8   73.75   10.56
  -4   9   8   83.65   14.72
   4   9  -7   34.23    7.54
  -4  -9   7   21.09    7.31
  -4   9   7   26.74    8.28
   4   9  -6   16.83    6.12
  -4  -9   6   16.76    6.14
  -4   9   6   32.13    7.08
   4   9  -5  112.42   15.04
  -4  -9   5  121.26   13.20
  -4   9   5  135.02   15.95
   4   9  -4   23.86    7.05
  -4  -9   4   42.54    6.69
  -4   9   4   40.08    7.34
   4   9  -3   15.23    4.34
  -4  -9   3    1.85    4.07
  -4   9   3    5.72    4.37
   4   9  -2   37.80    6.40
  -4  -9   2   39.32    5.88
  -4   9   2   35.68    7.89
   4   9  -1   38.43    5.93
  -4  -9   1   38.26    5.42
  -4   9   1   47.90    7.98
   4   9   0    0.70    3.00
  -4  -9   0    6.73    2.80
  -4   9   0    4.33    3.56
   4   9   1   11.24    3.53
  -4  -9  -1   12.53    3.77
  -4   9  -1   18.63    3.83
   4   9   2   13.82    3.17
  -4  -9  -2   16.37    3.84
  -4   9  -2    7.11    3.42
   4   9   3    0.75    2.40
   4   9   3   13.09    3.56
  -4   9  -3    4.79    3.16
   4   9   4   23.30    3.32
   4   9   4   19.67    4.78
   4   9   5    8.16    2.45
   4   9   5    9.99    5.19
   4   9   6    6.76    4.12
   4   9   7   22.73    6.23
   4   9   8   37.68    8.11
   4  10  -7   88.76   15.34
  -4 -10   7  102.37   14.91
  -4  10   7  124.91   16.99
   4  10  -6  101.50   15.39
  -4 -10   6  107.85   14.30
  -4  10   6  124.03   16.49
   4  10  -5  179.68   20.46
  -4 -10   5  167.99   18.94
  -4  10   5  168.79   19.61
   4  10  -4  155.54   17.50
  -4 -10   4  145.08   15.69
  -4  10   4  158.98   17.57
   4  10  -3  151.51   16.59
  -4 -10   3  143.60   15.54
  -4  10   3  167.63   16.43
   4  10  -2  145.62   14.71
  -4 -10   2  128.13   13.34
  -4  10   2  162.64   15.99
   4  10  -1  139.54   14.56
  -4  10   1  165.50   16.12
  -4 -10   1  143.53   12.48
   4  10   0  148.24   13.33
  -4 -10   0  160.68   12.79
  -4  10   0  150.89   14.11
   4  10   1  104.06    9.85
  -4 -10  -1  112.90   10.01
  -4  10  -1  115.77   11.49
   4  10   2  150.20   11.78
  -4  10  -2  164.32   14.57
   4  10   3  119.03   13.10
   4  10   3  130.03   11.58
  -4  10  -3  146.44   14.12
   4  10   4  114.19    8.45
   4  10   4   99.85   10.77
   4  10   5  111.36    8.72
   4  10   5  121.11   12.89
   4  10   6   90.01   11.11
   4  10   7   85.03   11.54
   4  11  -6   42.02    9.76
  -4 -11   6   47.32    8.76
  -4  11   6   43.17   10.90
   4  11  -5   18.30    7.71
  -4 -11   5   33.55    7.07
  -4  11   5   29.30    7.47
   4  11  -4   31.01    8.47
  -4 -11   4   48.79    8.21
  -4  11   4   50.05    9.32
   4  11  -3   18.79    6.05
  -4 -11   3   17.86    5.41
  -4  11   3   30.60    6.12
   4  11  -2   30.50    7.23
  -4  11   2   42.49    7.48
  -4 -11   2   36.83    6.60
   4  11  -1   16.16    5.23
  -4 -11   1   24.08    5.74
  -4  11   1   19.33    4.90
   4  11   0    4.04    3.46
  -4 -11   0    1.41    3.11
  -4  11   0    6.74    3.64
   4  11   1    9.10    3.55
  -4 -11  -1   10.45    3.70
  -4  11  -1    8.32    4.24
   4  11   2    2.14    3.08
   4  11   2    7.02    3.37
  -4  11  -2    3.07    3.77
   4  11   3   -1.43    2.51
   4  11   3    0.51    3.31
  -4  11  -3   -0.50    3.38
   4  11   4   11.41    3.22
   4  11   4    1.26    5.03
   4  11   5    1.70    3.74
   4  11   5    2.84    2.69
   4  11   6   14.45    6.24
   4  12  -5   72.01   11.86
  -4 -12   5   58.82   10.54
  -4  12   5   69.56   13.93
   4  12  -4  155.61   19.44
  -4 -12   4  139.07   18.69
  -4  12   4  180.99   19.48
   4  12  -3   97.04   14.18
  -4 -12   3  109.36   12.88
  -4  12   3  121.65   14.24
   4  12  -2  127.61   17.07
  -4 -12   2  112.37   12.51
  -4  12   2  123.66   18.07
   4  12  -1  220.23   21.56
  -4  12   1  223.12   23.35
  -4 -12   1  210.73   18.75
   4  12   0  215.14   20.41
  -4  12   0  220.24   20.44
  -4 -12   0  199.41   17.57
   4  12   1  124.94   14.73
  -4  12  -1  127.31   13.93
  -4 -12  -1  118.78   11.91
   4  12   2  154.64   14.11
   4  12   2  133.03   13.49
  -4  12  -2  187.72   17.33
   4  12   3  182.56   14.45
   4  12   3  137.81   16.60
   4  12   4   82.02    8.91
   4  12   4   92.15   10.46
   4  13  -2   13.86    5.86
  -4  13   2   12.42    5.09
  -4 -13   2   14.15    4.66
   4  13  -1   10.37    5.14
  -4  13   1    5.43    4.48
  -4 -13   1    9.95    4.08
   4  13   0   -3.13    3.75
  -4  13   0    0.29    3.86
  -4 -13   0    8.87    3.39
   4  13   1    6.12    3.67
  -4  13  -1    3.41    3.80
  -4 -13  -1    0.19    3.42
   4  13   2    5.29    3.47
   4  13   2   -2.92    3.84
  -5   0  10    8.01    5.90
  -5   0  10    6.33    5.83
  -5   0   9   27.64    7.24
  -5   0   9   12.61    7.37
  -5   0   8   20.45    6.27
  -5   0   8   14.68    4.76
  -5   0   7   34.69    5.79
  -5   0   7   52.61    8.10
  -5   0   6   43.14    5.89
  -5   0   6   49.50    7.73
  -5   0   5   27.32    4.17
  -5   0   5   25.54    5.76
  -5   0   4   90.28   10.31
  -5   0   4  107.49    9.20
  -5   0   3  212.84   16.62
  -5   0   3  206.16   13.66
  -5   0   2   89.95    6.49
  -5   0   2  111.04    8.77
  -5   0   1   72.52    6.48
  -5   0   1   68.02    5.24
  -5   0   0  399.43   22.34
  -5   0   0  439.00   24.96
   5   0   1  261.22   14.43
  -5   0  -1  243.32   14.05
   5   0   2   54.18    4.14
   5   0   2   63.43    5.09
   5   0   3  161.98    7.13
   5   0   3  231.04   14.24
   5   0   4  281.64   20.33
   5   0   5   45.63    6.12
   5   0   6   26.73    5.15
   5   0   7  193.50   19.11
   5   0   8   73.76   11.11
   5   0   9   17.78    6.67
  -5   1   9   59.26   10.49
  -5  -1   9   58.94   10.65
  -5  -1   9   42.27   10.10
  -5   1   9   60.20    8.64
  -5  -1   8   19.18    6.40
  -5  -1   8   26.00    5.70
  -5   1   8   24.87    6.50
  -5   1   8   14.45    5.64
  -5  -1   7  184.59   17.48
  -5  -1   7  143.17   14.08
  -5   1   7  137.77   14.32
  -5   1   7  202.85   18.44
  -5  -1   6  169.13   16.91
  -5  -1   6  176.47   17.72
  -5   1   6  160.21   14.51
  -5   1   6  189.10   18.16
  -5  -1   5   14.00    3.89
  -5  -1   5   24.81    5.18
  -5   1   5   25.32    5.26
  -5   1   5   20.61    4.12
  -5  -1   4   59.84    6.97
  -5  -1   4   44.64    5.64
  -5   1   4   45.23    6.87
  -5   1   4   53.43    6.06
  -5  -1   3  264.64   18.39
  -5  -1   3  223.48   15.58
  -5   1   3  232.06   17.67
  -5   1   3  207.38   15.43
  -5  -1   2   27.06    4.08
  -5   1   2   22.17    3.26
  -5   1   2   21.55    4.04
  -5  -1   2   12.71    4.04
  -5  -1   1    0.80    2.76
  -5  -1   1    4.45    1.96
  -5   1   1    3.24    2.73
  -5   1   1   -0.35    2.04
  -5  -1   0   54.07    4.72
  -5   1   0   52.24    4.66
  -5   1   0   57.27    4.11
   5   1   1   20.41    2.70
   5   1   1   27.08    3.38
   5  -1   1   22.09    3.59
  -5   1  -1   22.23    2.61
   5   1   2   16.59    3.06
   5   1   2    8.59    2.15
   5  -1   2   19.97    2.76
  -5   1  -2   13.58    1.72
   5   1   3   32.19    4.27
   5   1   3   23.17    2.33
   5  -1   3   23.77    1.91
   5  -1   3   18.11    3.72
   5  -1   4    7.85    3.68
   5   1   4    8.23    3.49
   5   1   5   14.32    4.40
   5  -1   5   15.03    3.85
   5   1   6   47.63    6.79
   5  -1   6   35.85    7.25
   5   1   7   28.92    6.09
   5  -1   7   27.17    5.79
   5  -1   8   11.56    5.31
   5   1   8   16.76    5.64
   5   1   9   27.40    9.30
   5  -1   9   25.79    7.58
  -5   2   9   65.21   11.74
  -5  -2   9   68.25   11.61
  -5  -2   9   60.17   11.06
  -5  -2   8   76.46   10.52
  -5  -2   8   47.47    8.98
  -5   2   8   58.12   12.07
  -5   2   8   54.73    6.78
  -5  -2   7   94.93   11.68
  -5  -2   7   74.02   11.11
  -5   2   7   72.30    7.36
  -5   2   7  115.70   12.69
  -5  -2   6  178.34   16.53
  -5   2   6  160.62   13.71
  -5   2   6  169.19   18.32
  -5  -2   6  158.26   15.08
  -5  -2   5   40.84    5.46
  -5  -2   5   40.61    6.91
  -5   2   5   32.33    4.75
  -5   2   5   41.84    7.01
  -5  -2   4   88.71    8.19
  -5   2   4   79.91    9.90
  -5   2   4   82.56    7.19
  -5  -2   4   99.80    9.82
  -5  -2   3  211.75   15.57
  -5  -2   3  178.21   13.46
  -5   2   3  182.75   10.23
  -5   2   3  143.52   14.67
  -5  -2   2   32.10    3.96
  -5  -2   2   43.92    4.69
  -5   2   2   42.14    5.38
  -5   2   2   38.21    3.72
   5   2  -1   21.18    4.15
  -5  -2   1   28.47    3.78
  -5   2   1   24.92    2.95
  -5   2   1   29.45    4.13
   5   2   0  123.31    9.14
   5  -2   0  133.70    6.90
  -5  -2   0  143.44    9.28
  -5   2   0  145.88    9.53
   5   2   1   81.78    5.94
   5  -2   1   98.15    5.52
  -5  -2  -1  111.16    7.75
  -5   2  -1  107.00    7.12
   5   2   2    2.89    2.29
   5   2   2    3.32    2.78
   5  -2   2    6.14    2.26
  -5   2  -2    9.64    1.81
   5   2   3   66.88    4.05
   5   2   3   73.96    8.00
   5  -2   3   72.40    6.15
   5   2   4  202.75   16.31
   5  -2   4  167.84   12.25
   5   2   5   22.10    4.60
   5  -2   5   12.92    4.34
   5   2   6   27.72    6.00
   5  -2   6   26.15    6.16
   5   2   7  113.75   13.24
   5  -2   7  120.13   12.77
   5  -2   8   66.90   10.79
   5   2   8   81.96   11.39
   5   2   9   20.88    6.80
   5  -2   9   13.14    6.38
   5   3  -9   65.58   12.69
  -5  -3   9   53.96   10.76
  -5   3   9   58.60   11.72
   5   3  -8   67.83   11.25
  -5  -3   8   42.40    9.44
  -5   3   8   64.48   10.65
   5   3  -7  154.58   17.60
  -5  -3   7  135.81   13.90
  -5   3   7  128.02   10.14
  -5   3   7  159.59   17.36
   5   3  -6   87.01   12.35
  -5  -3   6   96.49   10.55
  -5   3   6   83.47    8.31
  -5   3   6  113.93   14.40
   5   3  -5   54.41    8.33
  -5  -3   5   43.36    6.56
  -5   3   5   66.24    9.37
   5   3  -4  110.36   11.44
  -5  -3   4   86.95    9.59
  -5   3   4  101.57   15.07
  -5   3   4  101.74    6.20
   5   3  -3  125.47   12.41
  -5  -3   3  117.75   10.66
  -5   3   3  120.82    7.06
  -5   3   3  129.90   13.26
   5   3  -2   14.98    3.74
  -5  -3   2    9.43    3.17
  -5   3   2   11.28    2.01
  -5   3   2   11.29    3.92
   5   3  -1   70.26    7.00
  -5  -3   1   70.22    6.24
  -5   3   1   60.89    7.14
   5   3   0   51.55    5.13
   5  -3   0   57.35    3.88
  -5  -3   0   58.57    5.47
  -5   3   0   48.97    6.89
   5   3   1   39.09    5.24
   5  -3   1   35.60    4.07
  -5  -3  -1   40.03    4.76
  -5   3  -1   42.56    4.42
   5   3   2    3.07    2.23
   5   3   2    5.59    2.77
   5  -3   2    7.76    2.07
  -5   3  -2    6.85    1.71
   5   3   3    5.56    1.90
   5   3   3   13.25    3.09
   5  -3   3    3.69    2.49
   5   3   4   24.39    4.65
   5  -3   4    9.97    2.70
   5   3   5   83.21    9.45
   5  -3   5   73.29    7.36
   5   3   6   11.23    5.18
   5  -3   6   15.98    4.00
   5   3   7   28.13    6.07
   5  -3   7   16.29    5.11
   5   3   8   68.24   10.98
   5  -3   8   76.41   10.89
   5   3   9    9.44    6.24
   5  -3   9   17.56    5.81
   5   4  -9   71.17   11.87
  -5  -4   9   43.58   10.64
  -5   4   9   48.18   10.89
   5   4  -8   10.06    5.84
  -5  -4   8    6.30    5.02
  -5   4   8   13.75    8.00
   5   4  -7   62.49   10.98
  -5  -4   7   63.53   10.27
  -5   4   7   71.06   12.19
   5   4  -6   70.34   10.64
  -5  -4   6   66.69   11.45
  -5   4   6   83.31   13.30
   5   4  -5   64.96   10.04
  -5  -4   5   62.78    8.08
  -5   4   5   82.38   11.84
   5   4  -4   99.26   12.18
  -5  -4   4  103.10   10.37
  -5   4   4  101.39   13.99
   5   4  -3  160.77   15.23
  -5  -4   3  154.24   15.41
  -5   4   3  156.64   17.16
   5   4  -2  176.81   14.70
  -5  -4   2  179.28   13.42
  -5   4   2  175.19   18.28
   5   4  -1   79.10    8.78
   5  -4  -1   98.87    4.62
  -5  -4   1  106.36    8.21
  -5   4   1   97.07   10.27
   5   4   0  273.40   21.22
   5  -4   0  304.22   14.21
  -5  -4   0  282.07   18.47
  -5   4   0  257.63   24.47
   5   4   1  211.52   14.49
   5  -4   1  203.31   10.12
  -5  -4  -1  222.31   14.99
  -5   4  -1  219.65   15.71
   5   4   2  170.37    9.88
   5   4   2  176.47   14.41
   5  -4   2  141.85    8.52
  -5   4  -2  166.34    9.52
   5   4   3  183.12   10.18
   5   4   3  220.02   15.24
   5  -4   3  173.37   10.00
   5   4   4  156.00   13.33
   5  -4   4  144.68    9.71
   5   4   4  135.71    6.86
   5   4   5  114.71   12.72
   5  -4   5  108.56    9.40
   5   4   6   50.60    9.33
   5  -4   6   67.30    7.30
   5  -4   7  108.43   14.54
   5   4   7  122.29   14.30
   5   4   8   27.13    6.67
   5  -4   8   22.38    5.70
   5   4   9   44.07    8.71
   5  -4   9   20.37    8.54
   5   5  -9   47.72   11.30
  -5  -5   9   47.36   10.52
  -5   5   9   61.96   12.78
   5   5  -8   65.82   12.62
  -5  -5   8   59.54   10.60
  -5   5   8   66.96   13.18
   5   5  -7   51.21   10.33
  -5  -5   7   49.57    9.79
  -5   5   7   71.12   12.09
   5   5  -6   29.23    8.72
  -5  -5   6   54.69    7.90
  -5   5   6   53.03   10.60
   5   5  -5   48.88    8.70
  -5   5   5   68.71   10.40
  -5  -5   5   55.43    7.79
   5   5  -4   68.07    9.85
  -5  -5   4   75.97    8.76
  -5   5   4   68.61   10.97
   5   5  -3   32.73    6.41
  -5  -5   3   34.72    6.04
  -5   5   3   35.00    6.92
   5   5  -2   48.20    6.50
  -5  -5   2   44.71    5.76
  -5   5   2   31.95    6.97
   5   5  -1   40.95    5.79
  -5  -5   1   32.19    4.74
  -5   5   1   32.54    5.69
   5   5   0   11.27    3.83
  -5  -5   0   10.56    3.25
  -5   5   0   16.22    3.59
   5   5   1   19.14    4.62
  -5  -5  -1   27.11    4.15
  -5   5  -1   23.39    3.79
   5   5   2    2.73    2.04
   5   5   2    2.92    2.90
   5  -5   2    5.12    1.53
   5   5   3   51.44    3.93
   5   5   3   51.17    6.80
   5  -5   3   48.63    4.27
   5   5   4   18.06    2.49
   5   5   4   14.75    4.53
   5  -5   4   17.49    3.25
   5   5   5   12.61    5.05
   5  -5   5   14.08    3.21
   5   5   6   21.85    6.32
   5  -5   6   20.67    5.47
   5   5   7   15.40    6.41
   5  -5   7   25.20    5.80
   5   5   8   37.65    9.36
   5  -5   8   31.83    6.22
   5   6  -8   27.18   10.77
  -5  -6   8   62.80   10.68
  -5   6   8   62.93   14.90
   5   6  -7   54.23   10.53
  -5  -6   7   46.73    9.94
  -5   6   7   57.46   12.23
   5   6  -6  113.95   16.96
  -5  -6   6  146.01   15.22
  -5   6   6  131.10   18.04
   5   6  -5   71.89   12.46
  -5  -6   5   98.04   10.94
  -5   6   5  102.69   14.21
   5   6  -4   61.62   10.47
  -5  -6   4   76.86    8.73
  -5   6   4   69.77   12.00
   5   6  -3   78.79   12.63
  -5  -6   3   96.18    9.90
  -5   6   3   82.26   15.17
   5   6  -2  125.23   13.81
  -5  -6   2  110.85   10.89
  -5   6   2  117.47   14.22
   5   6  -1   90.51   10.01
  -5  -6   1   95.77    8.66
  -5   6   1   83.71   11.10
   5   6   0   42.36    5.40
  -5  -6   0   25.38    4.75
  -5   6   0   27.20    6.78
   5   6   1   78.33    7.70
  -5  -6  -1   80.72    7.91
  -5   6  -1   78.18    8.43
   5   6   2   54.10    7.01
   5   6   2   88.42    8.14
  -5   6  -2   84.56    6.93
   5   6   3   54.83    5.33
   5   6   3   53.85    7.08
   5   6   4   43.91    3.56
   5   6   4   43.55    6.47
   5   6   5   63.54   10.23
   5  -6   5   72.50    6.29
   5   6   6   89.37   12.06
   5  -6   6   87.24    9.71
   5   6   7   26.86    7.21
   5   6   8   50.86    9.67
   5   7  -8   43.60   14.33
  -5  -7   8   86.45   13.82
  -5   7   8   98.60   14.95
   5   7  -7   65.44   13.43
  -5  -7   7   80.38   11.74
  -5   7   7   66.38   13.59
   5   7  -6   19.45    7.49
  -5  -7   6   20.66    6.24
  -5   7   6   27.60    9.31
   5   7  -5   73.68   12.51
  -5  -7   5   73.01   10.28
  -5   7   5   69.98   13.30
   5   7  -4   99.77   14.21
  -5  -7   4   90.36   11.06
  -5   7   4  100.04   15.10
   5   7  -3   44.69    9.65
  -5  -7   3   44.53    7.43
  -5   7   3   65.24   10.03
   5   7  -2    9.40    6.12
  -5  -7   2   14.99    3.99
  -5   7   2    9.66    5.09
   5   7  -1   64.63    8.83
  -5  -7   1   63.09    7.32
  -5   7   1   66.87    8.87
   5   7   0   31.26    5.32
  -5  -7   0   23.21    4.42
  -5   7   0   20.98    6.37
   5   7   1   18.98    3.95
  -5  -7  -1   12.31    3.90
  -5   7  -1   19.06    5.00
   5   7   2    4.22    3.02
   5   7   2   12.84    3.61
  -5   7  -2   15.34    3.28
   5   7   3    4.73    2.30
   5   7   3    6.49    3.61
   5   7   4   18.59    3.23
   5   7   4   16.03    4.81
   5   7   5   36.32    7.70
   5   7   6   -1.67    4.00
   5   7   7   11.57    7.12
   5   7   8   45.64   11.10
   5   8  -7   28.07    8.44
  -5  -8   7   23.87    7.21
  -5   8   7   21.51    8.59
   5   8  -6   47.20   11.39
  -5  -8   6   43.74    9.23
  -5   8   6   60.39   12.11
   5   8  -5   93.23   14.95
  -5  -8   5   91.31   12.50
  -5   8   5   88.12   16.18
   5   8  -4   68.33   11.70
  -5  -8   4   65.08   10.25
  -5   8   4   74.59   11.85
   5   8  -3   86.40   12.69
  -5  -8   3   86.05   10.63
  -5   8   3   94.56   14.96
   5   8  -2  189.73   21.66
  -5  -8   2  190.64   19.59
  -5   8   2  205.66   22.50
   5   8  -1  163.23   17.38
  -5  -8   1  152.02   13.86
  -5   8   1  168.82   17.19
   5   8   0  150.73   14.17
  -5  -8   0  144.35   12.87
  -5   8   0  140.18   15.21
   5   8   1  146.51   12.68
  -5  -8  -1  150.94   12.77
  -5   8  -1  121.03   13.42
   5   8   2  263.55   18.47
   5   8   2  258.51   20.78
  -5   8  -2  282.67   21.70
   5   8   3  131.37    9.88
   5   8   3  140.35   13.23
   5   8   4   65.17    5.59
   5   8   4   64.24    8.57
   5   8   5  152.35   17.51
   5   8   6   96.89   12.84
   5   8   7   45.78    9.56
   5   9  -6   17.01    6.61
  -5  -9   6    8.44    5.97
  -5   9   6   13.17    7.94
   5   9  -5   52.99   11.43
  -5  -9   5   49.33    9.63
  -5   9   5   77.07   11.87
   5   9  -4   66.59   13.15
  -5  -9   4   45.35    8.74
  -5   9   4   42.83   10.68
   5   9  -3    0.53    4.71
  -5  -9   3   -5.27    3.59
  -5   9   3    0.53    4.64
   5   9  -2   28.19    6.64
  -5  -9   2   18.87    5.38
  -5   9   2   30.12    7.17
   5   9  -1   41.12    7.61
  -5  -9   1   38.64    5.95
  -5   9   1   40.61   10.17
   5   9   0   -0.30    3.90
  -5  -9   0   10.24    3.35
  -5   9   0    2.69    5.31
   5   9   1    0.11    2.91
  -5  -9  -1   -2.22    2.95
  -5   9  -1    4.03    3.24
   5   9   2   11.59    3.57
   5   9   2   15.53    4.04
  -5   9  -2    4.91    4.20
   5   9   3    4.78    2.64
   5   9   3    2.05    3.67
   5   9   4    9.99    3.81
   5   9   4   18.08    4.77
   5   9   5   -0.50    3.91
   5   9   6    3.17    4.44
   5  10  -5   61.26   13.71
  -5 -10   5   68.82   14.29
  -5  10   5   73.53   13.72
   5  10  -4   90.44   16.05
  -5 -10   4   88.86   13.31
  -5  10   4  108.12   16.33
   5  10  -3   38.83   10.33
  -5 -10   3   59.92    8.25
  -5  10   3   35.71   10.53
   5  10  -2   71.71   11.45
  -5 -10   2   60.86    8.83
  -5  10   2   76.27   12.21
   5  10  -1  118.00   15.60
  -5 -10   1  119.08   12.49
  -5  10   1  140.27   17.95
   5  10   0   50.58    7.96
  -5 -10   0   46.18    7.05
  -5  10   0   46.32    8.88
   5  10   1   52.39    7.78
  -5 -10  -1   48.03    7.47
  -5  10  -1   50.97    8.58
   5  10   2   99.79   11.66
   5  10   2   83.29   10.16
   5  10   3   55.13    6.80
   5  10   3   60.21    8.61
   5  10   4   30.30    6.49
   5  10   5   40.20    8.85
   5  11  -4   29.24   10.57
  -5 -11   4   21.35    7.14
  -5  11   4   34.15    9.12
   5  11  -3   60.94   12.05
  -5 -11   3   29.16    8.03
  -5  11   3   53.85   11.02
   5  11  -2   17.78    6.21
  -5 -11   2    5.61    5.56
  -5  11   2   10.49    6.53
   5  11  -1    5.14    5.69
  -5 -11   1   15.54    4.66
  -5  11   1   15.79    6.32
   5  11   0   11.05    5.02
  -5 -11   0    7.63    4.11
  -5  11   0    4.37    5.63
   5  11   1    0.60    3.71
  -5 -11  -1    2.57    3.44
  -5  11  -1    1.74    4.50
   5  11   2    1.73    5.21
   5  11   2   18.40    5.24
   5  11   3    3.97    4.41
   5  11   3   10.69    4.34
   5  12   0  133.58   16.21
  -5 -12   0  116.40   13.78
  -5  12   0  137.76   23.08
  -6   0   8   78.97   13.36
  -6   0   7  117.19   14.54
  -6   0   7   87.64   10.98
  -6   0   6  231.86   23.55
  -6   0   6  184.05   20.81
  -6   0   5  132.28   14.30
  -6   0   5  109.42   11.82
  -6   0   4  287.14   24.49
  -6   0   4  238.24   18.79
  -6   0   3  444.00   31.55
  -6   0   3  518.51   40.41
  -6   0   2  344.60   26.69
  -6   0   2  327.66   21.72
  -6   0   1  430.01   28.25
  -6   0   1  324.23   22.53
  -6   0   0  622.65   41.19
   6   0   1  708.98   46.71
   6   0   1  701.14   45.92
   6   0   2  226.66   15.95
   6   0   2  226.17   13.33
   6   0   3  519.56   37.58
   6   0   4  580.88   44.91
   6   0   5  209.96   23.97
   6   0   6  139.37   17.80
   6   0   7  250.85   26.64
   6   0   8  167.10   21.30
  -6  -1   8    3.20    4.56
  -6  -1   8    5.51    6.30
  -6   1   8    5.37    5.36
  -6  -1   7   54.49   12.50
  -6  -1   7   86.17   13.14
  -6   1   7  113.51   13.80
  -6  -1   6   94.62   12.66
  -6  -1   6   70.62   10.21
  -6   1   6   97.58   12.49
  -6   1   6   77.95    9.08
  -6  -1   5    0.83    3.95
  -6   1   5    3.55    4.04
  -6  -1   5    1.94    3.24
  -6   1   5    3.01    2.98
  -6  -1   4   40.99    6.88
  -6  -1   4   38.25    5.86
  -6   1   4   28.03    4.63
  -6   1   4   30.13    6.68
  -6  -1   3   97.20    9.34
  -6  -1   3   96.39   11.04
  -6   1   3   87.89    7.47
  -6   1   3  101.48   10.64
  -6  -1   2   39.01    6.16
  -6  -1   2   38.48    5.93
  -6   1   2   40.34    4.31
  -6   1   2   36.65    6.07
  -6  -1   1    0.64    1.79
  -6  -1   1   -0.41    2.30
  -6   1   1   -2.95    2.37
  -6   1   1   -0.23    3.20
   6   1   0   32.14    5.19
   6  -1   0   55.71    5.36
  -6  -1   0   36.91    5.15
  -6   1   0   45.14    4.76
   6   1   1   26.11    4.34
   6   1   1   28.85    4.17
   6  -1   1   21.45    3.67
  -6   1  -1   28.94    3.31
   6   1   2    5.75    3.56
   6   1   2    6.69    2.12
   6  -1   2    5.51    2.76
   6  -1   2    3.30    1.75
   6   1   3    4.72    3.41
   6  -1   3   -2.62    2.34
   6   1   4   15.10    4.56
   6  -1   4   17.01    4.94
   6   1   5    1.32    3.43
   6  -1   5    2.39    3.53
   6   1   6   24.48    6.35
   6  -1   6   17.35    5.36
   6   1   7    2.38    5.60
   6  -1   7    5.26    4.39
   6   1   8   -5.94    4.92
   6  -1   8    0.79    5.98
  -6  -2   8   84.94   15.14
  -6  -2   8  122.03   16.21
  -6   2   8  119.21   16.14
  -6  -2   7  227.57   26.76
  -6   2   7  231.84   30.35
  -6  -2   7  195.61   24.74
  -6  -2   6  212.01   23.36
  -6  -2   6  185.28   19.45
  -6   2   6  224.69   23.68
  -6  -2   5  263.77   25.41
  -6  -2   5  217.42   20.69
  -6   2   5  251.85   25.11
  -6  -2   4  222.17   18.58
  -6  -2   4  217.75   19.76
  -6   2   4  233.18   17.54
  -6   2   4  231.04   22.59
   6   2  -3  431.90   33.87
  -6  -2   3  350.05   27.23
  -6   2   3  360.87   31.16
  -6   2   3  351.26   21.45
   6   2  -2  357.46   28.01
  -6  -2   2  306.05   22.06
  -6   2   2  309.09   25.56
  -6   2   2  314.04   18.26
   6   2  -1  216.29   16.28
  -6  -2   1  184.32   14.29
  -6   2   1  191.54   15.84
   6   2   0  478.05   35.08
   6  -2   0  516.42   30.20
  -6  -2   0  445.61   31.53
  -6   2   0  449.82   33.91
   6   2   1  263.29   17.52
   6   2   1  336.73   21.85
   6  -2   1  306.18   18.90
  -6   2  -1  307.63   18.51
   6   2   2  187.94   12.29
   6   2   2  264.36   17.82
   6  -2   2  221.45   13.82
   6   2   3  256.07   19.45
   6  -2   3  239.06   16.72
   6  -2   4  326.93   29.10
   6   2   4  354.18   29.07
   6   2   5  173.19   18.42
   6  -2   5  181.86   17.20
   6   2   6  122.80   14.36
   6  -2   6   82.26   11.60
   6   2   7  229.88   25.15
   6  -2   7  217.65   23.76
   6   2   8  100.68   16.38
   6  -2   8  127.99   15.80
   6   3  -7   87.24   11.68
  -6  -3   7   39.59    9.22
  -6   3   7   47.14   10.38
   6   3  -6   45.93   11.26
  -6  -3   6   71.83    9.54
  -6   3   6   63.23   11.31
   6   3  -5   21.65    6.75
  -6  -3   5   20.60    5.37
  -6   3   5   20.04    6.79
   6   3  -4   67.67   11.51
  -6  -3   4   50.68    8.23
  -6   3   4   56.21    9.45
   6   3  -3   67.63    8.52
  -6  -3   3   43.30    8.64
  -6   3   3   43.89    8.21
   6   3  -2   34.67    5.84
  -6  -3   2   22.56    4.80
  -6   3   2   26.57    5.54
   6   3  -1   12.37    3.88
   6  -3  -1   10.11    2.66
  -6  -3   1   14.44    3.74
  -6   3   1   16.04    4.14
   6   3   0   38.41    4.71
   6  -3   0   36.17    3.67
  -6  -3   0   26.26    5.20
  -6   3   0   25.37    4.48
   6   3   1   14.17    3.39
   6   3   1    8.00    3.55
   6  -3   1    7.51    2.69
  -6   3  -1    8.56    2.57
   6   3   2    1.55    1.74
   6   3   2    0.80    3.82
   6  -3   2    2.96    1.98
   6   3   3   44.29    6.08
   6  -3   3   29.17    4.78
   6   3   4   16.03    5.16
   6  -3   4   21.23    3.93
   6   3   5    2.04    4.01
   6  -3   5    5.12    3.25
   6   3   6   -7.29    4.55
   6  -3   6    8.66    4.26
   6   3   7    8.10    5.20
   6  -3   7   -0.07    5.09
   6   4  -7   59.56   11.85
  -6  -4   7   58.74   12.22
  -6   4   7   53.75   11.87
   6   4  -6  215.45   25.25
  -6  -4   6  187.33   25.03
  -6   4   6  198.44   24.13
   6   4  -5  176.11   20.17
  -6  -4   5  124.88   15.44
  -6   4   5  172.54   22.07
   6   4  -4  221.11   22.38
  -6  -4   4  174.45   18.92
  -6   4   4  197.97   24.67
   6   4  -3  330.57   29.27
  -6  -4   3  292.30   25.48
  -6   4   3  326.16   33.34
   6   4  -2  405.03   33.76
  -6  -4   2  371.79   29.02
  -6   4   2  399.21   38.05
   6   4  -1  306.74   25.39
  -6   4   1  371.55   34.77
  -6  -4   1  337.61   24.53
   6   4   0  296.07   22.70
  -6  -4   0  322.94   23.82
  -6   4   0  316.13   23.55
   6   4   1  427.90   30.25
  -6  -4  -1  546.45   37.62
  -6   4  -1  487.70   33.19
   6   4   2  312.09   22.12
   6   4   2  351.60   26.67
   6   4   3  336.00   25.18
   6  -4   3  267.27   18.08
   6   4   4  394.48   30.91
   6  -4   4  294.91   25.71
   6   4   5  250.72   21.97
   6  -4   5  198.30   18.08
   6   4   6  206.88   21.52
   6  -4   6  159.37   16.98
   6   4   7  131.47   19.69
   6   5  -7   40.34    9.43
  -6  -5   7   30.58    8.68
  -6   5   7   46.69   11.24
   6   5  -6   30.66    8.54
  -6  -5   6   31.21    8.01
  -6   5   6   46.03   10.26
   6   5  -5   43.09    9.46
  -6  -5   5   37.06    8.85
  -6   5   5   59.03   10.73
   6   5  -4   36.00    8.05
  -6  -5   4   32.56    7.16
  -6   5   4   41.13    9.14
   6   5  -3   17.82    6.03
  -6  -5   3   26.19    6.69
  -6   5   3   27.64    7.75
   6   5  -2   45.25    6.88
  -6  -5   2   32.13    6.03
  -6   5   2   28.56    8.14
   6   5  -1   41.64    6.50
  -6  -5   1   42.16    6.32
  -6   5   1   42.97    7.26
   6   5   0   12.31    3.78
  -6  -5   0   12.87    3.98
  -6   5   0   12.26    4.20
   6   5   1   14.64    4.49
  -6  -5  -1   19.56    4.70
  -6   5  -1   20.39    4.20
   6   5   2    3.58    3.43
   6   5   2    7.99    3.64
   6   5   3   21.05    5.28
   6   5   4   -3.10    3.98
   6   5   5   20.52    6.05
   6   5   6   28.58    7.83
   6   5   7   15.86    7.32
   6   6  -6  188.65   23.69
  -6  -6   6  150.16   21.25
  -6   6   6  207.53   28.32
   6   6  -5  186.50   23.77
  -6   6   5  228.32   29.29
  -6  -6   5  178.14   21.98
   6   6  -4  101.95   15.68
  -6  -6   4  109.91   14.31
  -6   6   4  124.54   18.24
   6   6  -3  183.41   21.39
  -6  -6   3  185.71   18.63
  -6   6   3  208.85   25.19
   6   6  -2  246.01   24.72
  -6  -6   2  259.05   21.80
  -6   6   2  265.46   30.02
   6   6  -1  131.83   13.66
  -6  -6   1  142.70   13.43
  -6   6   1  142.71   17.28
   6   6   0  151.61   14.17
  -6  -6   0  171.73   14.90
  -6   6   0  170.79   21.09
   6   6   1  243.19   22.20
  -6  -6  -1  240.41   20.21
  -6   6  -1  241.07   22.23
   6   6   2  212.54   19.02
   6   6   2  219.06   18.87
   6   6   3  144.87   14.91
   6   6   4  142.80   15.39
   6   6   5  182.66   20.62
   6   6   6  120.53   15.46
   6   7  -6   24.01    8.34
  -6  -7   6   13.35    7.24
  -6   7   6   29.98    9.92
   6   7  -5   51.11   10.83
  -6  -7   5   42.14    9.82
  -6   7   5   52.34   15.74
   6   7  -4   55.28   11.21
  -6  -7   4   50.46    9.50
  -6   7   4   71.32   12.35
   6   7  -3   -1.09    4.65
  -6  -7   3    1.81    4.81
  -6   7   3    8.72    5.23
   6   7  -2   20.06    6.36
  -6  -7   2   26.00    5.59
  -6   7   2   23.43    7.00
   6   7  -1   50.00    7.96
  -6  -7   1   49.45    7.15
  -6   7   1   29.03   10.01
   6   7   0   26.81    8.10
  -6  -7   0   23.61    5.49
  -6   7   0   22.45    5.88
   6   7   1    0.10    3.36
  -6  -7  -1    3.60    3.34
   6   7   2   11.22    3.41
   6   7   2    0.61    3.79
   6   7   3   16.78    6.12
   6   7   4   11.26    4.74
   6   7   5    9.33    5.10
   6   8  -5  100.67   17.81
  -6  -8   5   87.23   15.17
  -6   8   5  120.34   18.50
   6   8  -4   86.10   15.32
  -6  -8   4   98.74   13.62
  -6   8   4  110.85   17.50
   6   8  -3  127.81   18.49
  -6  -8   3  139.38   14.81
  -6   8   3  138.08   20.44
   6   8  -2  181.05   23.26
  -6  -8   2  197.18   19.35
  -6   8   2  226.99   27.62
   6   8  -1  275.26   28.49
  -6  -8   1  209.65   20.34
  -6   8   1  220.14   31.71
   6   8   0  170.77   22.59
  -6  -8   0  167.89   15.80
  -6   8   0  152.65   23.04
   6   8   1  232.31   21.83
  -6  -8  -1  212.07   19.47
   6   8   2  214.85   19.29
   6   8   2  232.77   21.01
   6   8   3  177.25   18.34
   6   8   4  124.78   13.80
   6   9  -3    0.12    5.52
  -6  -9   3    0.81    4.07
  -6   9   3   11.16    6.26
   6   9  -2   17.65    8.30
  -6  -9   2   15.39    5.07
  -6   9   2   16.02    9.64
   6   9  -1   53.31    9.94
  -6  -9   1   30.80    7.22
  -6   9   1   51.74   10.49
   6   9   0    3.37    4.45
  -6  -9   0   -4.93    3.59
   6   9   1   21.48    5.18
  -6  -9  -1   -4.21    4.09
   6   9   2    2.81    3.43
   6   9   2    1.73    3.55
   6   9   3   -4.05    4.12
   6  10   0  107.55   16.70
  -6 -10   0  117.24   13.36
  -7   0   5   32.33    8.54
  -7   0   4   26.42    7.12
  -7   0   3   88.09   11.97
  -7   0   3   95.10    9.48
  -7   0   2   31.45    5.23
  -7   0   2   40.98    6.49
  -7   0   1   27.93    4.75
  -7   0   1   60.93    5.89
   7   0   0  136.80   11.91
   7   0   0  130.36   11.70
   7   0   1   82.38    8.50
   7   0   2   62.14    8.04
   7   0   3   87.08   11.51
   7   0   4  122.08   16.20
   7   0   5   22.99    6.06
  -7  -1   5   24.48    9.91
  -7  -1   5   31.22    7.89
  -7   1   5   34.52    8.28
  -7  -1   4   21.42    6.16
  -7  -1   4   24.82    6.74
  -7   1   4   18.03    6.69
  -7  -1   3   88.35    9.88
  -7   1   3   97.52   12.21
   7   1  -2   26.48    5.91
  -7  -1   2   15.31    4.74
  -7   1   2   28.89    5.56
   7   1  -1   11.80    3.84
   7  -1  -1    4.86    3.56
  -7  -1   1    3.90    3.40
  -7   1   1    7.25    3.56
   7   1   0   28.17    4.50
   7   1   0   17.10    4.56
   7  -1   0   22.24    4.25
  -7   1   0   22.35    4.23
   7   1   1   28.07    5.18
   7  -1   1   24.22    4.30
   7   1   2    0.11    4.13
   7  -1   2    5.84    3.12
   7   1   3   11.76    4.79
   7  -1   3   14.98    4.87
   7   1   4    9.61    4.93
   7  -1   4   16.08    4.53
   7  -1   5    8.72    5.04
   7   1   5    5.70    4.80
   7   2  -5   39.15    8.59
  -7  -2   5   20.42    6.41
  -7   2   5   26.94    7.78
   7   2  -4   85.82   12.27
  -7  -2   4   58.59    8.88
  -7   2   4   80.99   13.44
   7   2  -3   49.56    9.29
  -7  -2   3   46.96    7.01
  -7   2   3   51.59    8.75
   7   2  -2   78.91    9.60
  -7  -2   2   59.25    7.98
  -7   2   2   51.18    9.00
   7   2  -1   21.28    5.55
  -7  -2   1   27.47    5.27
  -7   2   1   27.21    4.97
   7   2   0   48.29    6.74
   7   2   0   78.58    7.92
  -7   2   0   54.50    6.78
   7   2   1   80.33    9.70
   7   2   2    5.68    3.73
   7   2   3   81.64   12.95
   7   2   4   53.75   10.60
   7   2   5   28.00    9.03
   7   3  -5   29.99    9.57
  -7  -3   5   17.66    6.14
  -7   3   5   24.46    7.58
   7   3  -4   37.41   11.56
  -7  -3   4   44.14    7.27
  -7   3   4   47.28    9.19
   7   3  -3   86.74   10.44
  -7  -3   3   51.66    8.12
  -7   3   3   48.06    9.89
   7   3  -2   18.41    4.99
  -7  -3   2   16.01    4.62
  -7   3   2    8.37    5.19
   7   3  -1   29.33    5.83
  -7  -3   1   40.06    7.00
  -7   3   1   19.35    6.89
   7   3   0   25.08    5.47
  -7  -3   0   20.02    5.27
   7   3   1    7.51    3.74
   7   3   2   -1.88    3.59
   7   3   3    5.21    3.98
   7   3   4    0.53    3.82
   7   3   5   17.46    6.22
   7   4  -4   33.59    7.23
  -7  -4   4   15.58    6.01
  -7   4   4   32.37    7.24
   7   4  -3   99.45   12.58
  -7  -4   3   72.86   10.87
  -7   4   3   89.98   14.30
   7   4  -2   77.91   10.89
  -7  -4   2   58.38    8.51
  -7   4   2   53.31    8.77
   7   4  -1   73.16    7.82
  -7  -4   1   48.13    7.89
  -7   4   1   42.64    7.76
   7   4   0  112.63   11.05
  -7  -4   0  120.42   12.75
   7   4   1   81.60   10.11
   7   4   2   98.00   11.81
   7   4   3   66.30    9.47
   7   4   4  127.66   15.93
   7   5  -4   42.43    9.23
  -7  -5   4   36.11    7.82
  -7   5   4   41.40    9.60
   7   5  -3   37.79    7.14
  -7  -5   3   18.45    6.00
  -7   5   3   18.12    7.41
   7   5  -2   28.34    6.28
  -7  -5   2   12.84    5.44
  -7   5   2   20.56    7.52
   7   5  -1   19.07    6.07
  -7  -5   1    6.56    4.94
  -7   5   1   20.85    5.97
   7   5   0   12.23    4.12
  -7  -5   0   17.21    4.92
   7   5   1   27.38    6.09
   7   5   2    4.08    4.15
   7   5   3   22.12    5.93
   7   6  -2   93.57   12.06
  -7  -6   2   73.59   10.36
  -7   6   2   64.32   13.85
   7   6  -1   24.84    6.52
  -7  -6   1   38.50    6.72
   7   6   0   28.63    5.86
  -7  -6   0   26.88    6.40
   7   6   1   67.60    9.67
   7   6   2   37.21    7.62
   0   0   0    0.00    0.00
;
_shelx_hkl_checksum              87267
_shelx_res_file
;
    1.res created by SHELXL-2014/7
TITL 1 in P2(1)
CELL 0.71073   6.0127  12.0565   9.9620  90.000  90.434  90.000
ZERR    2.00   0.0012   0.0024   0.0020   0.000   0.030   0.000
LATT -1
SYMM -X, 0.5+Y, -Z
SFAC C  H  N  P  Br Pb
UNIT 10 32 2 2 8 2
L.S. 10
ACTA
BOND
FMAP 2
PLAN 20
HTAB C2 Br2_$1
HTAB C2 Br4_$1
HTAB C2 Br4_$5
HTAB N1 Br3_$2
HTAB N1 Br1_$4
HTAB N1 Br1
HTAB C5 Br4_$5
EQIV $5 -x+2, y-1/2, -z+2
HTAB C5 Br4_$4
EQIV $4 -x+1, y-1/2, -z+2
HTAB C1 Br1_$3
EQIV $3 -x+1, y-1/2, -z+1
HTAB C4 Br3_$2
EQIV $2 x-1, y, z
HTAB C4 Br3
HTAB C3 Br4_$1
EQIV $1 x, y, z-1
TWIN  -1 0 0 0 -1 0  0 0 -1 2
DFIX 1.54 C4 C5
WGHT    0.019200    1.513800
EXTI    0.025494
BASF   0.50120
FVAR       0.19828
MOLE 1
PB1   6    0.994408    0.475465    1.010835    11.00000    0.01156    0.01977 =
         0.01761   -0.00125    0.00187   -0.00011
BR2   5    0.985753    0.221339    1.043421    11.00000    0.05156    0.01961 =
         0.03320    0.00073    0.00738    0.00047
BR3   5    0.997601    0.407499    0.722788    11.00000    0.03305    0.04204 =
         0.01919   -0.00492   -0.00243    0.00515
BR4   5    0.958640    0.508654    1.303956    11.00000    0.05070    0.05022 =
         0.02108   -0.00896    0.00666   -0.01984
P1    4    0.594451    0.204729    0.425936    11.00000    0.01744    0.02518 =
         0.02227   -0.00066    0.00334    0.00010
BR1   5    0.500767    0.492758    0.992299    11.00000    0.01115    0.04743 =
         0.04801   -0.00853   -0.00074    0.00177
C3    1    0.490109    0.281952    0.288894    11.00000    0.01902    0.08331 =
         0.03691    0.02955   -0.00072    0.00554
AFIX 137
H3A   2    0.585885    0.344129    0.272526    11.00000   -1.50000
H3B   2    0.343275    0.308059    0.309066    11.00000   -1.50000
H3C   2    0.484377    0.235697    0.210506    11.00000   -1.50000
AFIX   0
C4    1    0.503945    0.261316    0.579242    11.00000    0.02548    0.02433 =
         0.02475   -0.00283    0.00863   -0.00376
AFIX  23
H4A   2    0.575526    0.332664    0.592154    11.00000   -1.20000
H4B   2    0.344970    0.274270    0.573137    11.00000   -1.20000
AFIX   0
C1    1    0.505901    0.066949    0.406675    11.00000    0.04490    0.04009 =
         0.06042   -0.02650    0.01948   -0.01632
AFIX 137
H1A   2    0.356307    0.059785    0.438542    11.00000   -1.50000
H1B   2    0.602026    0.018850    0.457433    11.00000   -1.50000
H1C   2    0.510916    0.046822    0.313510    11.00000   -1.50000
AFIX   0
C5    1    0.550531    0.190058    0.700949    11.00000    0.02777    0.04352 =
         0.02652   -0.01023    0.01156    0.00836
AFIX  23
H5A   2    0.484543    0.117465    0.687375    11.00000   -1.20000
H5B   2    0.709932    0.180244    0.710856    11.00000   -1.20000
AFIX   0
N1    3    0.462550    0.238559    0.823642    11.00000    0.06944    0.04886 =
         0.02309   -0.00156   -0.00641    0.02956
AFIX 137
H1D   2    0.550024    0.294051    0.850196    11.00000   -1.50000
H1E   2    0.457961    0.187051    0.887557    11.00000   -1.50000
H1F   2    0.325957    0.264184    0.808071    11.00000   -1.50000
AFIX   0
C2    1    0.888222    0.206542    0.426685    11.00000    0.01724    0.04768 =
         0.02726    0.00361    0.00842   -0.00966
AFIX 137
H2A   2    0.942964    0.161685    0.499375    11.00000   -1.50000
H2B   2    0.939652    0.281375    0.437905    11.00000   -1.50000
H2C   2    0.941703    0.177553    0.343182    11.00000   -1.50000
AFIX   0
HKLF 4
REM  1 in P2(1)
REM R1 =  0.0374 for    2927 Fo > 4sig(Fo)  and  0.0404 for all    3093 data
REM    115 parameters refined using      2 restraints
END
WGHT      0.0192      1.5139
REM Highest difference peak  1.618,  deepest hole -1.797,  1-sigma level  0.268
Q1    1   1.0118  0.4234  0.9489  11.00000  0.05    1.62
Q2    1   1.0173  0.5260  0.9473  11.00000  0.05    1.50
Q3    1   0.9015  0.4202  1.0759  11.00000  0.05    1.28
Q4    1   1.0103  0.3786  1.0240  11.00000  0.05    1.25
Q5    1   0.9958  0.5395  1.0623  11.00000  0.05    1.15
Q6    1   1.0015  0.0860  1.1249  11.00000  0.05    1.12
Q7    1   1.0104  0.5733  1.0159  11.00000  0.05    1.05
Q8    1   0.9666  0.3925  1.1388  11.00000  0.05    1.03
Q9    1   0.9983  0.3562  0.8891  11.00000  0.05    1.02
Q10   1   0.9906  0.4667  1.2259  11.00000  0.05    0.96
Q11   1   1.0102  0.4814  0.5640  11.00000  0.05    0.95
Q12   1   1.0051  0.2729  0.9730  11.00000  0.05    0.94
Q13   1   1.0060  0.4437  0.6405  11.00000  0.05    0.92
Q14   1   1.0163  0.4868  0.6914  11.00000  0.05    0.91
Q15   1   1.0104  0.2636  0.5050  11.00000  0.05    0.91
Q16   1   0.9990  0.3578  0.6171  11.00000  0.05    0.89
Q17   1   0.9628  0.3603  0.7754  11.00000  0.05    0.89
Q18   1   1.0305  0.1221  0.5924  11.00000  0.05    0.87
Q19   1   0.9556  0.1204  0.4596  11.00000  0.05    0.85
Q20   1   1.0035  0.0874  0.3853  11.00000  0.05    0.85
;
_shelx_res_checksum              64504
loop_
_space_group_symop_operation_xyz
'x, y, z'
'-x, y+1/2, -z'
loop_
_atom_site_type_symbol
_atom_site_label
_atom_site_fract_x
_atom_site_fract_y
_atom_site_fract_z
_atom_site_U_iso_or_equiv
_atom_site_adp_type
_atom_site_calc_flag
_atom_site_occupancy
Pb Pb1 0.99441(8) 0.47547(5) 1.01083(5) 0.01630(18) Uani d 1
Br Br2 0.9858(3) 0.22134(17) 1.04342(17) 0.0348(4) Uani d 1
Br Br3 0.9976(3) 0.40750(16) 0.72279(16) 0.0314(4) Uani d 1
Br Br4 0.9586(3) 0.50865(16) 1.30396(17) 0.0406(6) Uani d 1
P P1 0.5945(6) 0.2047(4) 0.4259(4) 0.0216(9) Uani d 1
Br Br1 0.5008(2) 0.4928(3) 0.99230(18) 0.0355(7) Uani d 1
C C3 0.490(3) 0.2820(19) 0.289(2) 0.046(6) Uani d 1
H H3A 0.5859 0.3441 0.2725 0.070 Uiso calc 1
H H3B 0.3433 0.3081 0.3091 0.070 Uiso calc 1
H H3C 0.4844 0.2357 0.2105 0.070 Uiso calc 1
C C4 0.504(3) 0.2613(12) 0.5792(17) 0.025(4) Uani d 1
H H4A 0.5755 0.3327 0.5922 0.030 Uiso calc 1
H H4B 0.3450 0.2743 0.5731 0.030 Uiso calc 1
C C1 0.506(3) 0.0669(16) 0.407(2) 0.048(6) Uani d 1
H H1A 0.3563 0.0598 0.4385 0.073 Uiso calc 1
H H1B 0.6020 0.0189 0.4574 0.073 Uiso calc 1
H H1C 0.5109 0.0468 0.3135 0.073 Uiso calc 1
C C5 0.551(3) 0.1901(15) 0.7009(16) 0.033(4) Uani d 1
H H5A 0.4845 0.1175 0.6874 0.039 Uiso calc 1
H H5B 0.7099 0.1802 0.7109 0.039 Uiso calc 1
N N1 0.463(3) 0.2386(14) 0.8236(14) 0.047(5) Uani d 1
H H1D 0.5500 0.2941 0.8502 0.071 Uiso calc 1
H H1E 0.4580 0.1871 0.8876 0.071 Uiso calc 1
H H1F 0.3260 0.2642 0.8081 0.071 Uiso calc 1
C C2 0.888(2) 0.2065(16) 0.4267(16) 0.031(4) Uani d 1
H H2A 0.9430 0.1617 0.4994 0.046 Uiso calc 1
H H2B 0.9397 0.2814 0.4379 0.046 Uiso calc 1
H H2C 0.9417 0.1776 0.3432 0.046 Uiso calc 1
loop_
_atom_site_aniso_label
_atom_site_aniso_U_11
_atom_site_aniso_U_22
_atom_site_aniso_U_33
_atom_site_aniso_U_12
_atom_site_aniso_U_13
_atom_site_aniso_U_23
Pb1 0.0116(3) 0.0198(3) 0.0176(3) -0.0001(2) 0.00187(18) -0.0012(3)
Br2 0.0516(11) 0.0196(7) 0.0332(9) 0.0005(9) 0.0074(8) 0.0007(9)
Br3 0.0330(10) 0.0420(9) 0.0192(8) 0.0051(8) -0.0024(7) -0.0049(7)
Br4 0.0507(12) 0.0502(12) 0.0211(9) -0.0198(9) 0.0067(8) -0.0090(7)
P1 0.0174(19) 0.025(2) 0.022(2) 0.0001(18) 0.0033(16) -0.0007(16)
Br1 0.0111(7) 0.0474(19) 0.0480(10) 0.0018(8) -0.0007(7) -0.0085(9)
C3 0.019(9) 0.083(15) 0.037(12) 0.006(10) -0.001(9) 0.030(11)
C4 0.025(9) 0.024(8) 0.025(9) -0.004(7) 0.009(8) -0.003(6)
C1 0.045(13) 0.040(10) 0.060(14) -0.016(10) 0.019(11) -0.026(11)
C5 0.028(9) 0.044(11) 0.027(10) 0.008(9) 0.012(8) -0.010(8)
N1 0.069(12) 0.049(10) 0.023(8) 0.030(9) -0.006(8) -0.002(7)
C2 0.017(7) 0.048(10) 0.027(9) -0.010(8) 0.008(7) 0.004(8)
loop_
_atom_type_symbol
_atom_type_description
_atom_type_scat_dispersion_real
_atom_type_scat_dispersion_imag
_atom_type_scat_source
C C 0.0033 0.0016 'International Tables Vol C Tables 4.2.6.8 and 6.1.1.4'
H H 0.0000 0.0000 'International Tables Vol C Tables 4.2.6.8 and 6.1.1.4'
N N 0.0061 0.0033 'International Tables Vol C Tables 4.2.6.8 and 6.1.1.4'
P P 0.1023 0.0942 'International Tables Vol C Tables 4.2.6.8 and 6.1.1.4'
Br Br -0.2901 2.4595 'International Tables Vol C Tables 4.2.6.8 and 6.1.1.4'
Pb Pb -3.3944 10.1111 'International Tables Vol C Tables 4.2.6.8 and 6.1.1.4'
loop_
_geom_angle_atom_site_label_1
_geom_angle_atom_site_label_2
_geom_angle_atom_site_label_3
_geom_angle_site_symmetry_1
_geom_angle_site_symmetry_3
_geom_angle
_geom_angle_publ_flag
Br4 Pb1 Br1 . . 88.39(6) y
Br4 Pb1 Br3 . . 171.02(6) y
Br1 Pb1 Br3 . . 88.47(6) y
Br4 Pb1 Br2 . . 91.67(5) y
Br1 Pb1 Br2 . . 93.35(7) y
Br3 Pb1 Br2 . . 80.13(5) y
C1 P1 C4 . . 111.5(9) y
C1 P1 C3 . . 108.0(12) y
C4 P1 C3 . . 110.9(9) y
C1 P1 C2 . . 108.3(9) y
C4 P1 C2 . . 107.9(8) y
C3 P1 C2 . . 110.3(8) y
C5 C4 P1 . . 114.8(11) y
N1 C5 C4 . . 112.2(14) y
Br4 Pb1 Br2 . 2_757 92.71(5) ?
Br1 Pb1 Br2 . 2_757 87.76(7) ?
Br3 Pb1 Br2 . 2_757 95.57(5) ?
Br4 Pb1 Br1 . 1_655 97.48(6) ?
Br1 Pb1 Br1 . 1_655 169.41(10) ?
Br3 Pb1 Br1 . 1_655 86.96(6) ?
Br2 Pb1 Br1 2_757 1_655 83.19(7) ?
Br2 Pb1 Br2 2_757 . 175.51(2) ?
Br1 Pb1 Br2 1_655 . 95.26(7) ?
Pb1 Br2 Pb1 2_747 . 163.28(6) ?
Pb1 Br1 Pb1 . 1_455 169.41(10) ?
loop_
_geom_bond_atom_site_label_1
_geom_bond_atom_site_label_2
_geom_bond_site_symmetry_2
_geom_bond_distance
_geom_bond_publ_flag
Pb1 Br4 . 2.9568(18) y
Pb1 Br1 . 2.9798(15) y
Pb1 Br3 . 2.9844(17) y
Pb1 Br2 2_757 3.016(2) ?
Pb1 Br1 1_655 3.0587(16) ?
Pb1 Br2 . 3.082(2) y
C4 C5 . 1.510(17) y
Br2 Pb1 2_747 3.016(2) ?
P1 C1 . 1.754(18) y
P1 C4 . 1.763(16) y
P1 C3 . 1.764(17) y
P1 C2 . 1.766(14) y
Br1 Pb1 1_455 3.0587(15) ?
C5 N1 . 1.46(2) y
loop_
_geom_hbond_atom_site_label_D
_geom_hbond_atom_site_label_H
_geom_hbond_atom_site_label_A
_geom_hbond_site_symmetry_A
_geom_hbond_distance_DH
_geom_hbond_distance_HA
_geom_hbond_distance_DA
_geom_hbond_angle_DHA
C2 H2C Br2 1_554 0.96 3.05 3.871(16) 144.9
C2 H2B Br4 1_554 0.96 3.05 3.866(19) 143.7
C2 H2A Br4 2_747 0.96 2.75 3.702(18) 170.1
N1 H1F Br3 1_455 0.89 2.75 3.596(15) 158.5
N1 H1E Br1 2_647 0.89 2.64 3.491(16) 160.0
N1 H1D Br1 . 0.89 2.80 3.502(16) 136.8
C5 H5B Br4 2_747 0.97 2.88 3.674(17) 140.1
C5 H5A Br4 2_647 0.97 2.97 3.762(19) 139.5
C1 H1C Br1 2_646 0.96 3.12 4.07(2) 176.0
C4 H4B Br3 1_455 0.97 3.04 3.806(17) 137.4
C4 H4A Br3 . 0.97 2.98 3.728(18) 134.5
C3 H3A Br4 1_554 0.96 3.01 3.93(2) 160.9

_cod_database_fobs_code 2021524
