#------------------------------------------------------------------------------
#$Date: 2018-08-14 05:14:15 +0300 (Tue, 14 Aug 2018) $
#$Revision: 209667 $
#$URL: file:///home/coder/svn-repositories/cod/cif/2/02/11/2021198.cif $
#------------------------------------------------------------------------------
#
# This file is available in the Crystallography Open Database (COD),
# http://www.crystallography.net/. The original data for this entry
# were provided by IUCr Journals, http://journals.iucr.org/.
#
# The file may be used within the scientific community so long as
# proper attribution is given to the journal article from which the
# data were obtained.
#
data_2021198
loop_
_publ_author_name
'Rajam, Ammaiyappan'
'Muthiah, Packianathan Thomas'
'Butcher, Raymond John'
'Jasinski, Jerry P.'
'Wikaira, Jan'
_publ_section_title
;
 Design of two series of 1:1 cocrystals involving
 4-amino-5-chloro-2,6-dimethylpyrimidine and carboxylic acids
;
_journal_coeditor_code           SK3691
_journal_issue                   9
_journal_name_full               'Acta Crystallographica Section C'
_journal_page_first
;
;
_journal_paper_doi               10.1107/S2053229618009154
_journal_volume                  74
_journal_year                    2018
_chemical_formula_iupac          'C6 H8 Cl N3, C5 H3 Cl O2 S'
_chemical_formula_moiety         'C6 H8 Cl N3, C5 H3 Cl O2 S'
_chemical_formula_sum            'C11 H11 Cl2 N3 O2 S'
_chemical_formula_weight         320.19
_chemical_name_systematic
;
4-Amino-5-chloro-2,6-dimethylpyrimidine--5-chlorothiophene-2-carboxylic acid
(1/1)
;
_space_group_crystal_system      triclinic
_space_group_IT_number           2
_space_group_name_Hall           '-P 1'
_space_group_name_H-M_alt        'P -1'
_symmetry_space_group_name_Hall  '-P 1'
_symmetry_space_group_name_H-M   'P -1'
_atom_sites_solution_hydrogens   mixed
_atom_sites_solution_primary     direct
_atom_sites_solution_secondary   difmap
_audit_creation_method           SHELXL-2018/1
_cell_angle_alpha                90.707(2)
_cell_angle_beta                 102.629(2)
_cell_angle_gamma                105.338(2)
_cell_formula_units_Z            2
_cell_length_a                   7.2182(3)
_cell_length_b                   7.6364(3)
_cell_length_c                   12.7516(6)
_cell_measurement_reflns_used    5911
_cell_measurement_temperature    100(2)
_cell_measurement_theta_max      29.5747
_cell_measurement_theta_min      2.7736
_cell_volume                     659.61(5)
_computing_cell_refinement
;
SAINT (Bruker, 2014)
;
_computing_data_collection
;
APEX2 (Bruker, 2014)
;
_computing_data_reduction
;
SAINT (Bruker, 2014)
;
_computing_molecular_graphics
;
SHELXTL  (Sheldrick, 2008)
;
_computing_publication_material
;
SHELXTL  (Sheldrick, 2008)
;
_computing_structure_refinement
;
SHELXL2018 (Sheldrick, 2015b)
;
_computing_structure_solution
;
SHELXS97 (Sheldrick, 2008)
;
_diffrn_ambient_temperature      100(2)
_diffrn_measured_fraction_theta_full 0.992
_diffrn_measured_fraction_theta_max 0.980
_diffrn_measurement_device_type  'Bruker D8 Quest CMOS'
_diffrn_measurement_method       'omega and phi scans'
_diffrn_radiation_type           MoK\a
_diffrn_radiation_wavelength     0.71073
_diffrn_reflns_av_R_equivalents  0.0506
_diffrn_reflns_limit_h_max       9
_diffrn_reflns_limit_h_min       -10
_diffrn_reflns_limit_k_max       10
_diffrn_reflns_limit_k_min       -10
_diffrn_reflns_limit_l_max       17
_diffrn_reflns_limit_l_min       -17
_diffrn_reflns_number            8796
_diffrn_reflns_theta_full        25.242
_diffrn_reflns_theta_max         29.598
_diffrn_reflns_theta_min         2.774
_exptl_absorpt_coefficient_mu    0.650
_exptl_absorpt_correction_T_max  0.7459
_exptl_absorpt_correction_T_min  0.4774
_exptl_absorpt_correction_type   multi-scan
_exptl_absorpt_process_details
;
(APEX2; Bruker, 2014)
;
_exptl_crystal_colour            colourless
_exptl_crystal_density_diffrn    1.612
_exptl_crystal_description       rod
_exptl_crystal_F_000             328
_exptl_crystal_size_max          0.370
_exptl_crystal_size_mid          0.190
_exptl_crystal_size_min          0.110
_refine_diff_density_max         0.757
_refine_diff_density_min         -0.559
_refine_ls_extinction_method     none
_refine_ls_goodness_of_fit_ref   1.151
_refine_ls_hydrogen_treatment    mixed
_refine_ls_matrix_type           full
_refine_ls_number_parameters     187
_refine_ls_number_reflns         3636
_refine_ls_number_restraints     0
_refine_ls_restrained_S_all      1.151
_refine_ls_R_factor_all          0.0635
_refine_ls_R_factor_gt           0.0506
_refine_ls_shift/su_max          0.000
_refine_ls_shift/su_mean         0.000
_refine_ls_structure_factor_coef Fsqd
_refine_ls_weighting_details
'w=1/[\s^2^(Fo^2^)+(0.0554P)^2^+0.5883P] where P=(Fo^2^+2Fc^2^)/3'
_refine_ls_weighting_scheme      calc
_refine_ls_wR_factor_gt          0.1292
_refine_ls_wR_factor_ref         0.1379
_reflns_number_gt                2947
_reflns_number_total             3636
_reflns_threshold_expression     'I > 2\s(I)'
_cod_data_source_file            sk3691sup1.cif
_cod_data_source_block           COCRYSTAL-2
_cod_database_code               2021198
_shelx_space_group_comment
;
The symmetry employed for this shelxl refinement is uniquely defined
by the following loop, which should always be used as a source of
symmetry information in preference to the above space-group names.
They are only intended as comments.
;
_shelx_hkl_file
;
  -1   0   0   78.67    5.33
  -1   0   0   91.45    5.38
  -1   0   0   84.31    5.35
   1   0   0   82.58    5.34
  -2   0   0    2.27    0.17
  -2   0   0    2.18    0.23
  -2   0   0    2.06    0.23
   2   0   0    2.11    0.23
  -3   0   0  317.28   20.40
  -3   0   0  354.24   20.44
  -3   0   0  299.76   20.37
   3   0   0  319.53   20.40
  -4   0   0    1.21    0.23
  -4   0   0    0.80    0.10
   4   0   0    0.37    0.18
   4   0   0    0.71    0.19
  -5   0   0   14.03    1.21
   5   0   0   14.79    1.26
   5   0   0   13.55    1.23
   5   0   0   14.01    1.14
  -6   0   0    2.83    0.48
   6   0   0    2.04    0.33
   6   0   0    2.91    0.43
  -7   0   0    4.37    0.64
   7   0   0    3.14    0.65
   7   0   0    4.73    0.59
  -8   0   0    8.64    0.98
   8   0   0    9.54    1.05
  -9   0   0   49.54    4.23
   9   0   0   48.40    3.66
   9  -1   0    0.59    0.44
  -9   1   0    0.45    0.51
   8  -1   0    4.62    0.65
  -8   1   0    4.52    0.75
   7  -1   0    0.13    0.41
   7  -1   0    0.63    0.30
   6  -1   0    3.41    0.49
   6  -1   0    4.31    0.53
   6  -1   0    3.76    0.47
  -6   1   0    4.28    0.59
   5  -1   0   25.48    1.79
   5  -1   0   25.11    1.87
  -5   1   0   23.89    1.93
   4  -1   0    3.08    0.33
   4  -1   0    3.70    0.39
  -4   1   0    3.34    0.27
  -4   1   0    2.76    0.41
  -4   1   0    2.39    0.29
   3  -1   0    1.48    0.20
   3  -1   0    1.59    0.16
   3  -1   0    1.69    0.18
  -3   1   0    1.44    0.19
  -3   1   0    1.97    0.29
  -3   1   0    1.61    0.15
   2  -1   0   49.76    3.18
   2  -1   0   50.42    3.19
   2  -1   0   51.64    3.17
  -2   1   0   48.20    3.28
  -2   1   0   50.95    3.18
  -2   1   0   46.57    3.19
   1  -1   0    3.85    0.31
   0  -1   0   13.12    0.91
   0  -1   0   12.65    0.89
   0   1   0   14.37    0.89
  -1  -1   0   37.39    2.50
  -1  -1   0   35.64    2.44
  -1  -1   0   37.74    2.41
   1   1   0   36.54    2.44
   1   1   0   38.22    2.51
  -2  -1   0   52.06    3.46
  -2  -1   0   48.33    3.34
   2   1   0   51.11    3.40
   2   1   0   52.10    3.47
   3   1   0    1.67    0.22
   3   1   0    2.24    0.30
  -4  -1   0    5.29    0.52
   4   1   0    4.42    0.55
   4   1   0    5.05    0.59
  -5  -1   0   17.22    1.45
  -5  -1   0   19.49    1.17
  -5  -1   0   18.42    1.17
   5   1   0   14.86    1.41
   5   1   0   18.71    1.58
  -6  -1   0    8.03    0.83
   6   1   0    7.78    0.86
   6   1   0    6.03    0.74
  -7  -1   0    0.64    0.36
   7   1   0    0.31    0.50
   7   1   0    0.63    0.34
  -8  -1   0    3.84    0.72
   8   1   0    4.76    0.81
  -9  -1   0    3.54    0.68
   9   1   0    5.03    0.92
  -9   2   0    2.08    0.45
   8  -2   0   51.04    3.62
   8  -2   0   57.13    3.77
  -8   2   0   52.20    4.08
   7  -2   0   14.90    1.44
   7  -2   0   17.03    1.31
   7  -2   0   15.10    1.19
  -7   2   0   14.87    1.45
   6  -2   0    0.81    0.17
   6  -2   0    1.24    0.25
  -6   2   0    0.68    0.30
   5  -2   0    9.55    0.76
   5  -2   0   11.65    0.86
   5  -2   0    9.76    0.77
  -5   2   0    9.47    0.94
   4  -2   0   37.14    2.38
   4  -2   0   37.56    2.42
   4  -2   0   38.74    2.42
  -4   2   0   31.83    2.39
  -4   2   0   34.87    2.61
  -4   2   0   35.89    2.40
   3  -2   0   13.94    0.91
   3  -2   0   13.30    0.98
   3  -2   0   14.80    0.93
  -3   2   0   11.76    0.91
  -3   2   0   12.78    0.96
  -3   2   0   13.16    1.09
   2  -2   0   42.06    2.79
  -2   2   0   41.66    2.69
  -2   2   0   42.86    2.68
   1  -2   0   74.00    4.77
   0  -2   0   -0.02    0.04
   0  -2   0   -0.02    0.06
   0   2   0    0.00    0.04
   0   2   0    0.02    0.04
  -1  -2   0  300.57   19.74
   1   2   0  317.59   19.86
   1   2   0  322.03   19.74
  -2  -2   0   23.14    1.76
  -2  -2   0   24.90    1.68
   2   2   0   24.26    1.87
   2   2   0   25.18    1.76
  -3  -2   0   10.64    0.85
   3   2   0    9.57    0.84
   3   2   0   10.11    0.95
  -4  -2   0  164.67   10.09
  -4  -2   0  152.24   10.25
   4   2   0  157.34   10.49
   4   2   0  160.72   10.38
  -5  -2   0   17.66    1.23
  -5  -2   0   18.17    1.47
   5   2   0   18.17    1.62
   5   2   0   16.60    1.49
  -6  -2   0   -0.05    0.28
   6   2   0    0.10    0.53
   6   2   0   -0.05    0.32
  -7  -2   0    0.69    0.37
   7   2   0    0.41    0.42
  -8  -2   0   14.37    1.36
   8   2   0   12.61    1.43
   9  -3   0    3.64    0.52
  -9   3   0    3.78    0.66
   8  -3   0    0.75    0.25
  -8   3   0    1.14    0.48
   7  -3   0    1.85    0.30
   7  -3   0    3.17    0.35
  -7   3   0    2.54    0.53
   6  -3   0   46.36    3.03
   6  -3   0   44.24    3.10
   6  -3   0   50.88    3.10
  -6   3   0   42.10    3.41
   5  -3   0   63.03    4.08
  -5   3   0   60.12    4.36
   4  -3   0   -0.03    0.10
  -4   3   0   -0.02    0.22
   3  -3   0   26.78    1.82
  -3   3   0   24.92    1.65
   2  -3   0  142.50    9.14
   1  -3   0   63.91    4.04
   1  -3   0   61.43    4.15
   0  -3   0   44.81    2.84
   0  -3   0   40.56    2.76
   0   3   0   39.56    2.87
  -1  -3   0    0.73    0.14
   1   3   0    0.85    0.17
   1   3   0    0.70    0.14
  -2  -3   0   46.29    3.03
  -2  -3   0   47.51    3.05
  -2  -3   0   41.60    3.10
   2   3   0   44.19    3.26
   2   3   0   45.26    3.10
  -3  -3   0    1.07    0.18
   3   3   0    1.51    0.34
   3   3   0    1.27    0.24
  -4  -3   0   43.64    3.08
  -4  -3   0   43.21    2.94
   4   3   0   44.33    3.18
   4   3   0   43.96    3.34
  -5  -3   0    1.07    0.22
   5   3   0    1.86    0.45
   5   3   0    0.83    0.43
  -6  -3   0   18.64    1.60
   6   3   0   17.38    1.71
  -7  -3   0   34.97    2.71
   7   3   0   33.93    2.92
   8   3   0   14.34    1.56
  -9   4   0    1.15    0.53
  -8   4   0   17.84    1.75
   7  -4   0   25.89    1.87
  -7   4   0   26.34    2.25
   6  -4   0   18.51    1.38
  -6   4   0   16.86    1.53
   5  -4   0    5.70    0.55
  -5   4   0    5.30    0.69
   4  -4   0    7.26    0.64
  -4   4   0    6.11    0.49
   3  -4   0  149.12    8.89
  -3   4   0  124.74    8.62
   2  -4   0    2.73    0.32
  -2   4   0    2.29    0.30
   1  -4   0  172.87   10.61
   1  -4   0  166.74   10.44
  -1   4   0  154.39   10.55
   0  -4   0    5.13    0.48
   0  -4   0    4.62    0.50
   0   4   0    4.72    0.55
   0   4   0    5.69    0.47
  -1  -4   0   39.53    2.72
  -1  -4   0   35.32    2.68
   1   4   0   37.97    2.86
   1   4   0   41.97    2.68
  -2  -4   0  103.09    6.42
  -2  -4   0   90.25    6.44
   2   4   0   94.89    6.65
   2   4   0  101.73    6.44
  -3  -4   0    4.22    0.47
   3   4   0    3.57    0.49
   3   4   0    4.81    0.61
  -4  -4   0    2.51    0.41
   4   4   0    2.09    0.37
  -5  -4   0    4.22    0.55
   5   4   0    3.27    0.62
   5   4   0    5.41    0.70
  -6  -4   0   36.10    2.67
   6   4   0   31.23    2.94
  -7  -4   0    3.05    0.64
   7   4   0    2.57    0.50
   8  -5   0    0.47    0.31
  -8   5   0    0.89    0.47
   7  -5   0    6.35    0.67
  -7   5   0    6.99    0.88
   6  -5   0   14.90    1.21
  -6   5   0   13.64    1.32
   5  -5   0    1.99    0.34
   4  -5   0   28.83    2.14
   3  -5   0    9.49    0.84
  -3   5   0    8.03    0.69
   2  -5   0    3.82    0.44
   2  -5   0    4.60    0.41
  -2   5   0    3.77    0.43
   1  -5   0  113.40    7.53
   1  -5   0  124.45    7.74
  -1   5   0  114.11    7.70
   0  -5   0   19.41    1.47
   0  -5   0   20.48    1.57
   0   5   0   18.84    1.61
  -1  -5   0    7.83    0.76
  -1  -5   0    8.70    0.78
   1   5   0    8.22    0.81
   1   5   0    7.59    0.85
  -2  -5   0  142.10    8.96
  -2  -5   0  124.34    8.95
   2   5   0  135.27    9.23
   2   5   0  145.72    8.95
  -3  -5   0   15.53    1.33
   3   5   0   17.14    1.37
   3   5   0   17.27    1.64
  -4  -5   0    1.32    0.33
   4   5   0    1.69    0.37
   6   5   0    0.47    0.59
   7   5   0    0.83    0.79
  -9   6   0    2.33    0.58
   8  -6   0    0.23    0.39
  -8   6   0   -0.22    0.47
   7  -6   0    0.65    0.36
  -7   6   0    1.30    0.31
   6  -6   0    2.07    0.36
   5  -6   0   12.79    1.10
  -5   6   0   12.24    0.88
   4  -6   0    0.07    0.21
  -4   6   0   -0.01    0.08
   3  -6   0    1.61    0.30
  -3   6   0    2.08    0.31
   2  -6   0   56.73    3.65
   2  -6   0   55.45    3.84
  -2   6   0   51.92    3.77
   1  -6   0    1.59    0.26
   1  -6   0    0.73    0.21
  -1   6   0    1.20    0.31
   0  -6   0   -0.06    0.16
   0  -6   0   -0.09    0.29
  -1  -6   0   12.80    1.13
  -1  -6   0   11.94    1.14
   1   6   0   15.21    1.13
   1   6   0   12.39    1.29
  -2  -6   0    1.74    0.30
   2   6   0    1.44    0.31
   2   6   0    1.52    0.39
   3   6   0    7.34    0.77
   3   6   0    9.02    1.07
   5   6   0    0.14    0.42
   6   6   0    2.70    0.58
   7  -7   0    1.57    0.48
  -7   7   0    1.85    0.39
   6  -7   0    1.52    0.46
   5  -7   0    0.09    0.41
  -5   7   0    0.40    0.17
   4  -7   0    2.48    0.44
   3  -7   0    6.66    0.60
   3  -7   0    5.38    0.63
  -3   7   0    6.14    0.62
   2  -7   0    4.13    0.44
   2  -7   0    2.71    0.44
  -2   7   0    3.45    0.53
   1  -7   0    2.94    0.37
  -1   7   0    2.41    0.49
   0  -7   0   26.81    2.06
   0  -7   0   27.62    2.12
   0   7   0   27.42    2.22
  -1  -7   0   17.30    1.40
  -1  -7   0   14.12    1.33
   1   7   0   17.49    1.59
   2   7   0    5.63    0.79
   2   7   0    4.70    0.69
   3   7   0   23.47    2.18
   4   7   0   21.23    2.04
   5   7   0    1.02    0.54
  -8   8   0    6.70    0.83
  -7   8   0   -0.03    0.45
   6  -8   0    1.30    0.61
   5  -8   0    5.51    0.92
  -5   8   0    7.84    0.62
   4  -8   0    2.70    0.57
  -4   8   0    3.44    0.41
   3  -8   0    0.73    0.22
   3  -8   0    0.14    0.38
  -3   8   0    0.50    0.24
   2  -8   0    0.46    0.52
   2  -8   0    0.99    0.24
  -2   8   0    1.05    0.27
   1  -8   0    5.03    0.73
   1  -8   0    6.86    0.71
  -1   8   0    7.97    0.90
   0  -8   0    2.32    0.48
   0   8   0    1.77    0.44
  -1  -8   0   24.65    1.99
   1   8   0   26.98    2.30
   2   8   0    0.08    0.37
   3   8   0    2.42    0.63
   4   8   0    1.45    0.76
   6  -9   0   23.10    1.78
   5  -9   0    6.56    0.69
  -5   9   0    6.52    0.65
   4  -9   0    4.07    0.60
  -4   9   0    5.38    0.58
   3  -9   0    0.20    0.55
   3  -9   0    0.03    0.29
  -3   9   0    0.31    0.34
   2  -9   0    0.18    0.57
   2  -9   0    0.20    0.30
  -2   9   0    0.24    0.35
   1  -9   0    1.44    0.36
   0  -9   0    0.57    0.37
   0   9   0   -0.01    0.45
   1   9   0   25.97    2.37
   2   9   0   19.10    1.91
   5 -10   0    3.55    0.69
   4 -10   0    0.26    0.41
  -4  10   0    0.12    0.37
   3 -10   0    1.43    0.43
  -3  10   0    1.40    0.46
   2 -10   0   13.37    1.24
   1 -10   0    3.84    0.77
   0  10   0    5.17    0.97
   0  10  -1    4.20    1.07
   0 -10   1    5.33    0.88
   1 -10   1    6.69    0.90
  -2  10  -1    8.69    1.12
   2 -10   1    9.65    1.02
  -3  10  -1    5.96    0.87
   3 -10   1    6.77    0.80
  -4  10  -1    0.89    0.41
   4 -10   1    0.99    0.45
   5 -10   1   16.52    1.44
   2   9  -1    1.30    0.65
   1   9  -1   11.18    1.30
  -1  -9   1   10.26    1.07
   0   9  -1    7.45    0.98
   0  -9   1    7.87    0.85
  -1   9  -1   14.11    1.33
   1  -9   1   13.61    1.24
  -2   9  -1    6.93    0.81
   2  -9   1    7.31    0.72
  -3   9  -1   25.66    1.98
   3  -9   1   20.99    1.96
   3  -9   1   28.03    1.94
  -4   9  -1   51.10    3.78
   4  -9   1   51.01    4.07
   4  -9   1   63.44    3.88
   5  -9   1    7.44    1.25
   4   8  -1    0.31    0.70
   3   8  -1    3.36    0.66
   2   8  -1    1.13    0.46
  -2  -8   1    1.10    0.42
   1   8  -1   -0.25    0.42
  -1  -8   1    0.58    0.33
   0   8  -1    1.89    0.43
   0  -8   1    0.70    0.58
   0  -8   1    2.73    0.43
  -1   8  -1    9.54    1.03
   1  -8   1   10.35    0.93
   1  -8   1    7.93    0.89
  -2   8  -1    0.03    0.29
   2  -8   1    0.43    0.22
   2  -8   1    0.27    0.39
  -3   8  -1    8.32    0.87
   3  -8   1    9.71    0.85
  -4   8  -1   28.65    2.25
   4  -8   1   29.80    2.43
   4  -8   1   37.04    2.36
   5  -8   1    0.11    0.44
   6  -8   1   23.50    2.03
  -7   8  -1    1.15    0.56
  -8   8  -1    6.11    0.96
   5   7  -1    0.77    0.67
   4   7  -1   40.26    3.32
   2   7  -1    0.63    0.37
   2   7  -1    0.31    0.44
  -2  -7   1    1.12    0.32
   1   7  -1    8.81    1.02
  -1  -7   1    9.74    0.90
  -1  -7   1    6.60    0.89
   0   7  -1    4.03    0.63
   0  -7   1    4.46    0.52
   0  -7   1    3.24    0.64
  -1   7  -1    9.60    0.99
   1  -7   1    9.39    0.86
   1  -7   1    9.22    0.88
  -2   7  -1    4.80    0.61
   2  -7   1    4.28    0.53
   2  -7   1    4.82    0.48
  -3   7  -1    3.61    0.48
   3  -7   1    2.85    0.61
   3  -7   1    4.35    0.47
  -4   7  -1    1.92    0.32
   4  -7   1    1.70    0.41
   5  -7   1   19.04    1.61
   6  -7   1   12.49    1.13
  -7   7  -1    2.29    0.51
   7  -7   1    1.61    0.52
   6   6  -1    5.83    0.89
   5   6  -1    9.48    1.09
   4   6  -1    0.09    0.63
   3   6  -1    3.07    0.45
   3   6  -1    2.70    0.66
  -3  -6   1    1.88    0.42
  -3  -6   1    3.88    0.56
   2   6  -1   84.21    5.91
  -2  -6   1   78.35    5.63
  -2  -6   1   85.34    5.59
   1   6  -1   34.36    2.74
  -1  -6   1   35.96    2.58
  -1  -6   1   33.20    2.53
   0   6  -1   17.68    1.59
   0  -6   1   18.37    1.45
   0  -6   1   19.16    1.53
  -1   6  -1   21.58    1.81
   1  -6   1   22.08    1.65
   1  -6   1   23.76    1.80
  -2   6  -1   69.53    5.13
   2  -6   1   80.88    5.26
   2  -6   1   79.32    5.05
  -3   6  -1    5.55    0.56
   3  -6   1    4.74    0.58
  -4   6  -1    0.07    0.10
   4  -6   1   -0.09    0.22
   5  -6   1   10.67    1.00
   6  -6   1    1.14    0.33
  -7   6  -1    6.55    0.86
   7  -6   1    5.88    0.73
  -8   6  -1    0.06    0.35
   8  -6   1   -0.09    0.45
  -9   6  -1   -0.77    0.56
   7   5  -1   20.05    1.98
   6   5  -1   14.14    1.58
   5   5  -1    5.51    1.00
   4   5  -1   11.67    1.21
   4   5  -1   10.15    1.06
  -4  -5   1   10.00    0.94
   3   5  -1   46.50    3.10
   3   5  -1   40.52    3.32
  -3  -5   1   43.03    3.01
  -3  -5   1   40.68    3.13
   2   5  -1    0.48    0.23
   2   5  -1    0.55    0.20
  -2  -5   1    0.41    0.23
  -2  -5   1    0.81    0.19
   1   5  -1   12.81    1.24
   1   5  -1   15.37    1.12
  -1  -5   1   13.84    1.12
  -1  -5   1   11.79    1.07
   0   5  -1   37.24    2.83
   0  -5   1   37.28    2.67
   0  -5   1   40.71    2.75
  -1   5  -1    5.25    0.58
   1  -5   1    4.68    0.56
   1  -5   1    5.75    0.51
   2  -5   1    0.06    0.20
   3  -5   1    0.00    0.15
  -4   5  -1    0.16    0.05
  -4   5  -1    0.17    0.07
   4  -5   1    0.16    0.20
   5  -5   1    3.22    0.45
  -6   5  -1   11.55    1.21
   6  -5   1   13.72    1.12
  -7   5  -1    2.49    0.46
   7  -5   1    1.83    0.31
  -8   5  -1    2.72    0.64
   8  -5   1    2.42    0.39
   7   4  -1    0.99    0.57
  -7  -4   1    1.49    0.40
   6   4  -1   25.30    2.80
  -6  -4   1   32.02    2.38
   5   4  -1    2.44    0.57
   5   4  -1    0.69    0.52
  -5  -4   1    1.50    0.26
   4   4  -1   32.15    2.69
   4   4  -1   33.22    2.47
  -4  -4   1   31.32    2.28
  -4  -4   1   33.73    2.42
   3   4  -1    5.16    0.63
   3   4  -1    3.88    0.46
  -3  -4   1    4.04    0.48
  -3  -4   1    4.34    0.52
   2   4  -1    1.01    0.24
   2   4  -1    1.09    0.20
  -2  -4   1    0.94    0.19
  -2  -4   1    1.19    0.24
   1   4  -1    0.23    0.10
   1   4  -1    0.36    0.13
  -1  -4   1    0.19    0.11
  -1  -4   1    0.03    0.11
   0  -4   1  141.12    8.57
   0  -4   1  123.03    8.45
   1  -4   1   44.01    3.12
   1  -4   1   47.11    3.04
  -2   4  -1    2.64    0.39
   2  -4   1    2.41    0.29
  -3   4  -1  146.29    9.81
   3  -4   1  158.28    9.85
  -4   4  -1   29.46    2.29
  -4   4  -1   33.37    2.17
   4  -4   1   36.25    2.38
  -5   4  -1    7.14    0.78
  -5   4  -1    6.78    0.61
  -5   4  -1    6.79    0.54
   5  -4   1    7.65    0.69
  -6   4  -1   50.24    3.84
   6  -4   1   53.28    3.54
  -7   4  -1    1.34    0.44
   7  -4   1    0.53    0.23
  -8   4  -1    2.71    0.55
  -9   4  -1    3.82    0.66
   8   3  -1    0.70    0.68
  -8  -3   1    0.46    0.40
   7   3  -1    9.80    1.32
  -7  -3   1   11.62    1.13
   6   3  -1    1.23    0.41
   6   3  -1    0.13    0.60
  -6  -3   1    1.09    0.30
   5   3  -1    2.55    0.45
  -5  -3   1    2.53    0.42
   4   3  -1   -0.03    0.21
   4   3  -1   -0.03    0.24
  -4  -3   1    0.18    0.20
  -4  -3   1    0.04    0.15
   3   3  -1    2.56    0.40
   3   3  -1    2.36    0.31
  -3  -3   1    2.63    0.32
  -3  -3   1    2.82    0.36
  -3  -3   1    3.33    0.39
   2   3  -1   16.13    1.42
   2   3  -1   16.92    1.29
  -2  -3   1   17.57    1.25
  -2  -3   1   15.40    1.30
  -2  -3   1   17.19    1.25
   1   3  -1   45.51    2.85
   1   3  -1   39.76    2.97
  -1  -3   1   39.06    2.85
  -1  -3   1   43.65    2.85
   0   3  -1   83.57    5.46
   0  -3   1   81.98    5.39
   0  -3   1   85.35    5.46
   1  -3   1   15.90    1.20
  -2   3  -1    1.08    0.18
   2  -3   1    1.17    0.19
  -3   3  -1   14.32    1.12
  -3   3  -1   14.96    1.04
   3  -3   1   15.13    1.13
  -4   3  -1    4.04    0.46
  -4   3  -1    3.25    0.32
  -4   3  -1    3.43    0.39
   4  -3   1    3.00    0.34
  -5   3  -1    3.16    0.50
  -5   3  -1    2.84    0.31
  -5   3  -1    2.50    0.33
   5  -3   1    2.47    0.30
  -6   3  -1   -0.28    0.33
   6  -3   1   -0.01    0.14
   6  -3   1   -0.02    0.11
   6  -3   1    0.15    0.13
  -7   3  -1   -0.14    0.29
   7  -3   1   -0.03    0.17
   7  -3   1    0.03    0.16
  -8   3  -1    2.29    0.45
   8  -3   1    1.57    0.27
  -9   3  -1    2.23    0.53
   9  -3   1    2.27    0.52
   8   2  -1   40.22    3.30
  -8  -2   1   40.34    3.15
   7   2  -1    5.34    0.86
  -7  -2   1    5.92    0.76
   6   2  -1   -0.19    0.46
   6   2  -1    0.09    0.32
   6   2  -1    0.12    0.37
  -6  -2   1    0.23    0.22
   5   2  -1  132.79    9.08
   5   2  -1  138.09    8.96
  -5  -2   1  133.24    8.86
   4   2  -1   15.71    1.29
   4   2  -1   16.09    1.45
  -4  -2   1   15.42    1.26
   3   2  -1    5.32    0.55
   3   2  -1    5.66    0.66
  -3  -2   1    5.92    0.47
  -3  -2   1    6.19    0.54
  -3  -2   1    5.22    0.56
   2   2  -1    5.88    0.64
   2   2  -1    5.21    0.53
  -2  -2   1    5.73    0.51
  -2  -2   1    5.23    0.56
  -2  -2   1    5.71    0.50
   1   2  -1    0.02    0.07
  -1  -2   1   -0.01    0.06
  -1  -2   1   -0.03    0.06
   0   2  -1    4.59    0.41
   0  -2   1    5.04    0.40
   0  -2   1    5.03    0.42
  -1   2  -1  520.04   34.32
   1  -2   1  563.70   34.42
  -2   2  -1   -0.01    0.05
  -2   2  -1    0.00    0.04
   2  -2   1    0.02    0.05
  -3   2  -1    0.38    0.09
   3  -2   1    0.50    0.10
   3  -2   1    0.53    0.07
   3  -2   1    0.43    0.08
  -4   2  -1  182.99   12.27
  -4   2  -1  170.57   12.06
  -4   2  -1  191.35   12.06
   4  -2   1  208.76   12.10
   4  -2   1  196.38   11.98
   4  -2   1  190.48   12.05
  -5   2  -1   10.82    0.94
  -5   2  -1   11.17    0.86
  -5   2  -1   11.56    1.05
   5  -2   1   13.00    0.97
   5  -2   1   11.05    0.85
  -6   2  -1    4.65    0.45
  -6   2  -1    5.84    0.72
   6  -2   1    6.20    0.60
   6  -2   1    4.43    0.47
  -7   2  -1   24.10    2.14
   7  -2   1   23.40    1.78
   7  -2   1   27.76    1.95
  -8   2  -1   30.04    2.42
   8  -2   1   30.79    2.17
   8  -2   1   24.87    2.00
  -9   2  -1    3.26    0.60
   9  -2   1    2.86    0.66
   9   1  -1    0.36    0.59
  -9  -1   1   -0.37    0.55
   8   1  -1    0.36    0.43
  -8  -1   1    0.63    0.41
   7   1  -1    2.81    0.54
  -7  -1   1    2.54    0.54
   6   1  -1    0.40    0.44
   6   1  -1    1.17    0.34
   6   1  -1    2.11    0.40
  -6  -1   1    1.58    0.34
   5   1  -1    0.69    0.25
   5   1  -1    0.75    0.22
   5   1  -1    0.83    0.24
  -5  -1   1    0.82    0.22
   4   1  -1   62.08    4.19
   4   1  -1   61.75    4.27
  -4  -1   1   59.74    4.14
   3   1  -1   13.39    1.11
   3   1  -1   14.49    1.21
  -3  -1   1   14.90    0.95
   2   1  -1   13.29    1.05
   2   1  -1   13.08    0.98
  -2  -1   1   12.33    0.94
  -2  -1   1   11.93    0.98
  -2  -1   1   13.61    0.87
   1   1  -1    0.04    0.06
   1   1  -1   -0.06    0.04
  -1  -1   1    0.00    0.06
  -1  -1   1    0.00    0.05
   0   1  -1  121.49    7.83
   0  -1   1  125.12    7.83
  -1   1  -1   18.37    1.17
   1  -1   1   16.20    1.16
  -2   1  -1   17.23    1.24
  -2   1  -1   15.71    1.18
   2  -1   1   17.89    1.19
   2  -1   1   16.20    1.16
  -3   1  -1    2.32    0.30
  -3   1  -1    1.52    0.19
  -3   1  -1    1.88    0.20
   3  -1   1    1.79    0.20
   3  -1   1    2.34    0.30
  -4   1  -1    0.88    0.18
  -4   1  -1    1.19    0.27
  -4   1  -1    0.76    0.15
   4  -1   1    1.22    0.23
   4  -1   1    0.78    0.15
  -5   1  -1   23.55    1.58
  -5   1  -1   21.77    1.75
  -5   1  -1   23.47    1.85
   5  -1   1   23.36    1.66
   5  -1   1   24.34    1.80
  -6   1  -1    0.01    0.30
  -6   1  -1    0.00    0.11
   6  -1   1    0.02    0.19
   6  -1   1    0.16    0.21
  -7   1  -1    0.03    0.34
   7  -1   1    0.06    0.30
   7  -1   1   -0.30    0.60
   7  -1   1    0.31    0.24
  -8   1  -1    1.37    0.40
   8  -1   1    0.78    0.40
  -9   1  -1    0.45    0.52
   9  -1   1    0.28    0.45
   9   0  -1    1.22    0.50
  -9   0   1    1.30    0.51
   8   0  -1    4.44    0.63
  -8   0   1    3.83    0.59
   7   0  -1   47.25    3.34
   7   0  -1   47.54    3.48
   7   0  -1   47.11    3.53
  -7   0   1   45.65    3.48
   6   0  -1   -0.03    0.25
   6   0  -1    0.00    0.27
   6   0  -1    0.04    0.22
  -6   0   1   -0.06    0.21
   5   0  -1   29.80    2.24
   5   0  -1   30.16    2.13
   5   0  -1   30.45    2.24
  -5   0   1   27.54    2.18
   4   0  -1  124.40    7.64
   4   0  -1  123.27    7.73
   4   0  -1  114.91    7.70
  -4   0   1  108.74    7.67
   3   0  -1  109.74    6.68
   3   0  -1  101.60    6.71
   3   0  -1  104.49    6.73
  -3   0   1   98.19    6.70
   2   0  -1   67.21    4.11
   2   0  -1   63.03    4.12
   2   0  -1   63.07    4.13
  -2   0   1   60.01    4.11
   1   0  -1   23.00    1.55
   1   0  -1   24.89    1.56
  -1   0   1   22.18    1.55
  -1   0   1   24.11    1.56
  -1   0   1   21.76    1.55
  -1   0  -1    5.11    0.43
  -1   0  -1    5.55    0.47
   1   0   1    5.39    0.46
  -2   0  -1   37.83    2.58
  -2   0  -1   39.95    2.64
  -3   0  -1    0.90    0.17
  -3   0  -1    1.05    0.13
  -3   0  -1    1.23    0.23
  -4   0  -1    1.16    0.24
  -4   0  -1    0.59    0.16
  -4   0  -1    0.81    0.13
  -5   0  -1   83.00    6.00
  -5   0  -1   83.14    5.96
  -5   0  -1   93.84    5.68
   5   0   1   94.80    6.09
   5   0   1   90.38    6.02
  -6   0  -1   14.14    1.27
   6   0   1   14.93    1.24
   6   0   1   12.98    1.09
   6   0   1   11.26    1.16
  -7   0  -1    0.12    0.27
   7   0   1    0.07    0.28
   7   0   1    0.03    0.37
  -8   0  -1    6.88    0.92
   8   0   1    7.80    0.90
   9  -1  -1    0.23    0.65
   9  -1  -1    0.27    0.42
  -9   1   1    0.53    0.51
   8  -1  -1    0.12    0.41
   8  -1  -1    0.38    0.30
  -8   1   1    0.53    0.43
   7  -1  -1    1.45    0.40
   7  -1  -1    2.30    0.36
  -7   1   1    2.69    0.54
   6  -1  -1    0.49    0.19
   6  -1  -1    0.04    0.34
  -6   1   1    0.35    0.28
   5  -1  -1    0.30    0.13
   5  -1  -1    0.38    0.16
   5  -1  -1    0.08    0.23
  -5   1   1    0.56    0.18
   4  -1  -1   38.79    2.70
   4  -1  -1   41.48    2.79
   4  -1  -1   41.85    2.69
   4  -1  -1   39.02    2.56
  -4   1   1   36.89    2.79
   3  -1  -1   33.97    2.10
   3  -1  -1   34.07    2.17
   3  -1  -1   30.68    2.16
  -3   1   1   30.15    2.25
   2  -1  -1  440.70   25.88
   2  -1  -1  431.06   26.03
   2  -1  -1  396.40   26.00
  -2   1   1  391.99   25.99
  -2   1   1  389.27   25.75
   0  -1  -1   83.10    5.21
   0   1   1   79.57    5.15
   0   1   1   81.98    5.20
  -1  -1  -1    0.66    0.10
  -1  -1  -1    0.61    0.10
   1   1   1    0.71    0.11
  -2  -1  -1  115.52    7.40
  -2  -1  -1  109.97    7.25
   2   1   1  116.00    7.40
  -3  -1  -1  133.86    8.76
  -3  -1  -1  123.82    8.62
   3   1   1  135.35    8.77
   3   1   1  144.18    8.75
  -4  -1  -1    0.39    0.18
   4   1   1   -0.01    0.16
   4   1   1    0.14    0.16
  -5  -1  -1    8.36    0.62
  -5  -1  -1    8.16    0.80
   5   1   1    8.57    0.88
   5   1   1    6.16    0.79
  -6  -1  -1   25.17    1.92
  -6  -1  -1   23.21    1.52
   6   1   1   20.02    1.83
   6   1   1   24.06    1.99
  -7  -1  -1    2.07    0.41
   7   1   1    0.64    0.51
   7   1   1    1.50    0.36
  -8  -1  -1    6.13    0.85
   8   1   1    6.41    0.89
   9  -2  -1    3.83    0.61
  -9   2   1    3.59    0.76
   8  -2  -1    5.77    0.70
   8  -2  -1    8.29    0.76
  -8   2   1    7.07    0.86
   7  -2  -1    2.16    0.37
   7  -2  -1    2.23    0.48
   6  -2  -1   53.73    3.69
   6  -2  -1   58.72    3.92
   6  -2  -1   55.46    3.67
  -6   2   1   51.34    3.95
   5  -2  -1   10.24    0.80
   5  -2  -1    9.07    0.74
   5  -2  -1    9.02    0.71
  -5   2   1    8.73    0.91
   4  -2  -1   18.52    1.30
   4  -2  -1   18.94    1.32
   4  -2  -1   20.01    1.33
  -4   2   1   17.88    1.49
   3  -2  -1   76.34    4.62
   3  -2  -1   77.16    4.57
   3  -2  -1   75.51    4.67
  -3   2   1   65.49    4.78
  -3   2   1   65.70    4.61
   2  -2  -1  285.83   17.97
  -2   2   1  284.98   18.12
   1  -2  -1   25.31    1.69
  -1   2   1   25.42    1.69
   0  -2  -1   30.51    2.04
   0  -2  -1   30.76    2.13
   0   2   1   30.29    2.12
   0   2   1   32.39    2.03
  -1  -2  -1  216.24   12.14
  -1  -2  -1  182.97   12.27
   1   2   1  183.20   12.28
   1   2   1  186.06   12.17
  -2  -2  -1   98.49    6.70
  -2  -2  -1  101.93    6.50
   2   2   1  103.75    6.61
   2   2   1  101.26    6.72
  -3  -2  -1   84.99    5.34
  -3  -2  -1   75.29    5.69
   3   2   1   79.16    5.59
   3   2   1   85.78    5.58
  -4  -2  -1    4.14    0.46
   4   2   1    3.86    0.55
   4   2   1    2.97    0.40
  -5  -2  -1    9.18    0.80
   5   2   1    6.31    0.83
   5   2   1    8.11    0.89
  -6  -2  -1    8.28    0.86
  -6  -2  -1    6.41    0.59
   6   2   1    8.57    0.97
  -7  -2  -1   27.82    2.20
   7   2   1   26.03    2.34
  -8  -2  -1    5.56    0.82
   8   2   1    5.58    0.90
  -9   3   1   13.50    1.55
   8  -3  -1   12.78    0.99
  -8   3   1   11.08    1.30
   7  -3  -1    0.82    0.17
   7  -3  -1    0.70    0.15
   7  -3  -1    0.53    0.19
   7  -3  -1    0.27    0.43
  -7   3   1    0.34    0.37
   6  -3  -1   16.95    1.24
   6  -3  -1   18.39    1.22
   6  -3  -1   16.16    1.25
  -6   3   1   17.77    1.58
   5  -3  -1   49.31    3.25
  -5   3   1   47.45    3.51
   4  -3  -1    0.56    0.11
  -4   3   1    0.76    0.25
   3  -3  -1    0.88    0.18
  -3   3   1    1.10    0.14
   2  -3  -1    2.51    0.27
  -2   3   1    2.28    0.22
   1  -3  -1    7.52    0.53
  -1   3   1    6.70    0.58
   0   3   1   65.81    4.62
   0   3   1   73.21    4.49
  -1  -3  -1   12.54    1.03
   1   3   1   13.78    1.03
   1   3   1   14.07    1.17
  -2  -3  -1   15.18    1.11
   2   3   1   13.89    1.30
   2   3   1   15.71    1.19
  -3  -3  -1   78.37    5.15
   3   3   1   76.99    5.45
   3   3   1   79.08    5.28
  -4  -3  -1   53.91    3.63
   4   3   1   52.51    3.90
   4   3   1   50.80    3.70
  -5  -3  -1    0.09    0.25
  -5  -3  -1    0.02    0.24
   5   3   1   -0.11    0.32
   5   3   1   -0.02    0.34
  -6  -3  -1    8.70    0.97
   6   3   1    9.47    1.08
  -7  -3  -1   28.23    2.27
   7   3   1   26.41    2.43
   8   3   1    5.53    1.11
  -9   4   1    6.99    1.00
   8  -4  -1   16.03    1.29
  -8   4   1   17.30    1.64
   7  -4  -1   10.96    0.92
  -7   4   1   12.36    1.18
   6  -4  -1    2.10    0.33
  -6   4   1    2.73    0.42
   5  -4  -1   12.69    1.02
  -5   4   1   12.38    0.92
  -5   4   1   11.79    1.13
   4  -4  -1    3.76    0.40
  -4   4   1    4.44    0.42
   3  -4  -1   24.00    1.72
  -3   4   1   21.94    1.48
   2  -4  -1   32.09    2.20
  -2   4   1   28.92    2.07
   1  -4  -1   96.54    5.92
   1  -4  -1   84.88    5.80
  -1   4   1   86.68    5.85
   0  -4  -1   11.41    0.98
   0  -4  -1   11.41    0.93
   0   4   1   11.97    1.06
   0   4   1   13.38    0.93
  -1  -4  -1    1.80    0.25
   1   4   1    1.18    0.20
   1   4   1    1.23    0.28
   2   4   1   41.93    2.91
   2   4   1   40.88    3.11
  -3  -4  -1    9.56    0.87
   3   4   1    9.73    0.92
   3   4   1   10.41    1.07
  -4  -4  -1    1.36    0.29
   4   4   1    1.72    0.35
   4   4   1    1.17    0.30
  -5  -4  -1    3.31    0.57
   5   4   1    2.53    0.53
  -6  -4  -1   -0.05    0.34
   6   4   1    0.10    0.37
  -7  -4  -1   -0.11    0.42
   7   4   1   -0.16    0.49
   8  -5  -1   16.66    1.29
   8  -5  -1   14.09    1.48
  -8   5   1   15.80    1.58
   7  -5  -1   26.46    1.92
  -7   5   1   23.74    2.17
   6  -5  -1    0.01    0.24
  -6   5   1    0.10    0.24
   5  -5  -1   21.51    1.63
  -5   5   1   19.86    1.43
   4  -5  -1   31.16    2.30
  -4   5   1   31.33    2.10
   3  -5  -1   15.83    1.26
  -3   5   1   14.38    1.07
   2  -5  -1   29.08    1.96
   2  -5  -1   30.02    2.17
  -2   5   1   27.94    2.07
   1  -5  -1    4.89    0.45
  -1   5   1    4.24    0.52
   0  -5  -1    4.94    0.49
   0  -5  -1    3.98    0.50
   0   5   1    5.88    0.51
   0   5   1    5.17    0.61
  -1  -5  -1   57.43    3.77
  -1  -5  -1   51.33    3.70
   1   5   1   53.55    3.81
   1   5   1   53.21    3.92
  -2  -5  -1  124.63    8.42
   2   5   1  125.07    8.72
   2   5   1  136.31    8.45
  -3  -5  -1    1.15    0.32
   3   5   1    1.62    0.32
   4   5   1   31.93    2.70
   4   5   1   30.52    2.42
   5   5   1   72.21    5.38
   6   5   1    1.40    0.62
  -9   6   1   13.87    1.52
   8  -6  -1    0.17    0.41
  -8   6   1    1.42    0.47
   7  -6  -1    0.56    0.34
  -7   6   1    1.01    0.39
   6  -6  -1    1.48    0.33
   5  -6  -1   28.16    2.13
  -5   6   1   26.74    1.86
   4  -6  -1    5.29    0.57
  -4   6   1    5.08    0.38
   3  -6  -1   12.29    0.85
   3  -6  -1    9.42    0.93
  -3   6   1   10.30    0.87
   2  -6  -1   28.00    1.90
   2  -6  -1   27.20    2.10
  -2   6   1   26.25    2.02
   1  -6  -1    0.78    0.17
   1  -6  -1    0.68    0.28
  -1   6   1    0.77    0.22
   0  -6  -1   95.17    6.13
   0  -6  -1   85.66    5.97
   0   6   1   91.28    6.24
  -1  -6  -1   12.71    1.12
  -1  -6  -1   11.38    1.13
   1   6   1   12.89    1.30
   1   6   1   14.39    1.06
  -2  -6  -1   25.95    2.13
   2   6   1   28.87    2.10
   2   6   1   28.33    2.40
   3   6   1   10.04    1.10
   3   6   1    8.88    0.98
   4   6   1    0.12    0.48
   5   6   1    6.02    0.84
   6   6   1    1.64    0.75
  -8   7   1    0.82    0.45
   7  -7  -1    8.78    0.93
  -7   7   1    8.81    1.01
   6  -7  -1   21.69    1.79
   5  -7  -1   19.26    1.62
  -5   7   1   18.94    1.37
   4  -7  -1   26.21    2.20
   4  -7  -1   31.65    2.04
   3  -7  -1   64.11    4.09
   3  -7  -1   57.66    4.50
  -3   7   1   62.62    4.17
   2  -7  -1    9.18    0.79
   2  -7  -1    8.91    0.88
  -2   7   1    9.12    0.92
   1  -7  -1   16.32    1.29
   1  -7  -1   16.38    1.40
  -1   7   1   16.86    1.45
   0  -7  -1   38.08    2.76
   0  -7  -1   37.74    2.85
   0   7   1   40.55    3.01
   1   7   1   24.04    1.75
   1   7   1   21.29    1.97
   2   7   1    0.10    0.42
   2   7   1    0.13    0.30
   3   7   1    0.90    0.36
   4   7   1    0.65    0.60
   5   7   1   22.35    2.21
  -8   8   1    0.96    0.51
  -7   8   1    2.26    0.49
  -6   8   1    3.06    0.40
   5  -8  -1    3.85    0.48
  -5   8   1    4.15    0.45
   4  -8  -1   12.08    0.91
   4  -8  -1    9.08    1.10
  -4   8   1   10.91    0.90
   3  -8  -1   -0.20    0.50
   3  -8  -1   -0.03    0.20
  -3   8   1   -0.23    0.23
   2  -8  -1    2.83    0.40
  -2   8   1    1.99    0.48
   1  -8  -1   42.93    3.30
   1  -8  -1   43.50    3.11
  -1   8   1   46.02    3.39
   0  -8  -1   -0.01    0.72
   0  -8  -1    0.20    0.28
   0   8   1    0.00    0.34
   1   8   1    5.83    0.87
   2   8   1   16.01    1.64
   3   8   1    1.64    0.61
   4   8   1    0.38    0.78
  -7   9   1    2.52    0.56
   6  -9  -1   11.80    0.94
  -6   9   1    9.74    0.88
   5  -9  -1    0.20    0.75
   5  -9  -1    0.89    0.29
   4  -9  -1    0.40    0.75
   4  -9  -1    0.48    0.27
  -4   9   1    0.65    0.25
   3  -9  -1    7.38    0.75
  -3   9   1    7.78    0.84
   2  -9  -1   20.46    1.55
  -2   9   1   18.99    1.68
   1  -9  -1   42.85    3.10
  -1   9   1   43.98    3.33
   0   9   1    1.20    0.49
   1   9   1    3.52    0.85
   2   9   1    8.05    1.17
  -5  10   1   24.18    1.83
   4 -10  -1    0.81    0.38
  -4  10   1    0.85    0.36
   3 -10  -1    0.02    0.39
  -3  10   1    0.49    0.43
   2 -10  -1    4.99    0.72
  -2  10   1    4.29    0.83
  -1  10   1    8.61    1.24
   0  10   1    5.05    1.01
   0  10  -2    3.21    0.72
   0 -10   2    3.12    0.62
  -1  10  -2    5.96    0.96
   1 -10   2    6.97    0.92
  -2  10  -2    1.27    0.50
   2 -10   2    1.13    0.44
  -3  10  -2    0.87    0.49
   3 -10   2    1.48    0.48
  -4  10  -2    1.04    0.44
   4 -10   2    1.12    0.48
   5 -10   2    9.19    1.03
   2   9  -2    3.43    0.69
  -2  -9   2    4.96    0.83
   1   9  -2    0.34    0.55
  -1  -9   2    0.30    0.45
   0   9  -2    8.77    1.11
   0  -9   2    9.34    0.98
  -1   9  -2   17.67    1.68
   1  -9   2   16.22    1.44
  -2   9  -2    0.32    0.41
   2  -9   2    0.98    0.35
  -3   9  -2   -0.23    0.35
   3  -9   2   -0.10    0.34
   3  -9   2   -0.01    0.58
  -4   9  -2   -0.26    0.33
   4  -9   2    0.35    0.35
   4  -9   2    0.24    0.82
  -5   9  -2    0.50    0.26
   5  -9   2    0.03    0.41
   5  -9   2   -0.25    0.83
   4   8  -2   -0.20    0.53
   3   8  -2   28.01    2.51
  -3  -8   2   26.76    2.27
   2   8  -2    0.22    0.47
  -2  -8   2    0.43    0.40
   1   8  -2   18.39    1.75
  -1  -8   2   19.06    1.60
   0  -8   2    0.09    0.29
  -1   8  -2   -0.23    0.32
   1  -8   2   -0.03    0.55
   1  -8   2    0.14    0.26
  -2   8  -2    2.90    0.57
   2  -8   2    2.90    0.49
  -3   8  -2   16.65    1.45
   3  -8   2   14.27    1.45
   3  -8   2   19.43    1.39
  -4   8  -2    4.50    0.55
   4  -8   2    3.58    0.65
   5  -8   2    4.76    0.93
   6  -8   2   28.28    2.29
   5   7  -2    0.19    0.70
   4   7  -2   -0.32    0.56
  -3  -7   2    3.67    0.63
   2   7  -2   25.09    2.24
  -2  -7   2   25.90    2.07
   1   7  -2   14.16    1.42
  -1  -7   2   14.11    1.24
  -1  -7   2   13.00    1.21
   0   7  -2    0.13    0.28
   0  -7   2    0.24    0.29
   0  -7   2    0.31    0.22
  -1   7  -2   23.83    1.98
   1  -7   2   24.47    1.97
   1  -7   2   25.52    1.88
  -2   7  -2   44.73    3.38
   2  -7   2   49.01    3.32
   2  -7   2   48.79    3.48
  -3   7  -2    2.32    0.40
   3  -7   2    1.79    0.42
   3  -7   2    2.75    0.37
  -4   7  -2    0.56    0.19
  -5   7  -2    7.83    0.62
   5  -7   2    8.10    0.94
   6  -7   2   21.51    1.80
  -7   7  -2   22.24    2.08
   7  -7   2   23.56    1.94
  -8   7  -2   -0.21    0.54
   6   6  -2    0.00    0.70
   5   6  -2   51.31    4.11
   4   6  -2    2.28    0.49
   3   6  -2    0.01    0.44
   3   6  -2    0.35    0.27
  -3  -6   2    0.47    0.31
  -3  -6   2    0.22    0.35
   2   6  -2   41.67    2.75
   2   6  -2   36.05    2.98
  -2  -6   2   36.36    2.70
  -2  -6   2   35.69    2.77
   1   6  -2   20.29    1.77
  -1  -6   2   19.80    1.59
  -1  -6   2   19.31    1.59
   0   6  -2    0.07    0.20
   0  -6   2    0.10    0.28
   0  -6   2   -0.09    0.17
   1  -6   2    0.51    0.15
   1  -6   2    0.16    0.27
   2  -6   2    1.72    0.27
   3  -6   2    4.06    0.55
  -4   6  -2   37.93    2.60
  -4   6  -2   37.50    2.44
   4  -6   2   40.51    2.85
  -5   6  -2    0.62    0.12
   5  -6   2    0.41    0.33
   6  -6   2    6.69    0.77
  -7   6  -2   48.87    4.09
   7  -6   2   62.08    3.97
  -8   6  -2    2.71    0.54
   8  -6   2    1.17    0.87
   7   5  -2    5.85    1.17
   6   5  -2   14.51    1.60
   5   5  -2    0.10    0.33
   4   5  -2   14.93    1.38
   4   5  -2   17.83    1.69
  -4  -5   2   17.25    1.48
  -4  -5   2   15.38    1.29
   3   5  -2   10.10    1.08
   3   5  -2   10.43    0.92
  -3  -5   2   10.16    0.96
  -3  -5   2   10.23    0.92
   2   5  -2    0.36    0.23
   2   5  -2    0.45    0.18
  -2  -5   2    0.40    0.20
  -2  -5   2    0.16    0.21
   1   5  -2   10.03    1.03
  -1  -5   2   10.26    0.90
  -1  -5   2    9.87    0.89
   0  -5   2    0.02    0.15
   0  -5   2    0.03    0.13
  -1   5  -2    4.67    0.55
   1  -5   2    4.82    0.47
   1  -5   2    4.43    0.52
  -2   5  -2   17.40    1.37
   2  -5   2   16.21    1.34
  -3   5  -2   20.86    1.65
   3  -5   2   20.40    1.62
  -4   5  -2    0.10    0.10
  -4   5  -2    0.11    0.19
   4  -5   2    0.03    0.21
  -5   5  -2    0.67    0.23
  -5   5  -2    0.87    0.17
   5  -5   2    1.00    0.25
  -6   5  -2   17.02    1.22
  -6   5  -2   17.82    1.61
   6  -5   2   18.37    1.43
   7  -5   2    2.13    0.32
  -8   5  -2    1.49    0.50
  -9   5  -2    0.58    0.59
   7   4  -2   15.44    1.72
  -7  -4   2   19.88    1.71
   6   4  -2    0.51    0.47
   5   4  -2    1.02    0.29
   5   4  -2    0.30    0.38
  -5  -4   2    1.14    0.28
   4   4  -2  299.39   20.02
   4   4  -2  333.84   19.82
  -4  -4   2  318.29   19.49
  -4  -4   2  313.02   19.68
  -4  -4   2  276.67   19.77
   3   4  -2   50.65    3.39
   3   4  -2   46.07    3.60
  -3  -4   2   44.32    3.41
  -3  -4   2   50.47    3.26
   2   4  -2    3.08    0.38
   2   4  -2    4.14    0.52
  -2  -4   2    3.54    0.40
  -2  -4   2    4.51    0.49
   1   4  -2  246.72   13.81
  -1  -4   2  185.35   13.74
   0   4  -2    2.90    0.37
   0  -4   2    2.88    0.32
   0  -4   2    2.39    0.33
  -1   4  -2   10.59    0.90
   1  -4   2   10.15    0.87
  -2   4  -2    0.08    0.10
   2  -4   2   -0.08    0.14
  -3   4  -2   18.56    1.47
  -3   4  -2   20.81    1.42
   3  -4   2   20.12    1.52
  -4   4  -2    0.02    0.09
  -4   4  -2    0.06    0.16
   4  -4   2   -0.01    0.17
  -5   4  -2   98.90    6.93
  -5   4  -2   96.88    6.58
   5  -4   2  111.37    6.75
  -6   4  -2   10.84    0.88
  -6   4  -2   10.36    1.14
  -6   4  -2   11.31    0.96
   6  -4   2   11.53    0.95
  -7   4  -2    3.58    0.69
  -8   4  -2   39.50    3.23
   8   3  -2    0.10    0.67
  -8  -3   2    0.45    0.41
   7   3  -2    3.41    0.78
  -7  -3   2    4.04    0.63
   6   3  -2   19.36    1.87
  -6  -3   2   19.83    1.68
   5   3  -2    1.42    0.35
   5   3  -2    0.76    0.41
  -5  -3   2    1.20    0.18
  -5  -3   2    1.57    0.32
   4   3  -2   -0.06    0.26
   4   3  -2   -0.15    0.24
  -4  -3   2    0.02    0.15
  -4  -3   2    0.03    0.12
  -4  -3   2   -0.24    0.19
   3   3  -2    3.01    0.35
   3   3  -2    3.36    0.45
  -3  -3   2    3.50    0.39
  -3  -3   2    3.24    0.40
  -3  -3   2    2.94    0.32
   2   3  -2    0.69    0.15
  -2  -3   2    0.70    0.18
  -2  -3   2    0.71    0.14
   1   3  -2    0.49    0.14
   1   3  -2    0.22    0.11
  -1  -3   2    0.52    0.12
  -1  -3   2    0.25    0.10
   0   3  -2   12.33    0.99
   0  -3   2   13.05    0.98
   0  -3   2   12.62    0.99
  -1   3  -2   51.30    3.51
   1  -3   2   53.54    3.51
  -2   3  -2    0.08    0.10
  -2   3  -2    0.05    0.03
   2  -3   2    0.05    0.08
  -3   3  -2    0.10    0.11
  -3   3  -2    0.09    0.07
   3  -3   2    0.05    0.11
  -4   3  -2    1.60    0.23
   4  -3   2    1.19    0.22
  -5   3  -2   12.70    1.02
  -5   3  -2   12.70    0.99
  -5   3  -2   12.70    1.18
   5  -3   2   13.40    1.03
  -6   3  -2   48.25    3.32
  -6   3  -2   47.08    3.60
  -6   3  -2   44.77    3.33
   6  -3   2   49.23    3.15
   6  -3   2   55.85    3.39
  -7   3  -2   -0.29    0.30
   7  -3   2    0.17    0.20
   7  -3   2    0.03    0.14
  -8   3  -2    0.50    0.36
   8  -3   2    0.35    0.21
  -9   3  -2    5.77    0.94
   8   2  -2   24.83    2.68
  -8  -2   2   30.09    2.35
   7   2  -2    0.19    0.37
  -7  -2   2   -0.25    0.35
   6   2  -2    7.93    0.87
   6   2  -2    5.72    0.83
  -6  -2   2    8.49    0.84
   5   2  -2   29.42    2.39
   5   2  -2   27.70    2.21
   5   2  -2   29.05    2.20
  -5  -2   2   30.58    2.24
   4   2  -2    5.10    0.64
   4   2  -2    4.21    0.53
   4   2  -2    5.07    0.53
  -4  -2   2    5.01    0.51
  -4  -2   2    4.64    0.37
   3   2  -2  107.94    7.26
   3   2  -2  112.43    7.13
  -3  -2   2   98.80    7.11
  -3  -2   2  116.94    6.91
  -3  -2   2  107.39    7.05
   2   2  -2  161.13   10.13
  -2  -2   2  149.15   10.14
  -2  -2   2  154.94   10.07
  -2  -2   2  167.82   10.02
   1   2  -2  123.96    8.34
   1   2  -2  145.02    8.40
  -1  -2   2  130.32    8.34
  -1  -2   2  125.24    8.38
   0  -2   2  571.31   35.97
  -1   2  -2  627.57   40.55
  -1   2  -2  637.93   40.21
   1  -2   2  652.59   40.22
  -2   2  -2   -0.05    0.06
  -2   2  -2   -0.04    0.07
   2  -2   2   -0.03    0.07
  -3   2  -2   21.82    1.59
   3  -2   2   22.46    1.58
   3  -2   2   23.18    1.62
   3  -2   2   22.07    1.43
  -4   2  -2  132.36    9.05
  -4   2  -2  138.18    8.86
  -4   2  -2  131.10    8.90
   4  -2   2  136.96    8.74
   4  -2   2  139.14    8.85
   4  -2   2  152.78    8.93
  -5   2  -2    0.06    0.16
  -5   2  -2   -0.04    0.20
  -5   2  -2    0.02    0.14
   5  -2   2   -0.01    0.11
   5  -2   2    0.07    0.13
  -6   2  -2   31.84    2.53
  -6   2  -2   35.08    2.77
  -6   2  -2   36.96    2.46
   6  -2   2   41.03    2.64
   6  -2   2   34.64    2.42
  -7   2  -2    3.28    0.61
   7  -2   2    3.39    0.49
  -8   2  -2   11.10    1.16
   8  -2   2   10.67    1.03
  -9   2  -2   41.89    3.49
   9  -2   2   42.91    3.14
   9   1  -2    8.22    1.05
   8   1  -2   -0.01    0.44
  -8  -1   2    0.27    0.31
   7   1  -2    0.18    0.37
   7   1  -2    0.94    0.34
  -7  -1   2    1.43    0.37
   6   1  -2   12.16    1.11
   6   1  -2    9.77    1.06
   6   1  -2   10.94    1.03
  -6  -1   2   11.32    1.06
   5   1  -2   21.22    1.79
   5   1  -2   22.11    1.68
   5   1  -2   21.18    1.69
  -5  -1   2   20.75    1.68
   4   1  -2    0.06    0.18
   4   1  -2    0.06    0.16
   4   1  -2   -0.04    0.18
  -4  -1   2   -0.09    0.18
   3   1  -2    7.34    0.65
   3   1  -2    7.81    0.66
   3   1  -2    7.72    0.74
  -3  -1   2    7.14    0.65
  -3  -1   2    7.14    0.68
   2   1  -2   18.72    1.36
   2   1  -2   19.77    1.26
   2   1  -2   20.17    1.37
  -2  -1   2   16.83    1.31
  -2  -1   2   19.84    1.23
  -2  -1   2   17.42    1.36
   1   1  -2    1.51    0.15
   1   1  -2    1.59    0.17
   1   1  -2    1.76    0.17
  -1  -1   2    1.60    0.16
  -1  -1   2    1.50    0.15
  -1  -1   2    1.70    0.18
   0   1  -2  151.63    9.87
   0   1  -2  155.41    9.86
   0  -1   2  159.22    9.86
   0  -1   2  160.59    9.87
  -1   1  -2    4.30    0.39
  -1   1  -2    4.95    0.43
   1  -1   2    4.39    0.39
   1  -1   2    5.06    0.35
  -2   1  -2    9.83    0.76
  -2   1  -2    9.38    0.75
   2  -1   2    9.47    0.83
   2  -1   2    8.82    0.69
  -3   1  -2  114.11    7.61
  -3   1  -2  113.18    7.63
   3  -1   2  125.87    7.62
  -4   1  -2   11.65    0.87
  -4   1  -2   10.35    0.92
  -4   1  -2   10.81    0.99
   4  -1   2   12.54    1.00
  -5   1  -2    4.85    0.59
  -5   1  -2    5.06    0.45
  -5   1  -2    4.26    0.54
   5  -1   2    5.34    0.54
  -6   1  -2    1.96    0.44
  -6   1  -2    1.40    0.25
  -6   1  -2    1.31    0.32
   6  -1   2    1.66    0.33
  -7   1  -2   17.84    1.27
  -7   1  -2   20.16    1.73
   7  -1   2   21.63    1.67
   7  -1   2   16.32    1.43
  -8   1  -2    2.12    0.53
   8  -1   2    2.20    0.51
  -9   1  -2    1.47    0.57
   9  -1   2    1.99    0.50
   9   0  -2    3.15    0.80
  -9   0   2    3.52    0.56
   8   0  -2    7.50    0.91
  -8   0   2    6.69    0.90
   7   0  -2   91.98    6.25
   7   0  -2   86.96    6.04
   7   0  -2   89.35    6.19
  -7   0   2   91.23    6.28
   6   0  -2    6.73    0.72
   6   0  -2    5.89    0.78
   6   0  -2    8.57    0.81
  -6   0   2    7.48    0.78
   5   0  -2   26.21    2.05
   5   0  -2   28.13    2.05
  -5   0   2   25.41    2.03
   4   0  -2   66.27    4.47
   4   0  -2   69.56    4.41
   4   0  -2   66.90    4.44
  -4   0   2   61.12    4.43
   3   0  -2   12.68    0.97
   3   0  -2   13.15    0.97
  -3   0   2   12.30    0.99
   2   0  -2  361.97   22.42
   2   0  -2  376.63   22.45
  -2   0   2  327.30   22.31
   1   0  -2   61.15    3.82
   1   0  -2   65.40    3.80
  -1   0   2   52.18    3.78
  -1   0   2   59.58    3.80
  -1   0   2   58.71    3.81
   0   0  -2   23.73    1.60
   0   0   2   23.46    1.61
  -1   0  -2    4.37    0.39
  -1   0  -2    3.57    0.32
   1   0   2    4.05    0.37
  -2   0  -2  276.15   16.94
  -2   0  -2  246.74   16.83
   2   0   2  278.86   16.93
  -3   0  -2    0.13    0.13
  -3   0  -2    0.03    0.12
  -3   0  -2    0.00    0.06
   3   0   2   -0.01    0.10
  -4   0  -2    2.47    0.36
  -4   0  -2    1.85    0.33
  -4   0  -2    2.33    0.26
   4   0   2    2.71    0.32
  -5   0  -2  122.57    8.45
  -5   0  -2  134.84    8.15
  -5   0  -2  122.43    8.39
   5   0   2  130.05    8.46
  -6   0  -2    0.80    0.30
  -6   0  -2    0.55    0.34
  -6   0  -2    0.58    0.16
   6   0   2    0.91    0.24
   6   0   2    0.14    0.47
  -7   0  -2    0.82    0.15
  -7   0  -2    1.22    0.34
   7   0   2    0.57    0.40
  -8   0  -2    3.21    0.57
   8   0   2    3.65    0.65
   9   0   2    0.26    0.54
   9  -1  -2    0.29    0.38
   9  -1  -2    0.29    0.63
  -9   1   2    0.81    0.50
   8  -1  -2   15.18    1.31
  -8   1   2   16.32    1.56
   7  -1  -2    0.32    0.20
   7  -1  -2   -0.07    0.43
   7  -1  -2   -0.03    0.30
  -7   1   2   -0.28    0.32
   6  -1  -2    0.00    0.29
   6  -1  -2    0.01    0.23
   6  -1  -2   -0.14    0.17
  -6   1   2   -0.01    0.21
   5  -1  -2   81.93    5.12
   5  -1  -2   79.34    5.27
   5  -1  -2   74.52    5.12
  -5   1   2   73.00    5.25
   4  -1  -2   64.32    4.01
   4  -1  -2   59.06    3.85
   4  -1  -2   59.53    4.01
   4  -1  -2   63.23    4.08
  -4   1   2   56.10    4.08
   3  -1  -2    5.77    0.40
   3  -1  -2    5.73    0.47
   3  -1  -2    5.13    0.47
  -3   1   2    4.98    0.47
  -3   1   2    5.16    0.51
   2  -1  -2  933.40   58.35
   2  -1  -2 1000.00   58.46
  -2   1   2  867.28   58.21
  -2   1   2  896.20   58.36
   1  -1  -2  481.28   30.78
  -1   1   2  486.07   30.77
   0  -1  -2   -0.09    0.05
   0   1   2   -0.10    0.04
  -1  -1  -2   94.84    6.20
  -1  -1  -2  100.87    6.38
   1   1   2   98.86    6.36
  -2  -1  -2    1.22    0.16
  -2  -1  -2    0.85    0.18
   2   1   2    0.94    0.19
  -3  -1  -2    5.22    0.58
  -3  -1  -2    5.49    0.51
   3   1   2    5.37    0.58
  -4  -1  -2   19.86    1.57
  -4  -1  -2   20.12    1.69
   4   1   2   22.05    1.73
  -5  -1  -2   36.38    2.34
  -5  -1  -2   33.30    2.53
  -5  -1  -2   32.89    2.65
   5   1   2   34.78    2.63
   5   1   2   35.17    2.67
  -6  -1  -2    0.48    0.17
  -6  -1  -2    0.99    0.29
   6   1   2    0.04    0.52
  -7  -1  -2   64.42    4.45
   7   1   2   63.79    4.52
   7   1   2   56.61    4.30
  -8  -1  -2   64.51    4.58
   8   1   2   57.83    4.82
   9  -2  -2    4.73    0.62
  -9   2   2    3.81    0.80
   8  -2  -2    0.65    0.36
   8  -2  -2    0.38    0.66
  -8   2   2    1.21    0.43
   7  -2  -2    2.86    0.45
   7  -2  -2    2.32    0.46
   7  -2  -2    3.89    0.45
  -7   2   2    3.89    0.53
   6  -2  -2   55.41    3.87
   6  -2  -2   58.82    4.03
   6  -2  -2   62.03    3.90
   6  -2  -2   59.64    3.76
  -6   2   2   53.47    4.12
   5  -2  -2   14.46    1.15
   5  -2  -2   13.71    1.02
  -5   2   2   12.88    1.20
   4  -2  -2   52.88    3.23
   4  -2  -2   51.69    3.33
   4  -2  -2   52.21    3.24
   4  -2  -2   46.84    3.18
  -4   2   2   45.89    3.24
  -4   2   2   44.81    3.40
   3  -2  -2  105.26    6.36
   3  -2  -2   93.64    6.23
  -3   2   2   97.63    6.48
  -3   2   2  100.16    6.34
   2  -2  -2   12.07    0.81
   1  -2  -2   36.23    2.46
  -1   2   2   37.90    2.46
   0  -2  -2   58.42    3.75
   0   2   2   54.03    3.76
   0   2   2   56.41    3.62
  -1  -2  -2   20.93    1.59
   1   2   2   21.68    1.52
   1   2   2   21.26    1.61
  -2  -2  -2    0.42    0.11
  -2  -2  -2    0.46    0.12
   2   2   2    0.13    0.13
   2   2   2    0.34    0.14
  -3  -2  -2   10.33    0.81
  -3  -2  -2    9.04    0.90
   3   2   2   10.13    0.98
   3   2   2    9.40    0.86
  -4  -2  -2    1.86    0.32
  -4  -2  -2    1.31    0.23
   4   2   2    1.15    0.28
  -5  -2  -2    1.67    0.35
  -6  -2  -2   43.07    3.09
  -6  -2  -2   41.35    2.77
   6   2   2   39.47    3.22
  -7  -2  -2   -0.03    0.38
  -7  -2  -2   -0.01    0.18
   7   2   2    0.12    0.42
  -8  -2  -2    7.94    1.00
   8   2   2    7.90    1.06
   9  -3  -2   14.02    1.06
  -9   3   2   12.32    1.41
   8  -3  -2   -0.01    0.29
   8  -3  -2   -0.14    0.62
  -8   3   2    0.19    0.33
   7  -3  -2    0.22    0.21
   7  -3  -2    0.05    0.40
   7  -3  -2    0.79    0.17
  -7   3   2    0.97    0.38
   6  -3  -2   -0.01    0.07
   6  -3  -2   -0.04    0.15
   6  -3  -2   -0.04    0.26
  -6   3   2   -0.06    0.31
   5  -3  -2    5.80    0.52
  -5   3   2    6.42    0.55
  -5   3   2    6.46    0.68
   4  -3  -2   12.08    0.94
  -4   3   2   11.63    1.06
  -4   3   2   11.93    0.90
   3  -3  -2   79.05    5.08
  -3   3   2   75.75    4.98
  -2   3   2   -0.04    0.04
   1  -3  -2  108.80    6.91
   1  -3  -2  105.41    6.76
   0  -3  -2  265.84   16.84
   0   3   2  266.56   16.66
   0   3   2  262.02   16.83
  -1  -3  -2   31.21    2.34
   1   3   2   32.15    2.21
   1   3   2   31.98    2.36
  -2  -3  -2   17.11    1.53
  -2  -3  -2   20.33    1.39
   2   3   2   18.35    1.44
   2   3   2   19.07    1.60
  -3  -3  -2   21.80    1.51
  -3  -3  -2   18.87    1.66
   3   3   2   19.23    1.71
   3   3   2   19.72    1.58
   4   3   2    1.31    0.35
   4   3   2    2.11    0.44
  -5  -3  -2    0.32    0.26
   5   3   2    0.08    0.48
   5   3   2    0.28    0.24
  -6  -3  -2    2.64    0.50
   6   3   2    2.44    0.48
  -7  -3  -2    3.97    0.68
   7   3   2    4.52    0.86
  -9   4   2   -0.02    0.51
   8  -4  -2    3.81    0.67
   8  -4  -2    5.95    0.57
  -8   4   2    4.96    0.70
   7  -4  -2    7.53    0.82
  -7   4   2    7.39    0.87
   6  -4  -2   -0.02    0.18
  -6   4   2   -0.06    0.32
   5  -4  -2    7.66    0.69
  -5   4   2    6.89    0.60
  -5   4   2    7.31    0.76
   4  -4  -2    1.07    0.20
  -4   4   2    1.65    0.21
   3  -4  -2   35.50    2.51
  -3   4   2   35.35    2.28
   2  -4  -2    0.31    0.06
   2  -4  -2    0.22    0.11
   1  -4  -2   43.57    2.83
  -1   4   2   42.88    2.99
   0  -4  -2    1.55    0.22
   0  -4  -2    1.31    0.27
   0   4   2    1.32    0.20
   0   4   2    1.36    0.27
  -1  -4  -2    8.73    0.89
   1   4   2    9.73    0.94
   1   4   2    9.13    0.77
   2   4   2   53.01    3.88
   2   4   2   52.83    3.63
   3   4   2    1.28    0.30
  -4  -4  -2   13.40    1.06
   4   4   2    9.30    1.06
   4   4   2   11.49    1.22
  -5  -4  -2    9.61    0.94
   5   4   2    9.55    1.11
  -6  -4  -2    2.95    0.57
   6   4   2    2.32    0.53
  -7  -4  -2    0.40    0.42
   7   4   2    0.26    0.52
   9  -5  -2    8.60    0.85
  -9   5   2    7.60    1.27
   8  -5  -2    5.91    0.81
   8  -5  -2    7.44    0.84
  -8   5   2    8.05    1.00
   7  -5  -2    5.21    0.62
  -7   5   2    6.39    0.82
   6  -5  -2    0.05    0.22
  -6   5   2    0.01    0.33
  -6   5   2    0.20    0.16
   5  -5  -2    7.94    0.77
  -5   5   2    8.22    0.67
   4  -5  -2    1.12    0.24
   3  -5  -2   38.25    2.39
   3  -5  -2   35.55    2.56
  -3   5   2   32.10    2.34
   2  -5  -2   44.90    3.10
  -2   5   2   42.36    2.99
   1  -5  -2    8.00    0.80
   1  -5  -2    8.54    0.69
  -1   5   2    8.98    0.83
   0  -5  -2   87.91    6.09
   0   5   2  104.66    6.09
   0   5   2   87.83    6.30
   1   5   2   52.40    3.47
   1   5   2   48.85    3.71
   2   5   2    8.07    0.79
   2   5   2    9.16    0.97
  -3  -5  -2    6.30    0.79
   3   5   2    8.91    0.96
   3   5   2    7.65    0.83
   4   5   2   21.12    1.90
   4   5   2   25.98    2.23
   5   5   2    8.27    1.06
   6   5   2    1.45    0.65
  -9   6   2   -0.14    0.51
   8  -6  -2   -0.04    0.40
   8  -6  -2   -0.39    0.66
  -8   6   2   -0.01    0.43
   7  -6  -2   10.79    1.03
  -7   6   2   10.43    1.11
   6  -6  -2   15.97    1.33
  -6   6   2   14.36    1.42
  -6   6   2   15.46    1.14
  -5   6   2    1.75    0.28
   4  -6  -2   36.50    2.56
  -4   6   2   31.76    2.16
   3  -6  -2    7.73    0.79
   3  -6  -2    8.21    0.62
  -3   6   2    7.46    0.68
   2  -6  -2    0.25    0.11
   2  -6  -2    0.13    0.20
  -2   6   2    0.30    0.15
   1  -6  -2   21.54    1.54
   1  -6  -2   19.53    1.66
  -1   6   2   21.38    1.73
   0  -6  -2   16.31    1.31
   0  -6  -2   15.03    1.36
   0   6   2   16.78    1.45
   0   6   2   18.39    1.26
  -1  -6  -2    8.83    0.94
   1   6   2    9.54    1.05
   1   6   2    9.48    0.78
  -2  -6  -2    5.26    0.78
   2   6   2    6.47    0.66
   3   6   2    7.48    0.96
   3   6   2    7.48    0.86
   4   6   2    7.64    1.05
   5   6   2    3.72    0.70
  -8   7   2    5.33    0.85
   7  -7  -2    1.66    0.47
  -7   7   2    2.39    0.47
   6  -7  -2   39.54    2.98
  -6   7   2   40.81    2.72
   5  -7  -2    0.40    0.41
  -5   7   2    1.75    0.29
   4  -7  -2    2.37    0.29
   3  -7  -2   15.24    1.10
   3  -7  -2   12.94    1.36
  -3   7   2   15.75    1.21
   2  -7  -2    0.15    0.16
   2  -7  -2   -0.06    0.38
  -2   7   2    0.08    0.21
   1  -7  -2    4.88    0.71
   1  -7  -2    5.81    0.58
  -1   7   2    5.53    0.68
   0  -7  -2   29.68    2.41
   0   7   2   32.64    2.53
  -1  -7  -2    0.49    0.52
   1   7   2    1.97    0.34
   1   7   2    1.49    0.39
   2   7   2   18.90    1.81
   2   7   2   17.61    1.53
   3   7   2   23.98    2.27
   4   7   2    1.07    0.63
  -8   8   2    2.20    0.49
  -7   8   2    0.36    0.26
  -7   8   2    0.38    0.45
   6  -8  -2    0.16    0.57
   6  -8  -2    0.07    0.22
  -6   8   2   -0.03    0.26
   5  -8  -2   10.88    0.84
   5  -8  -2    8.62    1.10
  -5   8   2   11.41    0.89
   4  -8  -2   16.87    1.17
   4  -8  -2   13.32    1.41
  -4   8   2   15.84    1.18
   3  -8  -2    0.34    0.19
   3  -8  -2    0.13    0.52
  -3   8   2    0.51    0.23
   2  -8  -2    0.84    0.55
   2  -8  -2    2.23    0.37
  -2   8   2    2.07    0.48
   1  -8  -2    7.48    1.07
  -1   8   2   10.70    1.06
   0   8   2    0.23    0.38
   1   8   2    0.37    0.44
   2   8   2    2.29    0.56
   3   8   2   10.72    1.31
  -7   9   2   -0.71    0.50
   6  -9  -2    1.17    0.26
  -6   9   2    1.58    0.36
   5  -9  -2   10.61    1.41
  -5   9   2   15.43    1.17
   4  -9  -2    0.66    0.23
   4  -9  -2    0.36    0.76
  -4   9   2    0.75    0.25
   3  -9  -2    0.65    0.26
   3  -9  -2   -0.27    0.56
  -3   9   2    0.85    0.32
  -2   9   2   13.37    1.31
  -1   9   2    2.38    0.60
   0   9   2    8.49    1.13
   1   9   2    0.21    0.43
   2   9   2    0.87    0.70
  -4  10   2    2.93    0.58
  -3  10   2    0.41    0.43
  -2  10   2    2.64    0.56
  -1  10   2    8.06    1.02
   0  10   2   28.18    2.47
   0  10  -3   -0.02    0.66
   0 -10   3    0.60    0.55
  -1  10  -3    8.86    1.14
  -2  10  -3    0.85    0.57
  -3  10  -3    0.37    0.50
   3 -10   3    0.83    0.50
  -4  10  -3   -0.12    0.47
   4 -10   3    0.31    0.48
   2   9  -3    0.99    0.48
  -2  -9   3    1.24    0.55
   1   9  -3   -0.28    0.57
  -1  -9   3    0.00    0.56
   0   9  -3    1.04    0.50
   0  -9   3    0.80    0.42
  -1   9  -3    0.41    0.44
   1  -9   3    0.55    0.37
  -2   9  -3    8.62    1.09
   2  -9   3    9.79    0.95
  -3   9  -3    0.31    0.45
  -3   9  -3    0.69    0.39
   3  -9   3    0.73    0.37
   3  -9   3    0.49    0.62
  -4   9  -3    0.33    0.32
  -4   9  -3    0.41    0.36
   4  -9   3    1.04    0.40
   4  -9   3    0.54    0.88
  -5   9  -3    0.09    0.28
   5  -9   3    0.67    0.42
   5  -9   3   -0.36    1.44
   4   8  -3   15.39    1.74
   3   8  -3    9.11    1.14
  -3  -8   3    9.93    0.98
   2   8  -3    8.17    1.07
  -2  -8   3    8.31    0.94
   1   8  -3   53.21    4.03
  -1  -8   3   49.42    3.71
   0   8  -3   19.66    1.86
   0  -8   3   21.27    1.68
  -1   8  -3   15.82    1.49
   1  -8   3   14.11    1.41
   1  -8   3   17.28    1.39
  -2   8  -3   68.76    5.11
   2  -8   3   72.88    5.12
   2  -8   3   77.15    5.02
  -3   8  -3    8.53    0.86
  -3   8  -3   10.57    0.96
   3  -8   3    9.69    1.07
  -4   8  -3    0.13    0.18
  -4   8  -3    0.49    0.28
   4  -8   3    0.04    0.61
  -5   8  -3    0.33    0.23
  -5   8  -3    0.09    0.24
   5  -8   3    0.30    0.66
   6  -8   3    0.16    0.75
  -7   8  -3   -0.80    0.56
   5   7  -3    8.74    1.26
   4   7  -3   -0.59    0.55
  -4  -7   3    0.46    0.48
   3   7  -3   -0.32    0.57
  -3  -7   3    0.11    0.39
   2   7  -3   14.67    1.51
  -2  -7   3   14.85    1.32
   1   7  -3   -0.05    0.31
  -1  -7   3    0.07    0.20
  -1  -7   3   -0.11    0.42
   0   7  -3    0.14    0.26
   0  -7   3   -0.09    0.38
   0  -7   3   -0.20    0.23
   1  -7   3   12.38    1.07
   1  -7   3   11.53    1.14
   2  -7   3    0.04    0.21
   2  -7   3    0.00    0.39
  -3   7  -3    6.64    0.59
   3  -7   3    6.50    0.69
   4  -7   3   -0.05    0.43
  -5   7  -3   -0.01    0.18
   5  -7   3    0.06    0.35
  -6   7  -3    1.64    0.17
   6  -7   3    1.31    0.54
  -7   7  -3    0.94    0.48
   7  -7   3    0.56    0.62
  -8   7  -3   -0.37    0.48
   6   6  -3    6.46    1.14
   5   6  -3   11.64    1.37
   4   6  -3    2.89    0.56
  -4  -6   3    2.95    0.63
   3   6  -3    2.21    0.56
  -3  -6   3    2.93    0.51
   2   6  -3   -0.04    0.31
  -2  -6   3   -0.13    0.31
  -2  -6   3    0.21    0.25
   1   6  -3    2.26    0.45
  -1  -6   3    2.40    0.37
   0  -6   3   51.14    3.51
   0  -6   3   48.37    3.47
  -1   6  -3   18.31    1.55
   1  -6   3   18.96    1.54
   1  -6   3   19.01    1.48
  -2   6  -3   14.90    1.34
   2  -6   3   15.91    1.33
  -3   6  -3   34.66    2.40
  -3   6  -3   36.19    2.72
   3  -6   3   38.52    2.73
  -4   6  -3   85.46    6.00
  -4   6  -3   86.19    5.76
   4  -6   3   93.54    6.02
  -5   6  -3   29.48    2.15
   5  -6   3   33.86    2.42
  -6   6  -3    0.28    0.16
   6  -6   3    0.43    0.36
  -7   6  -3    1.06    0.44
   7  -6   3   -0.01    0.44
  -8   6  -3   -0.06    0.38
   7   5  -3    1.18    0.55
   6   5  -3    6.58    1.00
   5   5  -3    0.16    0.33
   4   5  -3    8.77    0.98
   4   5  -3    6.84    0.90
  -4  -5   3    7.85    0.77
  -4  -5   3    9.04    0.89
   3   5  -3    2.38    0.40
   3   5  -3    2.00    0.34
  -3  -5   3    1.60    0.30
  -3  -5   3    2.48    0.43
   2   5  -3    1.18    0.21
   2   5  -3    1.46    0.34
  -2  -5   3    1.01    0.23
  -2  -5   3    1.37    0.28
  -1  -5   3    0.18    0.21
   0   5  -3    0.12    0.18
   0  -5   3    0.06    0.13
   0  -5   3   -0.01    0.20
  -1   5  -3   56.67    4.14
   1  -5   3   61.71    4.15
   1  -5   3   62.77    4.07
  -2   5  -3    2.48    0.37
   2  -5   3    2.32    0.37
  -3   5  -3    2.61    0.35
  -3   5  -3    2.18    0.19
   3  -5   3    2.16    0.38
  -4   5  -3    4.69    0.47
   4  -5   3    4.82    0.56
  -5   5  -3    0.85    0.16
  -5   5  -3    0.64    0.23
   5  -5   3    0.69    0.25
  -6   5  -3   10.54    1.08
  -6   5  -3    9.16    0.78
   6  -5   3    9.22    0.85
  -7   5  -3    1.58    0.38
  -7   5  -3    2.82    0.58
   7  -5   3    1.87    0.37
  -8   5  -3    0.89    0.51
  -9   5  -3    3.05    0.64
   7   4  -3   33.86    3.05
  -7  -4   3   38.09    2.93
   6   4  -3   32.76    2.91
  -6  -4   3   38.74    2.80
   5   4  -3    2.11    0.61
   5   4  -3    2.94    0.40
   4   4  -3   43.46    3.02
   4   4  -3   42.49    3.08
   4   4  -3   39.02    3.22
  -4  -4   3   37.33    3.03
  -4  -4   3   42.03    2.79
  -4  -4   3   43.05    2.99
   3   4  -3    0.08    0.18
   3   4  -3    0.00    0.17
  -3  -4   3    0.03    0.20
  -3  -4   3   -0.05    0.16
   2   4  -3   16.59    1.22
  -2  -4   3   14.39    1.15
  -2  -4   3   13.67    1.20
   1   4  -3    1.87    0.28
  -1  -4   3    1.14    0.24
  -1  -4   3    1.62    0.26
   0   4  -3    0.75    0.16
   0  -4   3    0.67    0.14
  -1   4  -3   41.40    2.96
   1  -4   3   43.55    2.96
  -2   4  -3   66.92    4.38
  -2   4  -3   68.53    4.61
   2  -4   3   70.50    4.61
  -3   4  -3    2.36    0.29
   3  -4   3    2.03    0.28
  -4   4  -3   22.39    1.69
  -4   4  -3   21.31    1.61
   4  -4   3   23.48    1.70
  -5   4  -3   43.14    3.02
  -5   4  -3   42.00    3.26
   5  -4   3   48.41    3.14
  -6   4  -3    2.93    0.58
  -6   4  -3    2.21    0.40
  -6   4  -3    2.54    0.38
   6  -4   3    2.39    0.38
  -7   4  -3   -0.14    0.32
  -7   4  -3    0.13    0.28
  -7   4  -3   -0.08    0.43
  -8   4  -3   27.17    2.38
   8   3  -3    0.71    0.67
   7   3  -3    4.92    0.85
  -7  -3   3    5.50    0.76
   6   3  -3   37.48    3.09
   6   3  -3   41.68    3.38
  -6  -3   3   46.41    3.20
   5   3  -3   -0.20    0.29
   5   3  -3    0.04    0.43
   5   3  -3    0.09    0.37
  -5  -3   3   -0.17    0.18
   4   3  -3    8.16    0.79
   4   3  -3    8.00    0.78
   4   3  -3    7.51    0.90
  -4  -3   3    8.14    0.62
  -4  -3   3    8.76    0.79
  -4  -3   3    8.14    0.81
   3   3  -3   16.12    1.26
   3   3  -3   15.54    1.21
  -3  -3   3   15.01    1.09
  -3  -3   3   13.96    1.25
  -3  -3   3   14.53    1.18
   2   3  -3   68.22    4.29
   2   3  -3   63.63    4.23
  -2  -3   3   65.74    4.19
  -2  -3   3   57.55    4.28
   1   3  -3  118.29    7.86
  -1  -3   3  129.22    7.86
  -1  -3   3  118.71    7.88
   0   3  -3    1.23    0.20
   0   3  -3    0.73    0.16
   0  -3   3    0.82    0.17
  -1   3  -3    1.82    0.18
  -1   3  -3    1.84    0.27
   1  -3   3    1.85    0.22
  -2   3  -3   42.31    2.51
  -2   3  -3   36.07    2.81
   2  -3   3   39.66    2.70
  -3   3  -3   26.49    1.92
  -3   3  -3   27.97    1.92
   3  -3   3   26.72    1.92
  -4   3  -3    1.87    0.27
  -4   3  -3    1.77    0.27
   4  -3   3    1.38    0.24
  -5   3  -3    5.19    0.57
  -5   3  -3    6.19    0.61
  -5   3  -3    6.52    0.75
   5  -3   3    5.65    0.53
  -6   3  -3    0.00    0.20
  -6   3  -3    0.09    0.23
  -6   3  -3    0.19    0.35
   6  -3   3   -0.02    0.07
  -7   3  -3    0.76    0.29
  -7   3  -3    0.65    0.34
  -7   3  -3    1.26    0.33
   7  -3   3    0.97    0.19
   7  -3   3    1.63    0.37
  -8   3  -3   15.59    1.59
  -8  -2   3    2.09    0.44
   7   2  -3   12.08    1.30
  -7  -2   3   12.47    1.21
   6   2  -3   39.27    3.08
   6   2  -3   37.79    2.93
   6   2  -3   39.99    2.95
  -6  -2   3   40.53    2.99
   5   2  -3    2.73    0.39
   5   2  -3    2.87    0.45
   5   2  -3    2.43    0.39
   4   2  -3    3.17    0.40
   4   2  -3    4.26    0.57
   4   2  -3    2.71    0.41
  -4  -2   3    3.53    0.43
  -4  -2   3    4.04    0.45
   3   2  -3  256.41   15.26
   3   2  -3  249.91   15.21
  -3  -2   3  218.64   15.11
  -3  -2   3  247.68   14.96
  -3  -2   3  218.68   15.20
   2   2  -3    0.39    0.11
   2   2  -3    0.29    0.10
  -2  -2   3    0.53    0.11
   1   2  -3  100.67    6.68
   1   2  -3  106.81    6.73
  -1  -2   3  108.21    6.67
  -1  -2   3  102.07    6.72
   0   2  -3  296.31   19.04
   0   2  -3  295.63   19.00
   0  -2   3  315.24   19.04
  -1   2  -3   17.47    1.16
  -1   2  -3   16.36    1.24
   1  -2   3   18.59    1.27
  -2   2  -3    0.15    0.08
  -2   2  -3    0.25    0.07
   2  -2   3    0.28    0.05
   2  -2   3    0.21    0.07
  -3   2  -3   26.47    1.94
  -3   2  -3   25.99    1.90
   3  -2   3   29.05    1.96
   3  -2   3   27.27    1.90
  -4   2  -3   39.81    2.90
  -4   2  -3   38.84    2.83
   4  -2   3   42.94    2.84
  -5   2  -3    0.46    0.15
  -5   2  -3    0.41    0.20
  -5   2  -3    0.84    0.23
   5  -2   3    0.72    0.13
   5  -2   3    1.05    0.23
  -6   2  -3   60.26    3.92
  -6   2  -3   53.34    4.01
  -6   2  -3   58.87    4.23
   6  -2   3   52.58    3.81
   6  -2   3   67.91    4.13
  -7   2  -3   -0.11    0.40
  -7   2  -3   -0.35    0.40
  -7   2  -3    0.02    0.25
   7  -2   3   -0.06    0.26
   7  -2   3   -0.10    0.22
  -8   2  -3   18.36    1.83
   8  -2   3   20.05    1.60
  -9   2  -3    1.03    0.63
   9  -2   3    1.12    0.48
   9   1  -3    8.60    1.10
   8   1  -3    0.09    0.42
  -8  -1   3    0.08    0.40
   7   1  -3    0.25    0.32
   7   1  -3   -0.06    0.49
   7   1  -3   -0.17    0.60
  -7  -1   3    0.07    0.34
   6   1  -3    1.72    0.31
   6   1  -3    1.83    0.38
   5   1  -3   -0.02    0.19
   5   1  -3    0.06    0.26
   5   1  -3   -0.16    0.21
  -5  -1   3   -0.15    0.17
   4   1  -3    1.46    0.23
  -4  -1   3    1.98    0.31
  -4  -1   3    2.01    0.30
   3   1  -3   15.65    1.21
   3   1  -3   16.33    1.23
   3   1  -3   16.53    1.08
  -3  -1   3   15.22    1.18
  -3  -1   3   15.27    1.24
   2   1  -3   69.48    4.60
   2   1  -3   76.31    4.75
   2   1  -3   78.19    4.73
  -2  -1   3   67.49    4.67
  -2  -1   3   70.48    4.73
   1   1  -3   11.54    0.82
   1   1  -3   11.29    0.85
  -1  -1   3   12.13    0.82
  -1  -1   3   10.63    0.87
  -1  -1   3   11.73    0.87
   0   1  -3  552.60   35.42
   0   1  -3  552.65   35.55
   0  -1   3  545.37   35.42
   0  -1   3  588.25   35.48
  -1   1  -3    8.75    0.72
  -1   1  -3   10.39    0.79
   1  -1   3    9.99    0.68
  -2   1  -3   57.62    3.78
  -2   1  -3   51.24    3.67
   2  -1   3   60.32    3.78
  -3   1  -3  104.08    7.33
  -3   1  -3  113.46    7.40
   3  -1   3  122.06    7.40
  -4   1  -3   25.80    2.05
  -4   1  -3   28.88    1.95
  -4   1  -3   26.24    2.06
   4  -1   3   30.35    2.11
  -5   1  -3    0.20    0.23
  -5   1  -3    0.13    0.14
  -5   1  -3    0.19    0.26
   5  -1   3    0.42    0.17
  -6   1  -3    3.18    0.53
  -6   1  -3    3.10    0.40
   6  -1   3    2.79    0.41
  -7   1  -3   22.97    1.80
  -7   1  -3   17.39    1.66
  -7   1  -3   16.76    1.46
  -8   1  -3   28.39    2.51
   8  -1   3   32.52    2.43
   9  -1   3   23.45    2.12
  -9   0   3    1.60    0.51
   8   0  -3    0.14    0.59
   8   0  -3    0.24    0.35
  -8   0   3    0.29    0.41
   7   0  -3    1.86    0.53
   7   0  -3    2.19    0.42
   6   0  -3   24.14    1.83
   6   0  -3   23.35    1.88
   6   0  -3   24.34    1.93
  -6   0   3   22.15    1.89
   5   0  -3   71.77    4.61
   5   0  -3   70.04    4.65
   5   0  -3   68.60    4.68
  -5   0   3   60.97    4.63
   4   0  -3    4.76    0.47
   4   0  -3    5.41    0.52
  -4   0   3    5.24    0.55
   3   0  -3    7.60    0.65
   3   0  -3    8.27    0.68
  -3   0   3    7.96    0.68
  -3   0   3    7.42    0.67
  -3   0   3    7.69    0.67
   2   0  -3   42.53    2.65
   2   0  -3   41.24    2.67
  -2   0   3   36.50    2.63
  -2   0   3   39.22    2.67
   1   0  -3    0.45    0.09
  -1   0   3    0.51    0.07
  -1   0   3    0.57    0.09
  -1   0   3    0.39    0.08
   0   0  -3   12.46    0.94
   0   0   3   12.53    0.94
  -1   0  -3    1.13    0.15
  -1   0  -3    0.97    0.15
   1   0   3    1.28    0.19
  -2   0  -3   -0.22    0.10
  -2   0  -3   -0.23    0.11
  -3   0  -3   31.17    2.30
  -3   0  -3   29.72    2.18
   3   0   3   32.80    2.30
  -4   0  -3    3.20    0.44
  -4   0  -3    3.22    0.36
   4   0   3    4.19    0.49
  -5   0  -3    0.20    0.25
  -5   0  -3    0.03    0.14
  -5   0  -3    0.18    0.27
   5   0   3    0.32    0.18
  -6   0  -3    1.58    0.37
  -6   0  -3    2.05    0.34
  -7   0  -3   32.25    2.55
   7   0   3   28.25    2.34
   7   0   3   34.98    2.61
  -8   0  -3    1.10    0.46
   8   0   3    1.62    0.46
   8   0   3    0.89    0.65
   9  -1  -3    0.64    0.78
  -9   1   3    1.82    0.38
   8  -1  -3   24.78    2.08
   8  -1  -3   29.25    2.18
  -8   1   3   30.02    2.43
   7  -1  -3   12.68    1.12
   7  -1  -3   12.56    1.21
   7  -1  -3   14.73    1.24
  -7   1   3   14.79    1.33
   6  -1  -3   16.46    1.33
   6  -1  -3   17.14    1.40
   6  -1  -3   17.38    1.42
  -6   1   3   16.58    1.49
   5  -1  -3   54.19    3.48
   5  -1  -3   47.92    3.69
   5  -1  -3   50.72    3.51
   5  -1  -3   53.07    3.25
  -5   1   3   49.00    3.60
   4  -1  -3  117.61    7.75
   4  -1  -3  130.45    7.56
   4  -1  -3  130.84    7.76
  -4   1   3  111.39    7.82
  -4   1   3  108.71    7.71
   3  -1  -3   31.09    1.95
   3  -1  -3   28.44    1.92
  -3   1   3   26.04    1.97
  -3   1   3   26.60    1.93
   2  -1  -3  340.01   19.32
   2  -1  -3  309.24   19.23
  -2   1   3  275.43   19.37
  -2   1   3  281.57   19.19
  -2   1   3  318.93   19.20
   1  -1  -3   29.28    1.90
  -1   1   3   29.70    1.90
  -1   1   3   24.60    1.81
   0  -1  -3   27.83    1.95
  -1  -1  -3  287.92   19.45
  -1  -1  -3  332.06   19.68
   1   1   3  311.13   19.64
  -2  -1  -3   23.74    1.79
  -2  -1  -3   22.29    1.59
   2   1   3   23.91    1.78
  -3  -1  -3    3.11    0.43
  -3  -1  -3    2.91    0.36
   3   1   3    3.03    0.42
  -4  -1  -3  141.01    9.37
  -4  -1  -3  147.39    9.62
   4   1   3  146.49    9.57
  -5  -1  -3   10.13    0.92
  -5  -1  -3    8.72    0.92
  -5  -1  -3   10.16    0.80
   5   1   3   10.26    1.03
   5   1   3    8.03    0.87
  -6  -1  -3    1.37    0.24
  -6  -1  -3    0.71    0.46
  -7  -1  -3    4.24    0.67
   7   1   3    4.62    0.72
  -8  -1  -3   15.06    1.48
   8   1   3   15.33    1.48
   9  -2  -3   15.05    1.27
  -9   2   3   14.99    1.55
   8  -2  -3    0.06    0.57
   8  -2  -3    0.53    0.40
   8  -2  -3    1.11    0.26
  -8   2   3    1.64    0.43
   7  -2  -3    6.32    0.65
   7  -2  -3    7.89    0.70
   7  -2  -3    6.57    0.82
  -7   2   3    6.89    0.86
   6  -2  -3   42.99    3.05
   6  -2  -3   46.01    2.93
   6  -2  -3   48.10    3.22
  -6   2   3   42.33    3.31
   5  -2  -3    0.51    0.15
   5  -2  -3    0.71    0.14
   5  -2  -3    0.22    0.18
  -5   2   3    0.58    0.15
  -5   2   3    0.73    0.26
   4  -2  -3  242.69   16.31
   4  -2  -3  268.21   16.42
   4  -2  -3  278.34   16.34
   4  -2  -3  282.42   16.40
  -4   2   3  243.59   16.38
  -4   2   3  239.51   16.53
   3  -2  -3    1.37    0.18
  -3   2   3    1.98    0.29
  -3   2   3    1.89    0.23
   2  -2  -3   13.33    0.88
   2  -2  -3   13.05    0.95
  -2   2   3   13.99    1.00
   1  -2  -3  202.04   12.40
  -1   2   3  205.23   12.39
  -1   2   3  179.13   12.31
   0  -2  -3    1.96    0.26
   0   2   3    2.33    0.28
  -1  -2  -3    0.00    0.13
   1   2   3    0.11    0.10
  -2  -2  -3    3.82    0.35
  -2  -2  -3    3.27    0.45
   2   2   3    3.67    0.47
  -3  -2  -3   32.07    2.52
  -3  -2  -3   34.47    2.29
   3   2   3   31.90    2.38
   3   2   3   33.14    2.54
  -4  -2  -3   -0.05    0.20
  -4  -2  -3    0.01    0.23
   4   2   3   -0.03    0.22
   4   2   3    0.08    0.22
  -5  -2  -3   20.31    1.92
  -5  -2  -3   25.55    1.81
   5   2   3   18.49    1.76
   5   2   3   25.21    1.98
  -6  -2  -3    6.63    0.73
  -6  -2  -3    5.08    0.60
   6   2   3    5.89    0.82
  -7  -2  -3    3.47    0.59
   7   2   3    3.03    0.71
  -8  -2  -3    0.56    0.47
   8   2   3    1.33    0.56
 -10   3   3    0.31    0.60
   9  -3  -3    1.54    0.32
  -9   3   3    1.48    0.39
   8  -3  -3   14.35    1.01
   8  -3  -3   11.87    1.05
   8  -3  -3   10.80    1.28
  -8   3   3   12.94    1.36
   7  -3  -3   23.71    1.66
   7  -3  -3   23.32    1.73
   7  -3  -3   24.96    1.93
  -7   3   3   22.92    2.02
   6  -3  -3    7.33    0.61
   6  -3  -3    6.31    0.67
   6  -3  -3    6.34    0.57
   6  -3  -3    6.17    0.48
  -6   3   3    6.10    0.77
   5  -3  -3    2.90    0.36
   5  -3  -3    3.76    0.39
  -5   3   3    4.48    0.52
  -5   3   3    3.64    0.40
   4  -3  -3  128.64    7.83
   4  -3  -3  122.64    7.77
  -4   3   3  120.93    7.78
  -4   3   3  112.45    7.95
   3  -3  -3   80.76    5.32
   3  -3  -3   82.91    5.34
  -3   3   3   88.73    5.44
   2  -3  -3    0.30    0.08
  -2   3   3    0.34    0.08
   1  -3  -3    1.74    0.25
  -1   3   3    2.41    0.30
  -1   3   3    2.42    0.19
   0  -3  -3    0.08    0.09
   0   3   3    0.17    0.10
   0   3   3    0.00    0.07
  -1  -3  -3  150.56    9.86
   1   3   3  152.06    9.66
   1   3   3  149.46    9.83
  -2  -3  -3   87.11    6.00
   2   3   3   89.04    5.84
   2   3   3   87.53    6.00
  -3  -3  -3   22.65    1.97
  -3  -3  -3   27.87    1.84
   3   3   3   25.75    2.11
   3   3   3   24.35    1.93
  -4  -3  -3    6.34    0.87
   4   3   3    7.63    0.73
  -5  -3  -3   92.08    5.73
   5   3   3   83.90    6.01
   5   3   3   75.48    5.75
  -6  -3  -3   63.92    4.22
   6   3   3   52.75    4.53
  -7  -3  -3    1.52    0.46
   7   3   3    1.24    0.60
  -9   4   3    2.99    0.70
   8  -4  -3    6.59    0.64
  -8   4   3    6.37    0.92
   7  -4  -3   -0.03    0.35
   7  -4  -3    0.19    0.19
  -7   4   3   -0.17    0.38
   6  -4  -3    8.22    0.78
   6  -4  -3    8.45    0.73
  -6   4   3    8.13    0.69
  -6   4   3    6.40    0.85
   5  -4  -3   24.63    1.71
   5  -4  -3   24.69    1.77
  -5   4   3   20.61    1.85
  -5   4   3   23.63    1.69
   4  -4  -3    3.07    0.40
  -4   4   3    4.11    0.40
  -3   4   3   51.80    3.34
   2  -4  -3   35.22    2.54
  -2   4   3   39.02    2.54
   1  -4  -3    6.45    0.63
  -1   4   3    6.62    0.63
   0  -4  -3    5.08    0.55
   0   4   3    5.49    0.47
   0   4   3    5.61    0.57
   1   4   3    1.86    0.29
   1   4   3    1.43    0.27
  -2  -4  -3   24.10    1.99
   2   4   3   24.63    1.83
   2   4   3   23.91    2.02
  -3  -4  -3    1.40    0.39
   3   4   3    1.19    0.32
  -4  -4  -3   11.79    1.00
   4   4   3   10.17    1.16
  -5  -4  -3    0.12    0.29
   5   4   3    0.14    0.31
  -6  -4  -3   17.99    1.52
   6   4   3   15.23    1.69
  -7  -4  -3    6.29    0.84
   7   4   3    5.32    0.87
   9  -5  -3    0.06    0.83
   9  -5  -3    1.38    0.33
  -9   5   3    0.91    0.52
   8  -5  -3    0.11    0.54
   8  -5  -3    0.24    0.29
  -8   5   3    0.00    0.35
   7  -5  -3   16.80    1.30
   7  -5  -3   15.07    1.31
  -7   5   3   14.88    1.48
   6  -5  -3   21.23    1.63
   6  -5  -3   21.93    1.59
  -6   5   3   22.17    1.57
  -6   5   3   19.17    1.78
   5  -5  -3  124.02    7.59
  -5   5   3  104.35    7.65
  -5   5   3  114.63    7.38
   4  -5  -3   27.04    2.08
  -4   5   3   28.79    1.96
   3  -5  -3   18.47    1.20
   3  -5  -3   17.97    1.44
   2  -5  -3  134.38    8.37
  -2   5   3  130.69    8.56
  -1   5   3    0.35    0.13
   0  -5  -3    2.21    0.34
   0   5   3    2.23    0.30
   0   5   3    2.99    0.43
   1   5   3   36.90    2.85
   1   5   3   37.81    2.63
   2   5   3    1.94    0.43
   2   5   3    1.27    0.28
   3   5   3    3.70    0.66
   3   5   3    5.80    0.67
   5   5   3    1.86    0.51
   6   5   3   19.88    2.01
  -9   6   3    5.14    1.09
   8  -6  -3    0.27    0.57
   8  -6  -3    0.02    0.39
  -8   6   3   -0.11    0.46
   7  -6  -3    7.45    0.84
  -7   6   3    9.13    0.77
  -7   6   3    8.32    1.00
   6  -6  -3    9.21    0.95
  -6   6   3    8.71    0.99
  -6   6   3   10.47    0.84
   5  -6  -3    5.25    0.67
  -5   6   3    6.33    0.59
   4  -6  -3    8.22    0.86
   4  -6  -3    9.27    0.64
   3  -6  -3    2.91    0.26
  -3   6   3    3.27    0.37
   2  -6  -3   20.83    1.69
  -2   6   3   20.94    1.64
   1  -6  -3   33.21    2.54
  -1   6   3   35.07    2.59
   0   6   3  132.17    7.98
   0   6   3  114.50    8.26
   1   6   3    0.28    0.28
   1   6   3    0.18    0.23
  -2  -6  -3    0.20    0.44
   2   6   3    1.14    0.33
   2   6   3    1.12    0.27
   3   6   3   50.66    3.85
   3   6   3   44.70    3.41
   4   6   3    4.88    0.84
   5   6   3    2.27    0.51
  -9   7   3   -0.29    0.50
   8  -7  -3    0.24    0.94
  -8   7   3    0.01    0.44
   7  -7  -3    4.87    0.71
   7  -7  -3    5.25    0.78
  -7   7   3    5.07    0.77
  -6   7   3    4.69    0.70
  -6   7   3    5.09    0.55
   5  -7  -3   14.50    1.40
  -5   7   3   17.27    1.26
   4  -7  -3    2.85    0.59
   4  -7  -3    3.78    0.31
  -3   7   3    8.35    0.76
   2  -7  -3   65.19    4.60
  -2   7   3   65.35    4.52
   1  -7  -3   55.53    4.09
  -1   7   3   60.43    4.20
   0  -7  -3    0.00    0.35
   0   7   3    0.39    0.29
  -1  -7  -3   -0.19    0.55
   1   7   3    0.22    0.30
   1   7   3    0.28    0.34
   2   7   3    5.68    0.83
   2   7   3    3.56    0.71
   3   7   3    0.30    0.52
   4   7   3    0.80    0.66
  -8   8   3    4.42    0.74
  -7   8   3    6.18    0.89
   6  -8  -3    0.79    0.59
  -6   8   3    1.40    0.31
   5  -8  -3   25.22    2.19
   5  -8  -3   26.53    1.77
  -5   8   3   29.98    2.01
   4  -8  -3   11.50    1.28
  -4   8   3   15.25    1.09
   3  -8  -3    0.10    0.53
  -3   8   3    0.17    0.23
   2  -8  -3   24.12    2.09
  -2   8   3   27.38    2.10
   1  -8  -3    0.42    0.59
   0   8   3    1.98    0.43
   1   8   3   17.12    1.67
   2   8   3   14.47    1.43
   2   8   3   11.06    1.35
   3   8   3   11.84    1.40
  -6   9   3    1.77    0.40
  -5   9   3    6.81    0.76
  -4   9   3    6.44    0.64
   3  -9  -3    0.11    0.78
  -3   9   3    0.56    0.32
  -2   9   3    8.20    0.96
  -1   9   3    7.08    0.89
   0   9   3    5.38    0.84
   1   9   3    5.07    0.91
   2   9   3    0.68    0.74
  -2  10   3    1.89    0.54
  -1  10   3    0.12    0.60
   0  10  -4    1.69    0.66
   0 -10   4    1.09    0.61
  -1  10  -4   -0.18    0.62
   1 -10   4    0.43    0.53
  -2  10  -4    2.00    0.62
   2 -10   4    1.93    0.53
  -3  10  -4   24.75    2.15
  -4  10  -4    3.41    0.63
   2   9  -4    2.55    0.67
  -2  -9   4    2.18    0.55
   1   9  -4   13.17    1.47
  -1  -9   4   12.10    1.27
   0  -9   4    0.01    0.41
  -1   9  -4    0.09    0.46
  -1   9  -4   -0.13    0.66
   1  -9   4    0.27    0.39
  -2   9  -4    8.83    0.99
  -2   9  -4    7.33    1.00
   2  -9   4    8.56    0.95
  -3   9  -4    3.54    0.67
   3  -9   4    3.56    0.61
  -4   9  -4   12.16    1.24
   4  -9   4   14.94    1.26
  -5   9  -4   -0.13    0.37
   4   8  -4    9.88    1.35
  -4  -8   4    9.50    1.19
   3   8  -4   -0.16    0.58
  -3  -8   4    0.56    0.49
   2   8  -4    5.25    0.74
   1   8  -4   24.08    2.16
  -1  -8   4   22.60    1.93
   0   8  -4    4.31    0.88
   0   8  -4    6.74    0.86
   0  -8   4    5.99    0.67
  -1   8  -4   12.29    1.18
  -1   8  -4   12.46    1.26
   1  -8   4   13.30    1.12
   1  -8   4    9.92    1.21
  -2   8  -4    0.22    0.36
   2  -8   4    0.82    0.29
   2  -8   4    0.03    0.44
  -3   8  -4    0.72    0.28
   3  -8   4    0.32    0.46
   4  -8   4   18.30    1.70
  -5   8  -4    8.95    0.85
   5  -8   4    7.76    1.20
  -7   8  -4    0.33    0.51
   5   7  -4    0.24    0.50
   4   7  -4    3.31    0.84
  -4  -7   4    3.91    0.59
   3   7  -4    1.31    0.47
  -3  -7   4    1.60    0.43
   2   7  -4    3.66    0.68
  -2  -7   4    3.76    0.49
   1   7  -4    1.28    0.37
  -1  -7   4    1.16    0.23
  -1  -7   4    0.51    0.45
   0  -7   4    3.21    0.46
  -1   7  -4    1.92    0.35
   1  -7   4    1.35    0.33
   1  -7   4    2.10    0.37
  -2   7  -4   23.08    1.92
  -2   7  -4   22.90    1.74
   2  -7   4   22.47    1.87
   2  -7   4   26.97    1.89
  -3   7  -4    3.63    0.41
  -3   7  -4    4.92    0.59
   3  -7   4    3.45    0.72
  -4   7  -4    1.22    0.45
   4  -7   4    1.06    0.45
  -5   7  -4   16.11    1.37
  -5   7  -4   12.41    1.05
   5  -7   4   12.19    1.28
  -6   7  -4   10.50    0.91
   6  -7   4   12.50    1.20
  -7   7  -4   12.72    1.39
  -8   7  -4   -0.30    0.53
   6   6  -4    4.74    1.04
   5   6  -4    8.05    1.10
   4   6  -4   15.54    2.17
  -4  -6   4   19.24    1.63
   3   6  -4   90.73    6.06
   3   6  -4   86.87    6.26
  -3  -6   4   83.91    6.02
   2   6  -4    0.76    0.30
  -2  -6   4    1.14    0.25
  -2  -6   4    0.37    0.30
  -1  -6   4    0.10    0.31
  -1  -6   4    0.29    0.21
   0   6  -4  104.27    7.17
   0  -6   4  114.99    7.15
   0  -6   4  101.70    7.07
  -1   6  -4    0.77    0.21
  -1   6  -4    0.71    0.25
   1  -6   4    0.24    0.30
   1  -6   4    0.88    0.22
  -2   6  -4    7.41    0.77
  -2   6  -4    6.93    0.60
   2  -6   4    6.24    0.71
  -3   6  -4    5.96    0.66
  -3   6  -4    5.55    0.44
   3  -6   4    4.82    0.72
  -4   6  -4   11.59    0.98
  -4   6  -4   12.46    1.10
   4  -6   4   11.85    1.12
  -5   6  -4   69.35    4.92
   5  -6   4   72.62    4.93
  -6   6  -4    8.73    0.77
  -6   6  -4    9.91    0.97
   6  -6   4    8.25    0.90
  -7   6  -4    4.76    0.73
   7  -6   4    3.46    0.56
   7   5  -4    2.20    0.71
   6   5  -4    7.66    1.07
   5   5  -4    1.27    0.34
  -5  -5   4    1.79    0.42
   4   5  -4   -0.15    0.57
   4   5  -4    0.09    0.34
   4   5  -4   -0.04    0.44
  -4  -5   4    0.15    0.23
  -4  -5   4   -0.06    0.27
   3   5  -4    0.07    0.30
   3   5  -4    0.02    0.33
   3   5  -4   -0.16    0.42
  -3  -5   4   -0.08    0.23
  -3  -5   4   -0.19    0.19
   2   5  -4    1.29    0.32
  -2  -5   4    0.93    0.23
   1   5  -4    5.64    0.58
   1   5  -4    5.23    0.59
  -1  -5   4    5.21    0.52
  -1  -5   4    4.84    0.54
   0   5  -4    0.49    0.18
   0   5  -4    0.21    0.19
   0  -5   4    0.32    0.22
   0  -5   4    0.21    0.15
  -1   5  -4    2.14    0.30
  -1   5  -4    2.37    0.32
   1  -5   4    1.79    0.36
  -2   5  -4    0.70    0.13
   2  -5   4    0.57    0.22
  -3   5  -4    8.77    0.83
   3  -5   4    8.88    0.84
  -4   5  -4    7.16    0.67
  -4   5  -4    9.27    0.85
   4  -5   4    7.58    0.73
  -5   5  -4    9.68    0.95
  -5   5  -4   10.34    0.89
   5  -5   4   11.88    0.99
  -6   5  -4   24.93    1.91
  -6   5  -4   26.70    2.23
   6  -5   4   28.62    2.06
  -7   5  -4    3.32    0.52
  -7   5  -4    5.01    0.75
  -8   5  -4   -0.67    0.52
   7   4  -4    4.28    0.95
  -7  -4   4    5.52    0.69
   6   4  -4   29.11    2.59
  -6  -4   4   33.10    2.52
   5   4  -4   -0.05    0.37
   5   4  -4   -0.01    0.59
   5   4  -4   -0.14    0.36
  -5  -4   4   -0.01    0.32
  -5  -4   4    0.00    0.26
   4   4  -4    2.80    0.43
   4   4  -4    3.10    0.51
   4   4  -4    2.47    0.46
  -4  -4   4    2.43    0.36
   3   4  -4   31.41    2.21
   3   4  -4   29.23    2.24
  -3  -4   4   29.99    2.09
  -3  -4   4   28.33    2.27
   2   4  -4  110.76    6.93
   2   4  -4  100.55    6.81
  -2  -4   4   95.85    6.86
  -2  -4   4  108.54    6.77
   1   4  -4   40.56    2.95
   1   4  -4   44.45    2.95
  -1  -4   4   43.23    2.91
  -1  -4   4   41.12    2.96
   0   4  -4    6.81    0.66
   0   4  -4    7.07    0.63
   0  -4   4    7.02    0.64
   0  -4   4    7.50    0.67
  -1   4  -4  317.20   20.30
  -1   4  -4  311.94   20.46
   1  -4   4  338.36   20.47
  -2   4  -4   10.99    0.80
  -2   4  -4   12.19    1.03
   2  -4   4   11.72    0.96
  -3   4  -4    1.86    0.31
  -3   4  -4    1.55    0.23
   3  -4   4    1.41    0.30
  -4   4  -4   27.20    2.02
  -4   4  -4   27.55    2.07
   4  -4   4   29.43    2.07
  -5   4  -4    2.65    0.49
  -5   4  -4    2.05    0.37
  -5   4  -4    2.24    0.39
   5  -4   4    2.66    0.37
  -6   4  -4    1.63    0.40
  -6   4  -4    0.94    0.26
  -6   4  -4    1.04    0.50
  -7   4  -4    6.55    0.77
  -7   4  -4    8.31    1.00
  -7   4  -4    6.34    0.77
  -8   4  -4    0.07    0.50
   8   3  -4    1.62    0.67
   7   3  -4    0.15    0.51
  -7  -3   4    0.43    0.28
   6   3  -4   34.75    2.92
  -6  -3   4   38.24    2.83
   5   3  -4   67.22    4.74
   5   3  -4   65.27    4.95
   5   3  -4   71.62    4.75
  -5  -3   4   71.16    4.74
  -5  -3   4   64.36    4.80
   4   3  -4    0.36    0.26
   4   3  -4    0.00    0.32
  -4  -3   4    0.83    0.22
  -4  -3   4    0.16    0.10
  -4  -3   4    0.65    0.16
   3   3  -4   23.27    1.70
   3   3  -4   25.08    1.80
   3   3  -4   24.24    1.82
  -3  -3   4   23.43    1.75
  -3  -3   4   23.54    1.63
  -3  -3   4   21.75    1.80
   2   3  -4    0.63    0.14
   2   3  -4    0.26    0.14
  -2  -3   4    0.47    0.14
   1   3  -4    0.46    0.13
   1   3  -4    0.58    0.17
  -1  -3   4    0.38    0.11
  -1  -3   4    0.80    0.17
   0   3  -4    0.13    0.08
   0   3  -4    0.17    0.10
   0  -3   4    0.19    0.08
  -1   3  -4  141.07    9.07
  -1   3  -4  142.92    9.23
   1  -3   4  146.11    9.21
  -2   3  -4    8.44    0.72
  -2   3  -4    8.73    0.74
   2  -3   4    7.65    0.67
  -3   3  -4   95.84    6.37
  -3   3  -4   99.16    6.37
   3  -3   4   96.40    6.35
  -4   3  -4  157.76   10.33
  -4   3  -4  159.91   10.33
   4  -3   4  162.73   10.32
  -5   3  -4    0.57    0.19
  -6   3  -4    4.81    0.58
  -6   3  -4    5.70    0.70
  -6   3  -4    4.83    0.62
  -7   3  -4   15.22    1.37
  -7   3  -4   15.63    1.29
  -7   3  -4   16.87    1.57
  -8   3  -4    2.46    0.60
  -8  -2   4   16.48    1.61
   7   2  -4   28.24    2.47
  -7  -2   4   29.63    2.35
   6   2  -4    0.32    0.45
   6   2  -4    0.41    0.48
   6   2  -4    0.77    0.31
  -6  -2   4    1.02    0.30
   5   2  -4    0.17    0.34
   5   2  -4    0.08    0.24
   5   2  -4    0.13    0.23
  -5  -2   4    0.30    0.23
  -5  -2   4    0.47    0.24
   4   2  -4   18.31    1.44
   4   2  -4   19.60    1.51
  -4  -2   4   18.20    1.43
  -4  -2   4   17.29    1.47
   3   2  -4    0.29    0.10
  -3  -2   4    0.15    0.14
  -3  -2   4    0.23    0.14
   2   2  -4    1.58    0.23
   2   2  -4    1.82    0.22
   2   2  -4    1.49    0.25
  -2  -2   4    1.76    0.21
  -2  -2   4    1.66    0.20
  -2  -2   4    2.00    0.26
   1   2  -4   19.26    1.42
   1   2  -4   19.64    1.44
  -1  -2   4   20.88    1.41
  -1  -2   4   20.48    1.46
   0   2  -4   16.11    1.15
   0   2  -4   15.59    1.19
   0  -2   4   16.41    1.17
   0  -2   4   15.78    1.16
  -1   2  -4   13.37    0.91
  -1   2  -4   12.98    1.01
   1  -2   4   13.52    0.99
   1  -2   4   12.67    0.92
  -2   2  -4  139.81    9.46
  -2   2  -4  156.67    9.53
   2  -2   4  149.60    9.47
   2  -2   4  145.67    9.30
  -3   2  -4    5.50    0.51
  -3   2  -4    5.78    0.57
  -4   2  -4   18.27    1.49
  -4   2  -4   19.45    1.52
  -5   2  -4   12.37    1.05
  -5   2  -4   11.94    1.12
  -5   2  -4   12.44    1.19
   5  -2   4   15.42    1.20
  -6   2  -4    0.37    0.32
  -6   2  -4    0.23    0.35
  -6   2  -4    0.18    0.23
   6  -2   4    0.08    0.16
   6  -2   4    0.46    0.21
  -7   2  -4    4.32    0.55
  -7   2  -4    3.65    0.68
   7  -2   4    3.58    0.43
  -8   2  -4    0.68    0.39
  -8   2  -4    1.20    0.52
   9  -2   4    4.62    0.83
   9   1  -4    3.55    0.88
  -9  -1   4    2.21    0.61
   8   1  -4    4.44    0.74
  -8  -1   4    4.43    0.72
   7   1  -4   29.12    2.33
   7   1  -4   25.54    2.14
   7   1  -4   22.93    2.11
  -7  -1   4   30.35    2.30
   6   1  -4   -0.10    0.37
   6   1  -4   -0.14    0.28
   6   1  -4   -0.06    0.37
  -6  -1   4   -0.11    0.27
   5   1  -4   20.03    1.70
   5   1  -4   19.31    1.53
   5   1  -4   19.55    1.53
  -5  -1   4   18.29    1.55
   4   1  -4  191.20   11.50
   4   1  -4  182.37   11.19
   4   1  -4  184.80   11.46
  -4  -1   4  169.82   11.43
  -4  -1   4  160.55   11.45
   3   1  -4  113.59    7.51
   3   1  -4  124.71    7.73
   3   1  -4  127.59    7.71
  -3  -1   4  114.81    7.71
  -3  -1   4  113.48    7.65
   2   1  -4   41.05    2.49
   2   1  -4   37.31    2.49
   2   1  -4   34.21    2.36
  -2  -1   4   36.61    2.49
  -2  -1   4   34.36    2.48
  -2  -1   4   33.49    2.41
   1   1  -4  270.60   17.22
   1   1  -4  259.21   17.27
  -1  -1   4  291.71   17.18
  -1  -1   4  293.29   17.24
  -1  -1   4  251.54   17.22
   0   1  -4  166.98   10.96
   0   1  -4  179.51   10.94
  -1   1  -4   15.21    1.19
  -1   1  -4   17.69    1.28
   1  -1   4   16.88    1.14
  -2   1  -4   22.72    1.71
  -2   1  -4   24.97    1.83
   2  -1   4   25.93    1.83
  -3   1  -4   29.20    2.18
  -3   1  -4   29.38    2.13
  -3   1  -4   31.80    2.28
   3  -1   4   32.95    2.28
  -4   1  -4    6.72    0.74
  -4   1  -4    7.75    0.77
   4  -1   4    8.44    0.79
  -5   1  -4   85.10    6.21
  -5   1  -4   88.10    6.28
  -5   1  -4   94.14    6.08
   5  -1   4  103.62    6.33
  -6   1  -4   37.50    2.88
  -6   1  -4   34.34    2.86
  -6   1  -4   38.36    2.68
   6  -1   4   44.05    2.97
  -7   1  -4   44.63    2.98
  -7   1  -4   47.21    3.39
  -7   1  -4   37.53    3.25
   7  -1   4   40.11    2.99
   7  -1   4   49.63    3.35
  -8   1  -4   24.12    2.15
   8  -1   4   24.66    2.06
   9   0  -4    9.93    1.07
  -9   0   4   10.18    1.28
   8   0  -4   -0.07    0.60
   8   0  -4   -0.08    0.38
  -8   0   4    0.16    0.39
   7   0  -4   -0.09    0.30
   7   0  -4    0.03    0.49
   7   0  -4    0.05    0.42
  -7   0   4    0.17    0.25
   6   0  -4    3.85    0.56
   6   0  -4    5.20    0.61
   6   0  -4    4.22    0.61
  -6   0   4    5.41    0.59
   5   0  -4   31.27    2.30
   5   0  -4   33.36    2.31
   5   0  -4   32.10    2.39
  -5   0   4   29.03    2.33
   4   0  -4   14.33    0.92
   4   0  -4   14.22    1.12
   4   0  -4   14.37    1.12
  -4   0   4   14.32    1.14
  -4   0   4   13.33    1.13
  -4   0   4   14.11    1.17
   3   0  -4    0.78    0.15
  -3   0   4    0.85    0.15
  -3   0   4    0.61    0.13
  -3   0   4    0.83    0.15
   2   0  -4   85.56    4.92
   2   0  -4   79.54    4.95
  -2   0   4   72.91    4.91
  -2   0   4   67.48    4.88
  -2   0   4   74.06    4.95
   1   0  -4    9.38    0.69
  -1   0   4    8.76    0.70
  -1   0   4    8.69    0.63
   0   0  -4  153.47    9.82
  -1   0  -4   39.29    2.77
  -1   0  -4   45.02    2.98
   1   0   4   44.70    2.97
  -2   0  -4    4.39    0.42
  -2   0  -4    4.37    0.47
   2   0   4    5.47    0.55
  -3   0  -4    0.93    0.20
  -3   0  -4    1.29    0.25
   3   0   4    1.56    0.27
  -4   0  -4    1.25    0.25
  -4   0  -4    0.57    0.24
   4   0   4    0.85    0.21
  -5   0  -4    1.30    0.28
  -5   0  -4    1.84    0.36
  -5   0  -4    0.94    0.33
   5   0   4    1.80    0.37
  -6   0  -4    9.70    1.13
  -6   0  -4   12.28    1.16
  -6   0  -4   12.43    0.99
   6   0   4   13.18    1.22
  -7   0  -4    2.48    0.50
  -7   0  -4    2.53    0.56
  -8   0  -4   -0.30    0.48
   9  -1  -4   16.69    1.45
  -9   1   4   18.03    1.65
   8  -1  -4   29.36    2.13
   8  -1  -4   25.64    2.06
   8  -1  -4   23.55    2.15
  -8   1   4   28.42    2.37
   7  -1  -4    3.42    0.65
   7  -1  -4    4.43    0.50
   7  -1  -4    3.53    0.56
   6  -1  -4    0.19    0.27
   6  -1  -4    0.27    0.24
   6  -1  -4    0.10    0.18
  -6   1   4    0.49    0.29
   5  -1  -4    0.02    0.04
   5  -1  -4    0.08    0.14
   5  -1  -4    0.00    0.18
  -5   1   4    0.12    0.18
  -5   1   4    0.32    0.15
   4  -1  -4  102.63    6.18
   4  -1  -4   97.44    6.16
  -4   1   4   90.25    6.16
  -4   1   4   87.28    6.21
   3  -1  -4   66.87    4.20
   3  -1  -4   72.14    4.27
  -3   1   4   60.84    4.27
  -3   1   4   64.64    4.27
  -3   1   4   58.34    4.19
   2  -1  -4   43.80    2.71
  -2   1   4   38.30    2.67
  -2   1   4   41.19    2.72
  -2   1   4   38.02    2.63
   1  -1  -4   29.56    1.91
  -1   1   4   24.38    1.75
   0  -1  -4  146.71    9.32
   0   1   4  142.88    9.30
  -1  -1  -4  246.25   15.01
  -1  -1  -4  218.42   14.68
   1   1   4  238.96   14.96
  -2  -1  -4    7.28    0.74
  -2  -1  -4    7.12    0.59
   2   1   4    8.22    0.77
  -3  -1  -4    9.74    0.99
  -3  -1  -4   10.49    0.84
   3   1   4   10.93    1.02
  -4  -1  -4   20.40    1.74
  -4  -1  -4   21.39    1.60
   4   1   4   21.20    1.74
  -5  -1  -4    0.98    0.30
  -5  -1  -4    1.24    0.22
  -6  -1  -4    3.93    0.48
  -6  -1  -4    2.83    0.56
  -7  -1  -4    3.45    0.64
   7   1   4    3.96    0.68
  -8  -1  -4   -0.08    0.48
   8   1   4    0.15    0.56
   9  -2  -4    0.74    0.62
   9  -2  -4    1.08    0.32
  -9   2   4    1.92    0.52
   8  -2  -4    9.39    0.82
   8  -2  -4    8.09    0.89
   8  -2  -4    6.70    1.07
  -8   2   4    9.76    1.00
   7  -2  -4    1.03    0.39
   7  -2  -4    1.24    0.31
   7  -2  -4    1.58    0.32
  -7   2   4    1.76    0.45
   6  -2  -4    0.25    0.24
   6  -2  -4    0.45    0.10
   6  -2  -4    0.16    0.14
   6  -2  -4    0.28    0.22
  -6   2   4    0.57    0.30
   5  -2  -4   20.72    1.33
   5  -2  -4   17.71    1.37
   5  -2  -4   18.96    1.39
   5  -2  -4   20.46    1.42
  -5   2   4   17.48    1.51
  -5   2   4   16.35    1.40
   4  -2  -4   82.94    5.42
   4  -2  -4   92.88    5.48
  -4   2   4   81.54    5.47
  -4   2   4   76.82    5.55
   3  -2  -4   19.59    1.28
   3  -2  -4   17.58    1.23
  -3   2   4   17.36    1.36
  -3   2   4   17.61    1.32
   2  -2  -4   63.01    3.77
  -2   2   4   49.34    3.61
  -2   2   4   61.31    3.78
  -2   2   4   55.54    3.75
   1  -2  -4   13.46    1.07
  -1   2   4   14.11    1.08
   0  -2  -4   74.51    4.88
   0   2   4   70.90    4.83
  -1  -2  -4   -0.05    0.15
   1   2   4    0.02    0.11
  -2  -2  -4    1.85    0.24
   2   2   4    1.61    0.31
  -3  -2  -4   39.49    2.65
  -3  -2  -4   38.41    2.92
   3   2   4   37.87    2.90
  -4  -2  -4    1.12    0.27
   4   2   4    0.74    0.34
  -5  -2  -4    3.34    0.57
   5   2   4    3.62    0.57
  -6  -2  -4   27.21    2.00
  -6  -2  -4   21.86    1.76
   6   2   4   23.79    2.11
  -7  -2  -4   14.61    1.40
   7   2   4   14.48    1.50
 -10   3   4   11.88    1.44
   9  -3  -4    7.94    0.67
  -9   3   4    8.44    1.05
   8  -3  -4    0.89    0.53
   8  -3  -4    0.81    0.33
  -8   3   4    1.03    0.45
   7  -3  -4   46.70    3.22
   7  -3  -4   44.94    3.09
   7  -3  -4   44.87    2.97
  -7   3   4   41.70    3.39
   6  -3  -4    7.78    0.62
   6  -3  -4    8.65    0.80
   6  -3  -4    9.50    0.73
  -6   3   4    8.02    0.90
  -6   3   4    8.51    0.76
   5  -3  -4    0.61    0.16
   5  -3  -4    1.03    0.12
   5  -3  -4    0.90    0.12
   5  -3  -4    1.03    0.19
  -5   3   4    1.18    0.30
  -5   3   4    1.54    0.26
   4  -3  -4    8.31    0.58
   4  -3  -4    7.41    0.61
  -4   3   4    7.57    0.78
  -4   3   4    8.22    0.70
   3  -3  -4    8.53    0.57
   3  -3  -4    8.24    0.65
  -3   3   4    8.62    0.71
   2  -3  -4   31.06    2.15
  -2   3   4   30.83    2.16
   1  -3  -4  243.15   15.12
  -1   3   4  224.54   14.92
  -1   3   4  243.73   15.09
   0  -3  -4   -0.08    0.15
   0   3   4   -0.08    0.08
   0   3   4    0.00    0.11
  -1  -3  -4   31.96    2.67
   1   3   4   32.65    2.30
   1   3   4   34.94    2.51
  -2  -3  -4  159.50   10.39
   2   3   4  153.92   10.32
  -3  -3  -4    4.50    0.67
   3   3   4    6.24    0.71
   3   3   4    3.95    0.58
  -4  -3  -4   12.05    1.34
   4   3   4   15.77    1.40
   4   3   4   12.12    1.21
  -5  -3  -4   12.13    1.05
   5   3   4   10.01    1.17
  -6  -3  -4   10.05    0.95
   6   3   4    8.73    1.02
  -7  -3  -4    0.86    0.46
   7   3   4    1.69    0.63
   9  -4  -4    1.66    0.88
  -9   4   4    2.84    0.67
   8  -4  -4    4.12    0.47
   8  -4  -4    2.94    0.54
  -8   4   4    3.59    0.72
   7  -4  -4    0.38    0.20
   7  -4  -4   -0.06    0.33
  -7   4   4   -0.12    0.39
  -7   4   4    0.59    0.23
   6  -4  -4    6.99    0.69
   6  -4  -4    7.21    0.67
  -6   4   4    7.21    0.85
  -6   4   4    7.90    0.67
   5  -4  -4   28.33    1.90
   5  -4  -4   28.01    1.99
  -5   4   4   25.96    2.15
  -5   4   4   26.43    1.95
   4  -4  -4    0.03    0.07
  -4   4   4    0.06    0.13
  -4   4   4    0.16    0.23
   3  -4  -4    8.39    0.69
  -3   4   4    8.90    0.68
   2  -4  -4   74.87    5.15
  -2   4   4   81.70    5.15
   1  -4  -4   80.51    5.64
  -1   4   4   90.95    5.39
  -1   4   4   82.22    5.62
   0  -4  -4    1.21    0.29
   0   4   4    0.95    0.17
  -1  -4  -4    0.79    0.25
   1   4   4    0.82    0.17
  -2  -4  -4    4.24    0.64
   2   4   4    4.44    0.52
   2   4   4    5.34    0.64
  -3  -4  -4    0.03    0.43
   3   4   4    0.25    0.32
   3   4   4    0.51    0.27
  -4  -4  -4    5.13    0.95
   4   4   4    6.63    0.85
  -5  -4  -4    8.34    0.82
   5   4   4    6.53    1.02
  -6  -4  -4    0.68    0.40
   6   4   4    0.66    0.59
   9  -5  -4    6.77    1.09
   9  -5  -4    9.58    0.87
  -9   5   4    8.42    1.10
   8  -5  -4    4.10    0.56
  -8   5   4    3.30    0.71
   7  -5  -4    3.17    0.46
  -7   5   4    3.19    0.63
   6  -5  -4   17.95    1.48
   6  -5  -4   18.58    1.39
  -6   5   4   18.57    1.40
  -6   5   4   18.87    1.63
   5  -5  -4    7.79    0.73
   5  -5  -4    8.18    0.64
  -5   5   4    8.53    0.74
  -5   5   4    8.15    0.84
   4  -5  -4    4.77    0.54
  -4   5   4    5.39    0.52
  -3   5   4    3.14    0.34
   2  -5  -4    3.59    0.46
  -2   5   4    4.78    0.48
   1  -5  -4    8.18    0.83
  -1   5   4    9.12    0.86
   0  -5  -4   20.70    1.81
   0   5   4   22.80    1.59
   0   5   4   23.37    1.85
  -1  -5  -4    1.75    0.39
   1   5   4    2.37    0.40
  -2  -5  -4    0.95    0.33
   2   5   4    1.50    0.29
   3   5   4   24.07    2.09
   3   5   4   21.41    1.79
   4   5   4    0.54    0.48
   5   5   4    0.17    0.41
   6   5   4    6.71    1.17
  -9   6   4    1.54    0.64
   8  -6  -4    1.14    0.49
   8  -6  -4    1.16    0.40
  -8   6   4    1.84    0.49
   7  -6  -4    0.32    0.35
   7  -6  -4    0.27    0.32
  -7   6   4    0.71    0.28
  -7   6   4    0.64    0.41
   6  -6  -4    0.05    0.19
   6  -6  -4   -0.03    0.32
  -6   6   4    0.19    0.22
  -6   6   4    0.05    0.26
   5  -6  -4   12.91    0.85
   5  -6  -4   11.77    1.12
   5  -6  -4   13.22    0.84
  -5   6   4   12.51    1.03
   4  -6  -4   40.10    2.93
   3  -6  -4   41.40    3.08
  -3   6   4   44.31    2.95
  -2   6   4    4.61    0.54
  -1   6   4   36.11    2.72
   0   6   4    0.77    0.19
   1   6   4    0.13    0.29
   1   6   4    0.14    0.24
   2   6   4    1.82    0.39
   2   6   4    1.31    0.36
   3   6   4    0.83    0.38
   3   6   4    0.15    0.54
   4   6   4    1.58    0.41
   5   6   4    5.37    0.85
   8  -7  -4    9.07    1.10
  -8   7   4   10.78    1.20
   7  -7  -4    1.43    0.49
   7  -7  -4    1.70    0.29
  -7   7   4    1.82    0.46
   6  -7  -4    4.17    0.71
   6  -7  -4    4.78    0.38
   6  -7  -4    5.33    0.37
  -6   7   4    5.48    0.60
  -6   7   4    4.83    0.73
   5  -7  -4    2.87    0.43
   4  -7  -4   26.86    2.09
  -3   7   4   11.18    0.97
   2  -7  -4   29.27    2.42
  -2   7   4   33.24    2.40
   1  -7  -4   27.91    2.31
  -1   7   4   32.59    2.44
   0  -7  -4   14.14    1.47
   0   7   4   17.72    1.54
   1   7   4   19.49    1.53
   1   7   4   19.62    1.82
   2   7   4    3.31    0.70
   3   7   4    2.76    0.58
   4   7   4   24.15    2.35
  -8   8   4    0.46    0.48
  -7   8   4    1.87    0.41
  -7   8   4    1.44    0.47
   6  -8  -4    0.35    0.61
  -6   8   4    2.59    0.49
  -5   8   4    4.96    0.59
   4  -8  -4    3.74    0.81
  -4   8   4    4.99    0.50
  -3   8   4    7.94    0.76
   2  -8  -4   27.68    2.45
  -2   8   4   34.55    2.48
  -1   8   4    9.02    0.98
   0   8   4   22.28    1.92
   1   8   4   44.15    3.20
   1   8   4   47.07    3.67
   2   8   4    0.79    0.59
   3   8   4    1.03    0.67
  -7   9   4    0.20    0.46
  -7   9   4    2.20    0.53
  -6   9   4    0.08    0.41
   5  -9  -4   -0.10    0.85
  -5   9   4    0.10    0.38
  -4   9   4   15.39    1.22
  -3   9   4    5.77    0.69
  -2   9   4    1.34    0.40
  -1   9   4   -0.20    0.42
   0   9   4   11.35    1.23
   1   9   4    6.08    1.03
  -5  10   4    4.03    0.74
  -3  10   4    0.41    0.47
  -2  10   4   19.57    1.78
  -1  10   4    4.81    0.93
  -1  10  -5   34.41    2.84
   1 -10   5   35.54    2.76
   2 -10   5    2.27    0.59
  -3  10  -5   11.26    1.32
   3 -10   5   11.91    1.22
   2   9  -5    2.61    0.71
  -2  -9   5    3.56    0.64
   1   9  -5    5.20    0.93
  -1  -9   5    5.90    0.83
   0   9  -5    2.47    0.56
   0  -9   5    3.51    0.68
  -1   9  -5    0.02    0.70
  -1   9  -5    0.44    0.48
   1  -9   5    0.47    0.38
  -2   9  -5    5.85    0.80
  -2   9  -5    3.95    0.84
   2  -9   5    4.96    0.71
   3  -9   5    0.60    0.45
   4  -9   5    0.07    1.24
   4   8  -5    0.83    0.54
  -4  -8   5    2.20    0.62
   3   8  -5   -0.18    0.45
  -3  -8   5   -0.52    0.53
   2   8  -5    3.19    0.58
  -2  -8   5    2.45    0.50
   1   8  -5    1.23    0.45
  -1  -8   5    0.84    0.39
   0  -8   5    3.87    0.57
  -1   8  -5   27.03    2.09
   1  -8   5   27.02    2.28
   1  -8   5   29.42    2.22
  -2   8  -5    9.50    0.95
   2  -8   5   12.45    1.09
  -3   8  -5    2.08    0.41
   3  -8   5    2.11    0.68
  -4   8  -5   26.75    2.15
  -4   8  -5   26.14    2.00
   4  -8   5   23.18    2.12
   5  -8   5    8.13    1.27
   5   7  -5   21.95    2.22
  -5  -7   5   24.21    2.09
   4   7  -5    0.79    0.42
  -4  -7   5    1.36    0.51
  -3  -7   5    3.60    0.62
   2   7  -5   11.36    1.26
   2   7  -5   10.84    1.36
  -2  -7   5   11.51    1.14
   1   7  -5   10.58    1.11
  -1  -7   5   10.21    1.17
  -1  -7   5   11.53    1.08
   0   7  -5   10.24    1.02
   0   7  -5   10.47    1.02
   0  -7   5    9.15    1.01
   0  -7   5   10.49    0.97
  -1   7  -5   10.46    1.05
  -1   7  -5    9.67    0.91
   1  -7   5    7.95    0.98
   1  -7   5   10.63    0.95
  -2   7  -5    7.39    0.87
  -2   7  -5    6.24    0.68
   2  -7   5    9.00    0.82
  -3   7  -5    1.63    0.31
  -3   7  -5    1.42    0.24
   3  -7   5    0.84    0.36
  -4   7  -5   16.94    1.46
  -4   7  -5   15.13    1.27
   4  -7   5   13.36    1.35
  -5   7  -5    0.38    0.43
   5  -7   5    0.82    0.56
  -6   7  -5    1.13    0.33
   6  -7   5    0.43    0.48
  -7   7  -5   11.26    1.30
   6   6  -5   11.40    1.42
   5   6  -5   -0.04    0.55
  -5  -6   5    0.70    0.50
   4   6  -5   16.98    1.97
   3   6  -5   12.52    1.30
   3   6  -5   10.59    1.19
  -3  -6   5   11.84    1.12
   2   6  -5    1.19    0.48
  -2  -6   5    0.81    0.34
   1   6  -5    0.45    0.35
  -1  -6   5   -0.02    0.32
   0   6  -5    9.73    0.93
   0   6  -5    9.63    0.87
   0  -6   5   10.15    0.92
   0  -6   5    8.38    0.90
  -1   6  -5    1.49    0.33
  -1   6  -5    0.96    0.24
   1  -6   5    0.38    0.32
   1  -6   5    1.49    0.31
  -2   6  -5   75.40    5.11
  -2   6  -5   79.55    5.43
   2  -6   5   81.39    5.40
  -3   6  -5   20.88    1.35
  -3   6  -5   20.27    1.70
   3  -6   5   19.94    1.64
  -4   6  -5   12.60    1.14
  -4   6  -5   11.11    1.02
  -5   6  -5    9.80    0.99
   5  -6   5    8.02    0.91
  -6   6  -5   12.66    1.14
  -6   6  -5   13.41    1.29
   6  -6   5   13.46    1.25
  -7   6  -5    0.20    0.46
  -7   6  -5   -0.31    0.52
   7   5  -5    0.60    0.74
   6   5  -5    6.28    1.03
   5   5  -5    0.90    0.41
   4   5  -5   34.27    2.49
   4   5  -5   32.88    2.76
   4   5  -5   32.23    2.54
  -4  -5   5   33.40    2.32
  -4  -5   5   32.62    2.62
   3   5  -5    0.05    0.44
  -3  -5   5    0.03    0.23
  -3  -5   5    0.13    0.24
   2   5  -5    0.07    0.31
   2   5  -5    0.24    0.19
  -2  -5   5    0.09    0.23
  -2  -5   5    0.43    0.21
   1   5  -5   71.54    4.61
   1   5  -5   66.09    4.60
  -1  -5   5   66.56    4.53
  -1  -5   5   64.96    4.58
   0   5  -5    7.74    0.77
   0   5  -5    7.58    0.73
   0  -5   5    8.46    0.76
   0  -5   5    7.89    0.75
  -1   5  -5    3.76    0.47
  -1   5  -5    3.13    0.32
   1  -5   5    2.44    0.41
  -2   5  -5   16.58    1.38
  -2   5  -5   15.95    1.15
  -3   5  -5  110.02    7.26
  -3   5  -5  105.59    7.34
   3  -5   5  115.97    7.35
  -4   5  -5    0.60    0.20
   4  -5   5    0.89    0.27
  -5   5  -5    7.74    0.87
   5  -5   5    8.17    0.82
  -6   5  -5    6.55    0.73
  -6   5  -5    7.43    0.88
  -6   5  -5    5.31    0.86
  -7   5  -5    6.77    0.91
  -7   5  -5    5.25    0.86
  -7   5  -5    5.83    0.77
  -8   5  -5   14.38    1.55
   7   4  -5   -0.16    0.62
  -7  -4   5    0.32    0.29
   6   4  -5    8.33    1.13
  -6  -4   5   11.21    1.09
   5   4  -5   -0.33    0.37
   5   4  -5   -0.02    0.70
   5   4  -5   -0.06    0.38
  -5  -4   5    0.04    0.19
  -5  -4   5    0.17    0.34
   4   4  -5    0.25    0.44
   4   4  -5    0.19    0.36
  -4  -4   5    0.53    0.18
  -4  -4   5    0.93    0.28
   3   4  -5    5.84    0.57
   3   4  -5    5.42    0.57
   3   4  -5    5.41    0.66
  -3  -4   5    5.77    0.62
  -3  -4   5    5.27    0.52
   2   4  -5   32.23    2.38
   2   4  -5   34.21    2.42
  -2  -4   5   34.51    2.34
  -2  -4   5   31.87    2.44
   1   4  -5    0.52    0.13
  -1  -4   5    0.34    0.17
   0   4  -5    0.25    0.14
   0   4  -5    0.59    0.17
   0  -4   5    0.44    0.14
   0  -4   5    0.26    0.18
  -1   4  -5   37.32    2.48
  -1   4  -5   35.16    2.63
   1  -4   5   38.00    2.62
  -2   4  -5   16.72    1.36
  -2   4  -5   16.41    1.12
   2  -4   5   16.60    1.31
  -3   4  -5   27.93    2.13
  -3   4  -5   28.23    2.07
   3  -4   5   28.79    2.09
  -4   4  -5    1.64    0.34
   4  -4   5    1.43    0.27
  -5   4  -5    0.40    0.32
  -5   4  -5    0.07    0.25
  -6   4  -5    3.21    0.52
  -7   4  -5    0.01    0.39
  -7   4  -5    0.28    0.43
  -7   4  -5    0.20    0.34
  -8   4  -5    4.89    0.86
   8   3  -5   37.41    3.19
   7   3  -5    0.08    0.59
  -7  -3   5    0.41    0.37
   6   3  -5    9.29    1.16
  -6  -3   5   11.36    1.09
   5   3  -5   23.20    1.83
   5   3  -5   21.63    2.00
   5   3  -5   22.40    1.90
  -5  -3   5   25.01    1.88
  -5  -3   5   22.88    1.93
   4   3  -5    1.96    0.38
   4   3  -5    2.56    0.36
  -4  -3   5    2.87    0.38
  -4  -3   5    3.46    0.42
   3   3  -5   51.28    3.22
   3   3  -5   45.86    3.21
   3   3  -5   41.34    3.06
  -3  -3   5   41.22    3.21
  -3  -3   5   45.14    3.13
  -3  -3   5   46.64    3.00
   2   3  -5   -0.01    0.10
   2   3  -5   -0.01    0.19
  -2  -3   5    0.05    0.14
  -2  -3   5    0.05    0.11
   1   3  -5    0.74    0.17
  -1  -3   5    0.96    0.18
   0   3  -5  206.70   13.35
   0   3  -5  200.26   13.43
   0  -3   5  225.20   13.43
  -1   3  -5  164.21   10.71
  -1   3  -5  163.56   10.54
   1  -3   5  172.63   10.70
  -2   3  -5    3.37    0.40
  -2   3  -5    3.39    0.39
   2  -3   5    2.95    0.34
  -3   3  -5   35.43    2.54
  -3   3  -5   34.61    2.58
   3  -3   5   37.31    2.53
  -4   3  -5   50.59    3.53
  -4   3  -5   51.84    3.58
  -5   3  -5    0.56    0.32
  -5   3  -5    0.09    0.25
  -5   3  -5    0.18    0.22
  -6   3  -5    5.91    0.60
  -6   3  -5    4.73    0.70
  -7   3  -5    6.32    0.78
  -7   3  -5    6.56    0.90
  -7   3  -5    8.18    0.92
  -8   3  -5    0.62    0.52
  -8  -2   5   52.51    4.01
   7   2  -5    0.39    0.38
  -7  -2   5    0.71    0.28
   6   2  -5    0.53    0.34
   6   2  -5   -0.12    0.50
   6   2  -5    0.04    0.46
   5   2  -5   53.73    3.82
   5   2  -5   55.06    3.77
  -5  -2   5   55.88    3.79
  -5  -2   5   49.92    3.84
   4   2  -5   -0.02    0.22
   4   2  -5    0.02    0.10
   4   2  -5   -0.02    0.26
  -4  -2   5   -0.04    0.19
  -4  -2   5    0.25    0.18
   3   2  -5    3.59    0.43
   3   2  -5    3.66    0.44
   3   2  -5    4.33    0.40
  -3  -2   5    4.37    0.43
  -3  -2   5    4.47    0.50
   2   2  -5    8.27    0.70
   2   2  -5    8.56    0.76
  -2  -2   5    8.25    0.76
  -2  -2   5    9.33    0.72
   1   2  -5    1.62    0.20
   1   2  -5    1.07    0.19
  -1  -2   5    1.23    0.22
  -1  -2   5    1.12    0.18
  -1  -2   5    1.46    0.22
   0   2  -5    0.08    0.08
   0   2  -5    0.09    0.09
   0  -2   5    0.12    0.09
   0  -2   5    0.03    0.10
  -1   2  -5  149.08    8.86
  -1   2  -5  123.72    8.74
  -2   2  -5    0.78    0.15
  -2   2  -5    0.43    0.10
   2  -2   5    0.69    0.11
  -3   2  -5    0.08    0.13
  -3   2  -5    0.00    0.16
   3  -2   5    0.00    0.07
  -4   2  -5    6.31    0.66
  -4   2  -5    7.42    0.77
   4  -2   5    8.66    0.79
  -5   2  -5    1.04    0.29
  -5   2  -5    0.66    0.36
  -5   2  -5    1.80    0.36
  -6   2  -5    0.25    0.27
  -6   2  -5    0.25    0.38
  -6   2  -5    0.39    0.33
   6  -2   5    0.37    0.18
  -7   2  -5    0.24    0.37
  -7   2  -5    0.32    0.51
  -7   2  -5    0.40    0.43
   7  -2   5    0.55    0.31
   7  -2   5    0.11    0.24
  -8   2  -5   12.77    1.39
   8  -2   5   12.83    1.30
   9   1  -5    0.30    0.74
  -9  -1   5   -0.37    0.49
   8   1  -5   29.80    2.50
  -8  -1   5   32.75    2.63
   7   1  -5   54.56    4.09
   7   1  -5   53.69    4.04
   7   1  -5   58.83    4.29
  -7  -1   5   61.86    4.21
   6   1  -5    2.49    0.46
   6   1  -5    1.48    0.30
   6   1  -5    1.72    0.42
  -6  -1   5    2.50    0.37
   5   1  -5   29.10    2.05
   5   1  -5   26.52    2.05
  -5  -1   5   27.34    2.08
  -5  -1   5   25.23    2.07
   4   1  -5   55.37    3.68
   4   1  -5   60.87    3.92
   4   1  -5   60.31    3.96
  -4  -1   5   56.80    3.91
  -4  -1   5   53.15    3.93
   3   1  -5   42.49    2.64
   3   1  -5   35.14    2.46
   3   1  -5   39.61    2.65
  -3  -1   5   36.27    2.58
  -3  -1   5   35.31    2.64
  -3  -1   5   37.06    2.65
   2   1  -5   30.63    2.08
   2   1  -5   31.41    2.18
  -2  -1   5   31.32    2.11
  -2  -1   5   30.46    2.20
  -2  -1   5   31.67    2.19
   1   1  -5    0.66    0.12
  -1  -1   5    0.70    0.12
   0   1  -5    7.17    0.57
   0   1  -5    6.95    0.61
   0  -1   5    7.38    0.60
  -1   1  -5   67.95    4.82
  -1   1  -5   76.03    4.95
   1  -1   5   78.13    4.78
  -2   1  -5  356.78   21.71
  -2   1  -5  304.52   21.55
   2  -1   5  362.86   21.70
  -3   1  -5   12.43    1.02
  -3   1  -5   12.07    1.02
  -3   1  -5   13.00    1.15
   3  -1   5   14.81    1.19
  -4   1  -5   56.35    4.02
  -4   1  -5   62.44    4.26
  -4   1  -5   55.80    4.10
   4  -1   5   66.36    4.27
  -5   1  -5  127.53    8.98
  -5   1  -5  126.83    8.88
   5  -1   5  150.80    9.04
  -6   1  -5   27.34    2.01
  -6   1  -5   26.80    2.18
  -6   1  -5   24.54    2.16
   6  -1   5   30.05    2.26
  -7   1  -5    0.88    0.42
  -7   1  -5    0.15    0.61
  -7   1  -5    0.26    0.37
   7  -1   5    0.15    0.39
   7  -1   5    0.49    0.34
  -8   1  -5   15.16    1.54
   8  -1   5   16.25    1.56
   9   0  -5    3.89    0.84
   8   0  -5    6.17    0.84
  -8   0   5    5.88    0.72
   7   0  -5    2.46    0.55
   7   0  -5    2.14    0.46
   7   0  -5    1.99    0.46
   6   0  -5    1.97    0.34
   6   0  -5    2.39    0.47
   5   0  -5    7.99    0.77
   5   0  -5    7.99    0.53
   5   0  -5    7.68    0.74
  -5   0   5    8.57    0.81
   4   0  -5    2.85    0.32
   4   0  -5    2.54    0.42
  -4   0   5    3.08    0.35
  -4   0   5    3.16    0.39
  -4   0   5    3.59    0.41
   3   0  -5    7.80    0.63
   3   0  -5    7.41    0.62
  -3   0   5    6.24    0.68
  -3   0   5    7.20    0.65
  -3   0   5    7.35    0.66
   2   0  -5   18.37    1.32
  -2   0   5   19.55    1.34
  -2   0   5   17.24    1.27
  -2   0   5   18.01    1.36
   1   0  -5   -0.04    0.06
  -1   0   5    0.10    0.07
  -1   0   5    0.03    0.08
   0   0  -5  108.08    7.16
   0   0   5  111.94    7.06
  -1   0  -5    0.34    0.10
   1   0   5    0.31    0.12
  -2   0  -5   18.22    1.44
  -2   0  -5   15.51    1.22
   2   0   5   18.42    1.44
  -3   0  -5    0.58    0.18
  -3   0  -5    0.22    0.21
   3   0   5    0.36    0.16
  -4   0  -5    0.00    0.15
  -4   0  -5    0.00    0.26
  -4   0  -5    0.19    0.22
   4   0   5    0.22    0.19
  -5   0  -5   26.23    1.88
  -5   0  -5   24.41    1.97
  -5   0  -5   22.89    2.06
   5   0   5   28.75    2.16
  -6   0  -5    6.13    0.67
  -6   0  -5    6.88    0.84
  -7   0  -5   21.87    1.98
   7   0   5   25.50    2.10
  -8   0  -5    4.31    0.81
   8   0   5    5.32    0.87
   9  -1  -5   14.57    1.39
  -9   1   5   15.69    1.54
   8  -1  -5    8.16    0.82
   8  -1  -5    5.35    0.87
   8  -1  -5    5.83    1.02
  -8   1   5    8.04    0.90
   7  -1  -5   12.00    1.15
   7  -1  -5   12.15    1.14
   7  -1  -5   11.89    1.08
  -7   1   5   12.54    1.19
   6  -1  -5   99.61    6.32
   6  -1  -5  102.11    6.31
   6  -1  -5   89.27    6.29
  -6   1   5   85.78    6.38
   5  -1  -5   -0.04    0.17
   5  -1  -5    0.02    0.15
  -5   1   5   -0.18    0.17
  -5   1   5   -0.01    0.24
   4  -1  -5    2.69    0.30
   4  -1  -5    2.88    0.31
  -4   1   5    2.54    0.37
  -4   1   5    2.55    0.32
  -4   1   5    2.80    0.32
   3  -1  -5  160.79    8.90
   3  -1  -5  152.83    8.98
  -3   1   5  136.96    8.98
  -3   1   5  122.83    8.87
  -3   1   5  124.14    8.93
  -2   1   5    0.24    0.07
  -2   1   5    0.30    0.12
  -2   1   5    0.31    0.10
   1  -1  -5    4.44    0.44
  -1   1   5    5.12    0.44
  -1   1   5    3.81    0.33
   0  -1  -5   20.51    1.58
   0   1   5   21.09    1.60
  -1  -1  -5   12.17    1.05
  -1  -1  -5   11.10    0.78
   1   1   5   11.91    1.02
  -2  -1  -5   93.78    6.28
  -2  -1  -5   98.24    6.85
   2   1   5  103.68    6.61
  -3  -1  -5  108.50    7.21
  -3  -1  -5  102.04    6.85
   3   1   5  108.15    7.14
  -4  -1  -5    9.71    1.05
  -4  -1  -5    9.60    0.88
   4   1   5   10.36    1.02
  -5  -1  -5   37.29    2.58
  -5  -1  -5   34.33    2.44
  -5  -1  -5   30.28    2.65
   5   1   5   36.52    2.77
  -6  -1  -5   79.45    5.04
  -6  -1  -5   64.05    5.32
  -6  -1  -5   78.96    5.20
   6   1   5   77.13    5.42
  -7  -1  -5    0.09    0.45
  -7  -1  -5    0.33    0.41
   7   1   5    0.58    0.49
  -8  -1  -5    0.51    0.50
   8   1   5   -0.16    0.60
   9  -2  -5    9.11    0.85
  -9   2   5    8.32    1.01
   8  -2  -5    5.25    0.77
   8  -2  -5    6.40    1.05
   8  -2  -5    7.60    0.74
  -8   2   5    8.72    0.99
   7  -2  -5    2.08    0.36
   7  -2  -5    1.88    0.39
   7  -2  -5    2.86    0.23
   7  -2  -5    2.82    0.39
  -7   2   5    2.12    0.44
   6  -2  -5   38.56    2.65
   6  -2  -5   40.87    2.64
   6  -2  -5   35.33    2.58
   6  -2  -5   38.24    2.43
  -6   2   5   33.70    2.73
  -6   2   5   33.01    2.60
   5  -2  -5   -0.04    0.15
   5  -2  -5   -0.10    0.16
  -5   2   5   -0.01    0.16
  -5   2   5   -0.16    0.25
   4  -2  -5  134.94    7.79
   4  -2  -5  120.48    7.66
  -4   2   5  115.04    7.77
  -4   2   5  108.66    7.81
   3  -2  -5    0.45    0.11
  -3   2   5    0.31    0.16
  -3   2   5    0.29    0.07
  -3   2   5    0.62    0.14
   2  -2  -5   12.25    0.96
  -2   2   5   11.37    0.88
  -2   2   5   12.42    0.96
  -2   2   5   11.86    0.82
   1  -2  -5  205.46   12.93
  -1   2   5  192.07   12.71
  -1   2   5  208.74   12.91
   0  -2  -5   14.31    1.21
   0   2   5   14.74    1.22
  -1  -2  -5   14.26    1.26
   1   2   5   14.79    1.26
  -2  -2  -5   51.96    3.20
  -2  -2  -5   47.76    3.55
   2   2   5   46.28    3.48
  -3  -2  -5   20.66    1.85
   3   2   5   22.95    1.87
  -4  -2  -5    1.15    0.26
   4   2   5    1.83    0.39
  -5  -2  -5    2.32    0.48
   5   2   5    2.89    0.56
  -6  -2  -5   -0.10    0.35
  -6  -2  -5    0.26    0.35
   6   2   5   -0.07    0.40
  -7  -2  -5    5.58    0.78
   7   2   5    5.97    0.92
 -10   3   5    9.13    1.25
   9  -3  -5    3.67    0.52
  -9   3   5    3.10    0.67
   8  -3  -5    0.92    0.24
   8  -3  -5    0.19    0.49
   8  -3  -5    1.39    0.23
   8  -3  -5    0.55    0.37
  -8   3   5    1.14    0.36
   7  -3  -5    0.63    0.16
   7  -3  -5    0.15    0.34
  -7   3   5    0.57    0.35
   6  -3  -5  129.30    8.83
   6  -3  -5  154.01    9.04
   6  -3  -5  154.23    8.95
  -6   3   5  129.18    9.02
  -6   3   5  128.64    9.23
   5  -3  -5   79.47    5.19
   5  -3  -5   83.85    5.12
  -5   3   5   77.69    5.29
  -5   3   5   77.38    5.44
   4  -3  -5   13.14    0.90
   4  -3  -5   12.78    0.94
  -4   3   5   12.01    1.09
  -4   3   5   12.94    1.04
   3  -3  -5   28.48    1.94
  -3   3   5   26.00    2.01
  -3   3   5   28.66    1.99
   2  -3  -5   26.30    1.94
  -2   3   5   27.63    1.93
   1  -3  -5   16.99    1.39
  -1   3   5   18.24    1.39
   0  -3  -5    8.07    0.79
   0   3   5    8.18    0.80
  -1  -3  -5    2.24    0.43
   1   3   5    3.03    0.41
  -2  -3  -5   28.28    2.25
   2   3   5   28.50    2.24
   2   3   5   26.06    2.01
  -3  -3  -5   16.87    1.58
   3   3   5   15.87    1.40
   3   3   5   18.03    1.59
  -4  -3  -5   33.32    2.76
   4   3   5   31.61    2.54
   4   3   5   37.97    2.86
  -5  -3  -5    2.91    0.46
   5   3   5    2.67    0.48
  -6  -3  -5    4.36    0.65
   6   3   5    4.10    0.63
  -7  -3  -5   23.97    1.96
   7   3   5   20.04    2.07
   9  -4  -5    9.76    0.77
  -9   4   5    8.54    1.15
   8  -4  -5    7.49    0.67
   8  -4  -5    4.90    0.89
  -8   4   5    6.68    0.92
   7  -4  -5    2.22    0.40
  -7   4   5    2.64    0.55
  -7   4   5    2.38    0.40
   6  -4  -5   15.58    1.18
   6  -4  -5   15.68    1.19
  -6   4   5   14.43    1.40
  -6   4   5   15.28    1.23
   5  -4  -5   11.46    0.87
  -5   4   5   12.33    1.14
  -5   4   5   12.61    1.00
   4  -4  -5    2.03    0.23
  -4   4   5    2.45    0.31
  -4   4   5    2.23    0.33
   3  -4  -5    2.81    0.34
   2  -4  -5   24.97    1.93
  -2   4   5   28.43    1.96
   1  -4  -5    2.81    0.42
  -1   4   5    2.97    0.27
  -1   4   5    3.38    0.42
   0  -4  -5  107.12    7.12
   0   4   5  102.57    6.80
   0   4   5  107.66    7.08
  -1  -4  -5   33.30    2.58
   1   4   5   32.51    2.32
   1   4   5   33.24    2.56
  -2  -4  -5    0.02    0.28
   2   4   5   -0.03    0.25
   2   4   5    0.06    0.18
  -3  -4  -5   60.45    4.54
   3   4   5   57.92    4.24
   3   4   5   64.09    4.55
   4   4   5   79.69    5.48
   4   4   5   68.49    5.10
   5   4   5    0.49    0.47
   6   4   5    1.12    0.63
   9  -5  -5   12.40    1.03
  -9   5   5   10.12    1.34
   8  -5  -5    0.35    0.31
   8  -5  -5   -0.18    0.44
  -8   5   5    0.03    0.47
   7  -5  -5    3.10    0.52
   7  -5  -5    2.75    0.49
  -7   5   5    3.65    0.46
  -7   5   5    3.43    0.65
   6  -5  -5   29.45    2.16
  -6   5   5   26.43    2.29
  -6   5   5   29.70    2.11
   5  -5  -5    7.71    0.48
   5  -5  -5    5.99    0.66
  -5   5   5    7.31    0.68
  -5   5   5    6.47    0.78
  -4   5   5   30.22    2.16
   3  -5  -5    5.32    0.57
  -3   5   5    6.81    0.57
   2  -5  -5   17.26    1.42
  -2   5   5   17.86    1.40
   1  -5  -5    6.43    0.74
  -1   5   5    7.59    0.57
  -1   5   5    8.07    0.76
   0  -5  -5   45.28    3.35
   0   5   5   44.04    3.02
   0   5   5   45.74    3.32
  -1  -5  -5    5.38    0.67
   1   5   5    5.06    0.54
   1   5   5    7.09    0.78
  -2  -5  -5   -0.14    0.47
   2   5   5   -0.04    0.32
   2   5   5   -0.02    0.22
   3   5   5   14.58    1.41
   3   5   5   18.92    1.71
   4   5   5    9.59    1.08
   5   5   5    8.66    1.04
  -9   6   5    0.36    0.48
   8  -6  -5   14.99    1.49
  -8   6   5   17.86    1.34
  -8   6   5   14.11    1.58
   7  -6  -5   33.63    2.20
   7  -6  -5   32.78    2.44
  -7   6   5   27.56    2.50
  -7   6   5   32.75    2.31
   6  -6  -5   28.20    1.69
   6  -6  -5   25.96    2.01
  -6   6   5   26.29    1.92
  -6   6   5   23.44    2.14
   5  -6  -5    6.62    0.74
  -5   6   5    7.53    0.70
  -5   6   5    7.21    0.83
   4  -6  -5   58.78    4.13
  -3   6   5    7.77    0.71
  -2   6   5    2.72    0.38
  -1   6   5    3.62    0.50
   0  -6  -5    0.02    0.39
   0   6   5    0.46    0.18
   0   6   5    0.77    0.25
  -1  -6  -5   15.96    1.71
   1   6   5   20.68    1.77
   1   6   5   19.77    1.47
   2   6   5   34.95    2.74
   2   6   5   29.12    2.33
   3   6   5    3.27    0.63
   3   6   5    5.01    0.83
   4   6   5   21.79    2.04
   5   6   5   26.80    2.43
  -8   7   5   14.52    1.23
  -8   7   5   12.86    1.34
   7  -7  -5    6.78    0.94
  -7   7   5    6.39    0.81
   6  -7  -5    0.02    0.44
  -6   7   5    0.25    0.29
  -6   7   5    0.35    0.39
  -5   7   5    9.42    0.82
  -4   7   5    3.97    0.43
   3  -7  -5    0.14    0.42
  -2   7   5   40.06    2.95
  -1   7   5    2.14    0.44
   0   7   5    4.44    0.64
   0   7   5    3.63    0.67
   1   7   5    1.57    0.37
   2   7   5   -0.18    0.44
   2   7   5    0.25    0.54
   3   7   5    0.26    0.60
   4   7   5   19.03    2.00
  -8   8   5   -0.39    0.38
  -8   8   5   -0.25    0.51
  -7   8   5    8.57    0.90
  -7   8   5    7.06    0.90
   6  -8  -5    4.49    0.71
  -6   8   5    5.83    0.80
  -6   8   5    6.60    0.72
   5  -8  -5   15.58    1.59
  -5   8   5   21.40    1.54
   4  -8  -5   30.26    2.57
  -4   8   5   35.60    2.35
  -3   8   5   12.81    1.11
   2  -8  -5    9.20    1.07
  -2   8   5   13.81    1.20
   1  -8  -5   -0.33    0.74
  -1   8   5   -0.01    0.35
   0   8   5    1.17    0.39
   1   8   5    0.68    0.50
   1   8   5    0.75    0.51
   2   8   5   -0.04    0.62
  -7   9   5    0.06    0.38
  -7   9   5    1.44    0.54
  -6   9   5    0.06    0.45
  -5   9   5    0.11    0.41
   4  -9  -5    0.10    0.83
  -4   9   5    0.01    0.27
   3  -9  -5   -0.12    0.66
  -3   9   5    0.55    0.35
  -2   9   5    0.92    0.39
  -1   9   5    0.37    0.46
   0   9   5   27.61    2.43
   1   9   5    0.73    0.67
  -3  10   5    4.54    0.80
  -2  10   5   16.40    1.58
  -2  10  -6    2.38    0.70
   2 -10   6    0.15    0.61
   2   9  -6   -0.05    0.52
  -2  -9   6    0.81    0.57
   1   9  -6    0.31    0.62
  -1  -9   6    0.75    0.54
   0   9  -6    0.54    0.55
   0  -9   6   -0.18    0.47
  -1   9  -6    2.89    0.75
   1  -9   6    4.39    0.73
   2  -9   6   16.48    1.52
   3  -9   6    7.86    1.00
   4  -9   6    0.10    0.50
   4   8  -6    1.52    0.75
  -4  -8   6    1.51    0.68
   3   8  -6   26.94    2.40
  -3  -8   6   26.52    2.26
   2   8  -6   20.08    1.85
  -2  -8   6   17.97    1.69
  -1  -8   6    1.10    0.72
   0   8  -6    7.71    1.12
   0  -8   6    9.51    0.92
  -1   8  -6   10.43    1.07
  -1   8  -6    8.75    1.01
   1  -8   6   10.93    1.06
  -2   8  -6    0.13    0.37
  -2   8  -6    0.94    0.35
   2  -8   6    0.03    0.70
   2  -8   6    0.46    0.34
  -3   8  -6   10.08    1.09
   3  -8   6    9.98    1.06
  -4   8  -6    0.06    0.49
  -4   8  -6    0.86    0.56
   4  -8   6    0.09    0.58
  -5   8  -6    3.81    0.66
   5  -8   6    1.71    0.89
   5   7  -6   -0.25    0.66
  -5  -7   6    0.36    0.64
   4   7  -6    0.56    0.58
  -4  -7   6    0.39    0.39
   3   7  -6    0.49    0.36
  -3  -7   6    0.48    0.43
  -2  -7   6    5.72    0.75
   1   7  -6    0.37    0.52
   0   7  -6   27.68    2.09
   0   7  -6   28.16    2.27
   0  -7   6   26.31    2.16
   0  -7   6   28.98    2.21
  -1   7  -6    0.49    0.32
  -1   7  -6    0.83    0.26
   1  -7   6    0.61    0.29
   1  -7   6    0.23    0.45
  -2   7  -6    4.10    0.48
   2  -7   6    3.36    0.57
  -3   7  -6   14.47    1.00
  -3   7  -6   15.07    1.34
   3  -7   6   12.72    1.33
  -4   7  -6    8.30    0.94
  -4   7  -6    7.04    0.84
   4  -7   6    7.60    0.80
  -5   7  -6    0.74    0.39
   5  -7   6    0.22    0.60
  -6   7  -6    6.19    0.92
   6  -7   6    4.01    0.81
   6   6  -6    0.15    0.71
   5   6  -6    8.22    0.97
  -5  -6   6    7.59    1.02
   4   6  -6    2.72    0.68
  -4  -6   6    1.70    0.43
  -3  -6   6    5.40    0.62
   2   6  -6   66.99    4.38
   2   6  -6   61.78    4.28
  -2  -6   6   55.99    4.30
  -2  -6   6   59.17    4.18
   1   6  -6   20.34    1.62
   1   6  -6   20.40    1.57
  -1  -6   6   16.56    1.47
  -1  -6   6   18.50    1.54
   0   6  -6    0.62    0.25
   0   6  -6    0.33    0.28
   0  -6   6    0.21    0.34
   0  -6   6    0.77    0.22
  -1   6  -6    9.11    0.87
  -1   6  -6    7.06    0.66
   1  -6   6    7.32    0.74
  -2   6  -6   11.72    1.06
  -2   6  -6    9.66    0.79
   2  -6   6    9.83    0.95
  -3   6  -6    8.02    0.88
   3  -6   6    7.29    0.80
  -4   6  -6    2.05    0.47
   4  -6   6    1.53    0.42
  -5   6  -6   13.66    1.23
  -5   6  -6   10.01    1.06
   5  -6   6   12.40    1.17
  -6   6  -6   -0.24    0.39
  -6   6  -6    0.05    0.49
  -6   6  -6   -0.08    0.39
   6  -6   6    0.03    0.54
  -7   6  -6    2.01    0.54
   7   5  -6    8.70    1.29
   6   5  -6    1.49    0.44
  -6  -5   6    2.06    0.42
   5   5  -6   17.03    1.83
  -5  -5   6   17.62    1.62
  -4  -5   6   44.11    3.03
  -4  -5   6   45.11    3.38
   3   5  -6   -0.01    0.35
   3   5  -6    0.04    0.21
  -3  -5   6    0.02    0.26
  -3  -5   6    0.28    0.27
   2   5  -6   10.57    0.96
   2   5  -6   10.48    0.95
  -2  -5   6    9.69    0.94
  -2  -5   6    8.62    0.85
   1   5  -6    9.83    0.90
   1   5  -6    9.86    0.91
  -1  -5   6    9.39    0.88
  -1  -5   6   10.40    0.93
   0   5  -6    0.61    0.16
   0   5  -6    0.46    0.23
   0  -5   6    0.81    0.19
   0  -5   6    0.42    0.18
  -1   5  -6   26.59    1.94
  -1   5  -6   22.82    1.73
   1  -5   6   25.13    1.88
  -2   5  -6   85.37    5.84
  -2   5  -6   85.42    5.51
   2  -5   6   86.89    5.79
  -3   5  -6   33.90    2.58
  -3   5  -6   34.59    2.52
  -4   5  -6   40.30    2.98
  -4   5  -6   38.70    2.87
   4  -5   6   42.36    2.96
  -5   5  -6   36.75    2.87
  -5   5  -6   42.89    3.02
   5  -5   6   41.72    2.93
  -6   5  -6    1.66    0.40
  -6   5  -6    1.38    0.42
  -7   5  -6    0.04    0.52
  -7   5  -6    0.20    0.48
  -8   5  -6   21.86    2.32
   7   4  -6    0.02    0.62
  -7  -4   6    1.22    0.42
  -6  -4   6    6.97    0.80
  -6  -4   6    6.84    0.85
   5   4  -6   -0.03    0.38
  -5  -4   6    0.13    0.26
  -5  -4   6    0.22    0.27
   4   4  -6    4.84    0.65
   4   4  -6    4.39    0.68
  -4  -4   6    6.23    0.66
   3   4  -6    0.37    0.16
   3   4  -6    0.02    0.26
  -3  -4   6    0.00    0.18
  -3  -4   6    0.42    0.22
   2   4  -6    1.17    0.25
   2   4  -6    0.53    0.27
  -2  -4   6    0.87    0.17
  -2  -4   6    0.85    0.17
   1   4  -6   11.44    0.98
   1   4  -6   10.89    1.00
  -1  -4   6   12.31    0.97
  -1  -4   6   11.93    1.00
   0   4  -6    0.75    0.16
   0   4  -6    0.88    0.23
   0  -4   6    1.06    0.20
  -1   4  -6   14.66    1.21
  -1   4  -6   14.17    1.05
   2  -4   6    1.95    0.36
  -3   4  -6    1.66    0.34
  -3   4  -6    2.33    0.38
   3  -4   6    1.62    0.28
  -4   4  -6    0.03    0.24
  -4   4  -6    0.07    0.23
   4  -4   6    0.14    0.19
  -5   4  -6   12.66    1.15
  -5   4  -6   12.14    1.08
  -5   4  -6   13.71    1.27
  -6   4  -6    3.69    0.65
  -6   4  -6    3.09    0.64
  -6   4  -6    2.83    0.56
  -7   4  -6   -0.16    0.48
  -7   4  -6    0.36    0.48
  -7   4  -6    0.13    0.54
  -8   4  -6    0.41    0.56
   8   3  -6    7.13    1.09
  -8  -3   6    6.15    0.90
  -7  -3   6   23.53    2.05
   6   3  -6   16.77    1.66
  -6  -3   6   17.55    1.52
  -6  -3   6   16.81    1.53
   5   3  -6    1.79    0.37
   5   3  -6    1.48    0.42
   4   3  -6   38.67    2.71
   4   3  -6   41.74    2.84
   4   3  -6   39.07    2.89
  -4  -3   6   36.46    2.91
  -4  -3   6   39.71    2.83
   3   3  -6  173.39   10.46
   3   3  -6  152.93   10.24
  -3  -3   6  153.53   10.42
   2   3  -6    4.28    0.50
   2   3  -6    4.67    0.46
  -2  -3   6    4.66    0.50
  -2  -3   6    3.95    0.41
   1   3  -6   27.01    2.04
   1   3  -6   28.11    2.04
  -1  -3   6   29.58    2.09
  -1  -3   6   29.93    2.03
   0   3  -6  224.79   14.74
   0   3  -6  225.08   14.83
   0  -3   6  248.46   14.83
  -1   3  -6    1.59    0.28
  -1   3  -6    1.27    0.19
   1  -3   6    1.65    0.24
   1  -3   6    1.18    0.26
  -2   3  -6    2.68    0.35
  -2   3  -6    2.45    0.35
   2  -3   6    2.24    0.28
  -3   3  -6    0.12    0.21
  -3   3  -6    0.25    0.13
   3  -3   6    0.21    0.07
  -4   3  -6    0.01    0.22
  -5   3  -6   42.50    3.09
  -5   3  -6   38.11    2.96
  -5   3  -6   42.01    2.93
  -6   3  -6   79.45    5.71
  -6   3  -6   89.40    5.95
  -7   3  -6    0.23    0.53
  -7   3  -6    0.52    0.44
  -7   3  -6    0.28    0.46
  -8   3  -6   18.59    1.82
   8   2  -6    1.97    0.72
  -8  -2   6    2.40    0.51
   7   2  -6    0.09    0.42
  -7  -2   6    0.25    0.35
   6   2  -6    0.19    0.25
   6   2  -6   -0.14    0.34
   6   2  -6   -0.04    0.52
  -6  -2   6    0.03    0.28
  -6  -2   6    0.32    0.31
   5   2  -6    2.00    0.41
   5   2  -6    1.77    0.36
  -5  -2   6    2.51    0.42
   4   2  -6   19.02    1.56
   4   2  -6   18.52    1.40
   4   2  -6   21.86    1.59
  -4  -2   6   20.25    1.56
  -4  -2   6   19.95    1.63
   3   2  -6    7.72    0.67
   3   2  -6    7.85    0.74
   3   2  -6    9.48    0.78
  -3  -2   6    8.62    0.74
  -3  -2   6    8.35    0.77
   2   2  -6    1.92    0.25
   2   2  -6    1.25    0.21
  -2  -2   6    1.76    0.27
  -2  -2   6    2.05    0.30
   1   2  -6    6.46    0.58
   1   2  -6    6.73    0.60
  -1  -2   6    6.87    0.62
  -1  -2   6    6.33    0.61
   0   2  -6    1.12    0.20
   0   2  -6    0.90    0.16
   0  -2   6    1.34    0.20
  -1   2  -6    0.23    0.14
  -1   2  -6    0.37    0.12
   1  -2   6    0.46    0.11
  -2   2  -6   63.74    4.47
  -2   2  -6   71.40    4.59
   2  -2   6   65.47    4.32
  -3   2  -6    7.27    0.69
  -3   2  -6    6.75    0.74
   3  -2   6    8.20    0.63
  -4   2  -6    0.61    0.19
  -4   2  -6    1.39    0.32
  -4   2  -6    0.78    0.25
  -5   2  -6   -0.05    0.22
  -5   2  -6    0.11    0.32
  -5   2  -6    0.03    0.32
   5  -2   6    0.46    0.23
  -6   2  -6    1.50    0.38
  -6   2  -6    0.63    0.44
  -6   2  -6    0.95    0.30
  -7   2  -6    0.25    0.43
  -7   2  -6    0.41    0.43
  -7   2  -6    0.54    0.65
   7  -2   6    0.16    0.27
   7  -2   6    0.61    0.38
  -8   2  -6    2.39    0.59
   8  -2   6    2.92    0.70
   9   1  -6    1.78    0.67
  -9  -1   6    0.80    0.48
   8   1  -6    5.27    0.88
  -8  -1   6    6.09    0.74
   7   1  -6    2.40    0.44
   7   1  -6    1.40    0.66
   6   1  -6   11.53    1.11
   6   1  -6   10.75    1.12
  -6  -1   6   13.61    1.17
   5   1  -6   49.30    3.30
   5   1  -6   56.50    3.61
   5   1  -6   52.17    3.62
  -5  -1   6   46.29    3.59
  -5  -1   6   51.31    3.62
   4   1  -6    0.38    0.11
   4   1  -6    0.16    0.19
   4   1  -6    0.10    0.23
  -4  -1   6    0.62    0.19
  -4  -1   6    0.43    0.17
   3   1  -6   46.95    3.12
   3   1  -6   50.90    3.33
  -3  -1   6   45.59    3.28
  -3  -1   6   47.56    3.30
  -3  -1   6   46.82    3.20
   2   1  -6  181.02   12.10
   2   1  -6  198.10   12.22
  -2  -1   6  196.79   12.21
  -2  -1   6  196.38   12.12
  -2  -1   6  184.02   12.23
   1   1  -6   18.79    1.33
   1   1  -6   17.44    1.31
  -1  -1   6   18.40    1.37
   0   1  -6  116.97    7.90
   0   1  -6  130.22    8.05
   0  -1   6  122.06    7.89
  -1   1  -6   64.26    4.34
  -1   1  -6   59.78    4.22
   1  -1   6   67.19    4.18
  -2   1  -6    1.23    0.23
   2  -1   6    1.35    0.25
  -3   1  -6    2.61    0.44
  -3   1  -6    2.31    0.40
  -3   1  -6    1.59    0.34
  -4   1  -6    1.22    0.21
  -4   1  -6    0.96    0.22
  -5   1  -6   -0.02    0.22
  -5   1  -6   -0.03    0.37
  -5   1  -6    0.06    0.30
   5  -1   6    0.03    0.23
  -6   1  -6    0.25    0.52
  -6   1  -6    0.07    0.30
  -6   1  -6    0.77    0.36
   6  -1   6    0.67    0.31
  -7   1  -6   12.51    1.28
   7  -1   6   13.21    1.33
  -8   1  -6   -0.09    0.51
   8  -1   6    0.69    0.55
   9   0  -6    6.85    1.01
   8   0  -6    3.82    0.64
  -8   0   6    3.56    0.69
   7   0  -6    4.36    0.75
   7   0  -6    5.28    0.72
   7   0  -6    3.81    0.59
  -7   0   6    5.71    0.71
   6   0  -6   41.01    2.96
   6   0  -6   42.40    2.94
  -6   0   6   39.63    3.05
   5   0  -6   59.32    3.81
   5   0  -6   64.45    4.12
   5   0  -6   62.73    4.13
  -5   0   6   55.42    4.11
  -5   0   6   56.97    4.13
  -5   0   6   60.73    4.17
   4   0  -6   17.45    1.36
   4   0  -6   18.59    1.33
  -4   0   6   17.13    1.38
  -4   0   6   16.23    1.35
  -4   0   6   16.60    1.35
   3   0  -6   16.44    1.26
  -3   0   6   15.80    1.28
  -3   0   6   16.55    1.26
   2   0  -6    5.99    0.52
  -2   0   6    5.29    0.47
  -2   0   6    5.52    0.55
  -2   0   6    6.30    0.54
   1   0  -6   25.37    1.85
  -1   0   6   24.39    1.78
   0   0  -6    0.04    0.13
   0   0   6    0.19    0.10
  -1   0  -6   39.88    2.77
  -1   0  -6   33.08    2.45
   1   0   6   41.37    2.78
  -2   0  -6    8.72    0.71
  -2   0  -6    7.83    0.99
   2   0   6   10.77    0.94
  -3   0  -6   28.91    2.30
  -3   0  -6   27.60    2.06
   3   0   6   32.06    2.33
  -4   0  -6  155.91    9.95
  -4   0  -6  153.63   10.25
  -4   0  -6  141.24    9.92
   4   0   6  165.16   10.23
  -5   0  -6   12.87    1.40
  -5   0  -6   11.28    1.28
  -5   0  -6   14.36    1.21
   5   0   6   16.16    1.40
  -6   0  -6    6.05    0.76
  -6   0  -6    8.53    0.87
   6   0   6    7.91    0.87
  -7   0  -6   18.10    1.61
  -7   0  -6   14.61    1.48
   7   0   6   18.13    1.89
  -8   0  -6   15.50    1.52
   8   0   6   13.44    1.47
   9  -1  -6   11.25    1.15
  -9   1   6   12.00    1.32
   8  -1  -6    0.52    0.57
   8  -1  -6    1.06    0.34
   8  -1  -6    0.51    0.63
  -8   1   6    1.33    0.42
   7  -1  -6    1.05    0.41
   7  -1  -6    1.75    0.39
  -7   1   6    1.92    0.41
   6  -1  -6   34.24    2.50
   6  -1  -6   35.20    2.48
   6  -1  -6   36.31    2.20
  -6   1   6   32.35    2.51
  -6   1   6   31.60    2.58
   5  -1  -6    3.55    0.41
   5  -1  -6    3.38    0.41
  -5   1   6    3.86    0.48
  -5   1   6    4.04    0.46
   4  -1  -6    2.05    0.27
   4  -1  -6    1.95    0.26
  -4   1   6    2.26    0.29
  -4   1   6    2.34    0.33
  -4   1   6    2.22    0.34
   3  -1  -6   10.87    0.88
  -3   1   6   10.21    0.85
  -3   1   6   10.21    0.83
  -3   1   6   10.81    0.91
   2  -1  -6   17.53    1.31
  -2   1   6   14.90    1.16
  -2   1   6   16.29    1.27
  -2   1   6   18.12    1.21
   1  -1  -6   90.04    5.91
  -1   1   6   93.33    5.84
  -1   1   6   84.98    5.62
   0  -1  -6   34.43    2.54
   0   1   6   36.13    2.57
  -1  -1  -6   38.92    2.92
  -1  -1  -6   40.81    2.54
   1   1   6   40.03    2.91
  -2  -1  -6   69.70    4.80
  -2  -1  -6   78.11    5.24
   2   1   6   77.76    5.18
  -3  -1  -6  101.14    6.78
  -3  -1  -6   93.43    6.34
   3   1   6  100.54    6.71
  -4  -1  -6    4.26    0.55
   4   1   6    5.40    0.59
  -5  -1  -6    1.94    0.55
  -5  -1  -6    2.85    0.51
   5   1   6    3.44    0.52
  -6  -1  -6   11.46    1.04
  -6  -1  -6   13.43    1.24
   6   1   6   13.84    1.33
   7   1   6   14.43    1.46
   9  -2  -6    0.54    0.33
  -9   2   6   -0.05    0.48
   8  -2  -6    2.58    0.50
   8  -2  -6    2.95    0.55
   7  -2  -6   12.79    1.18
   7  -2  -6   11.81    1.11
   7  -2  -6   13.01    1.13
   7  -2  -6   13.84    0.91
  -7   2   6   14.00    1.27
   6  -2  -6    3.31    0.46
   6  -2  -6    3.14    0.47
  -6   2   6    3.54    0.47
  -6   2   6    3.84    0.56
   5  -2  -6    8.60    0.71
   5  -2  -6    7.38    0.70
  -5   2   6    8.52    0.84
  -5   2   6    8.28    0.76
   4  -2  -6   24.30    1.59
  -4   2   6   21.23    1.70
  -4   2   6   22.90    1.74
   3  -2  -6    0.22    0.11
  -3   2   6    0.22    0.07
  -3   2   6    0.49    0.18
  -3   2   6    0.41    0.12
   2  -2  -6   30.22    2.14
  -2   2   6   25.94    2.00
  -2   2   6   32.00    2.15
  -2   2   6   31.57    1.98
   1  -2  -6   55.34    3.69
  -1   2   6   47.18    3.38
  -1   2   6   57.45    3.69
   0  -2  -6   53.28    3.76
   0   2   6   53.41    3.73
  -1  -2  -6    1.08    0.21
  -2  -2  -6   -0.09    0.27
  -2  -2  -6    0.02    0.13
   2   2   6   -0.09    0.17
  -3  -2  -6    4.22    0.44
   3   2   6    3.57    0.54
  -4  -2  -6   15.19    1.53
  -4  -2  -6   18.42    1.33
   4   2   6   17.03    1.59
  -5  -2  -6   45.93    3.17
   5   2   6   42.74    3.40
  -6  -2  -6    1.84    0.38
   6   2   6    1.54    0.46
  -7  -2  -6    9.79    1.08
   7   2   6    7.69    1.12
   9  -3  -6    5.60    0.53
  -9   3   6    6.16    0.80
   8  -3  -6   32.10    2.04
   8  -3  -6   29.45    2.27
   8  -3  -6   28.98    2.09
  -8   3   6   31.60    2.59
   7  -3  -6    0.16    0.16
   7  -3  -6    0.13    0.14
   7  -3  -6    0.00    0.32
  -7   3   6    0.04    0.27
  -7   3   6   -0.04    0.28
   6  -3  -6   34.77    2.29
   6  -3  -6   36.13    2.37
  -6   3   6   31.84    2.44
  -6   3   6   31.59    2.59
   5  -3  -6   64.48    3.87
   5  -3  -6   62.07    3.87
  -5   3   6   53.30    4.06
  -5   3   6   54.41    3.99
   4  -3  -6    4.35    0.42
  -4   3   6    4.72    0.48
  -4   3   6    4.76    0.53
   3  -3  -6   68.94    4.39
  -3   3   6   67.04    4.41
  -3   3   6   61.32    4.37
   2  -3  -6   96.26    6.18
  -2   3   6   87.15    6.02
  -2   3   6   96.97    6.15
   1  -3  -6    0.59    0.16
   0  -3  -6   20.41    1.74
   0   3   6   22.46    1.74
  -1  -3  -6    0.43    0.20
  -2  -3  -6    8.53    0.99
   2   3   6    9.48    0.96
  -3  -3  -6    0.33    0.45
   3   3   6    0.31    0.33
   3   3   6    0.55    0.26
  -4  -3  -6    8.11    0.72
   4   3   6    6.64    0.86
  -5  -3  -6    3.90    0.54
  -6  -3  -6    1.72    0.39
   6   3   6    0.85    0.42
   9  -4  -6    8.31    0.74
  -9   4   6   10.43    1.15
   8  -4  -6   17.05    1.50
   8  -4  -6   19.98    1.44
  -8   4   6   19.03    1.77
   7  -4  -6    6.40    0.77
   7  -4  -6    7.96    0.70
  -7   4   6    6.97    0.88
  -7   4   6    6.53    0.71
   6  -4  -6    7.29    0.61
   6  -4  -6    5.91    0.64
  -6   4   6    7.53    0.71
  -6   4   6    7.35    0.83
   5  -4  -6   19.92    1.22
   5  -4  -6   16.54    1.23
  -5   4   6   17.19    1.47
  -5   4   6   17.63    1.41
   4  -4  -6   43.34    2.87
  -4   4   6   40.36    3.01
  -4   4   6   43.20    2.95
   3  -4  -6  138.76    8.69
  -3   4   6  129.31    8.69
   2  -4  -6   15.09    1.26
  -2   4   6   15.74    1.25
  -1   4   6    1.14    0.16
   0  -4  -6   65.26    4.56
   0   4   6   65.39    4.52
   0   4   6   62.80    4.25
  -1  -4  -6   15.67    1.47
   1   4   6   16.65    1.48
   1   4   6   15.06    1.23
  -2  -4  -6    2.19    0.48
   2   4   6    2.93    0.47
  -3  -4  -6    0.11    0.59
   3   4   6   -0.04    0.35
   3   4   6    0.39    0.32
   4   4   6    0.08    0.52
   4   4   6    0.67    0.40
   5   4   6    2.74    0.55
   6   4   6   24.83    2.32
   9  -5  -6    0.82    0.33
  -9   5   6    0.32    0.43
   8  -5  -6   14.01    1.15
   8  -5  -6   10.44    1.06
  -8   5   6   12.43    1.28
  -8   5   6   12.22    1.09
   7  -5  -6   15.00    1.09
   7  -5  -6   13.23    1.20
  -7   5   6   13.31    1.34
  -7   5   6   13.90    1.16
   6  -5  -6    4.84    0.40
  -6   5   6    5.28    0.54
  -6   5   6    4.63    0.69
  -5   5   6    4.25    0.49
  -5   5   6    4.03    0.55
   4  -5  -6   12.15    0.99
  -4   5   6   13.65    1.07
  -4   5   6   12.10    1.12
   3  -5  -6    6.47    0.68
  -3   5   6    8.06    0.69
   2  -5  -6   22.85    1.85
  -2   5   6   24.59    1.83
   1  -5  -6   14.72    1.33
  -1   5   6   15.71    1.31
  -1   5   6   14.81    1.05
   0  -5  -6    1.03    0.32
   0   5   6    1.43    0.34
  -1  -5  -6   44.78    3.48
   1   5   6   42.75    3.10
   1   5   6   48.78    3.49
  -2  -5  -6    5.72    0.96
   2   5   6    6.35    0.67
   3   5   6    3.61    0.56
   4   5   6    2.59    0.57
   5   5   6   11.27    1.23
   8  -6  -6    0.84    0.33
  -8   6   6    1.52    0.41
  -8   6   6    0.33    0.49
   7  -6  -6    3.06    0.28
   7  -6  -6    2.03    0.41
  -7   6   6    3.74    0.58
  -7   6   6    2.34    0.52
  -6   6   6    1.00    0.38
  -6   6   6    0.87    0.26
   5  -6  -6    0.03    0.31
  -5   6   6   -0.16    0.22
  -5   6   6    0.16    0.33
   3  -6  -6    4.88    0.61
  -3   6   6    6.96    0.62
   2  -6  -6   11.18    1.07
  -2   6   6   13.66    1.14
   1  -6  -6   39.71    3.06
  -1   6   6   41.82    3.06
   0  -6  -6    2.49    0.48
   0   6   6    3.77    0.40
  -1  -6  -6   23.12    2.27
   1   6   6   27.24    1.98
   1   6   6   29.95    2.29
   2   6   6   27.70    2.32
   2   6   6   22.54    1.90
   3   6   6    0.22    0.50
   3   6   6   -0.25    0.66
   4   6   6    1.32    0.47
  -8   7   6    2.41    0.53
  -8   7   6    2.24    0.50
   7  -7  -6   -0.05    0.54
  -7   7   6    0.06    0.36
  -7   7   6    0.42    0.45
   6  -7  -6    3.07    0.52
  -6   7   6    4.41    0.68
  -6   7   6    3.98    0.53
   5  -7  -6   18.04    1.68
  -5   7   6   22.80    1.60
  -5   7   6   20.39    1.78
  -4   7   6    2.31    0.34
  -3   7   6   10.81    0.96
  -2   7   6    2.54    0.49
  -1   7   6    1.16    0.30
   0   7   6    0.96    0.33
   1   7   6   16.05    1.48
   1   7   6   13.07    1.20
   2   7   6    3.74    0.66
   2   7   6    5.56    0.88
   3   7   6    0.76    0.64
  -7   8   6    4.19    0.74
  -7   8   6    3.91    0.76
   6  -8  -6   14.83    1.54
  -6   8   6   17.15    1.64
  -6   8   6   20.66    1.50
   5  -8  -6    0.03    0.70
   4  -8  -6   45.71    3.44
   3  -8  -6   -0.48    0.64
  -3   8   6    0.29    0.27
   2  -8  -6    0.62    0.72
   1  -8  -6   28.95    2.57
  -1   8   6   39.02    2.74
   0   8   6    3.79    0.69
   1   8   6    4.87    0.86
   2   8   6   10.84    1.36
  -6   9   6    2.77    0.57
  -6   9   6    3.03    0.50
  -5   9   6    0.49    0.41
   4  -9  -6   16.26    1.75
   3  -9  -6    0.85    0.97
  -2   9   6   -0.14    0.44
   0   9   6    1.06    0.57
   2   9  -7   23.55    2.14
  -2  -9   7   22.20    2.04
   1   9  -7   40.80    3.48
  -1  -9   7   44.55    3.29
   0  -9   7    2.37    0.51
   1  -9   7    0.06    0.51
   2  -9   7   16.28    1.45
  -3   9  -7    5.19    0.89
   3  -9   7    6.16    0.89
  -4   9  -7    9.09    1.31
   4  -9   7    9.78    1.13
   3   8  -7   13.73    1.45
  -3  -8   7   14.92    1.35
  -2  -8   7    0.48    0.49
  -1  -8   7    9.33    0.96
   0   8  -7    0.61    0.45
   0   8  -7    0.00    0.58
  -1   8  -7    1.80    0.50
   1  -8   7    2.10    0.41
  -2   8  -7    3.28    0.60
  -2   8  -7    4.71    0.85
   2  -8   7    3.90    0.64
  -3   8  -7    5.02    0.85
  -3   8  -7    3.73    0.43
  -4   8  -7   -0.01    0.54
  -4   8  -7    0.09    0.56
   4  -8   7   -0.02    0.66
  -5   8  -7    0.57    0.70
   5   7  -7    0.41    0.72
  -5  -7   7    0.69    0.50
   4   7  -7    4.08    0.71
  -4  -7   7    5.09    0.84
  -3  -7   7   33.43    2.69
   1   7  -7    7.84    0.89
  -1  -7   7    7.00    0.83
   0   7  -7   45.11    3.32
   0   7  -7   45.67    3.45
   0  -7   7   49.30    3.45
  -1   7  -7    1.03    0.37
  -1   7  -7    0.53    0.34
   1  -7   7    0.31    0.51
   1  -7   7    0.94    0.32
  -2   7  -7    0.91    0.40
  -2   7  -7    0.23    0.25
   2  -7   7    0.23    0.53
  -3   7  -7   18.31    1.56
   3  -7   7   15.81    1.54
  -4   7  -7    4.02    0.75
   4  -7   7    2.96    0.51
  -5   7  -7    1.72    0.50
   5  -7   7    1.15    0.54
  -6   7  -7    0.33    0.65
   6   6  -7    0.03    0.54
  -6  -6   7    0.34    0.66
   5   6  -7    2.25    0.61
  -5  -6   7    3.26    0.59
  -4  -6   7    0.57    0.43
  -3  -6   7    2.28    0.47
   2   6  -7   -0.15    0.28
   2   6  -7   -0.03    0.38
  -2  -6   7   -0.07    0.30
   1   6  -7    3.54    0.51
   1   6  -7    3.04    0.63
  -1  -6   7    2.78    0.57
  -1  -6   7    3.95    0.53
   0   6  -7    7.99    0.82
   0   6  -7    8.77    0.87
   0  -6   7    7.30    0.85
   0  -6   7    9.23    0.88
  -1   6  -7    1.33    0.34
   1  -6   7    0.65    0.38
   1  -6   7    1.97    0.39
  -2   6  -7    7.24    0.77
  -2   6  -7    7.03    0.60
   2  -6   7    6.85    0.80
  -3   6  -7   -0.07    0.33
  -3   6  -7    0.00    0.31
   3  -6   7   -0.18    0.31
  -4   6  -7    3.47    0.52
  -4   6  -7    2.97    0.59
   4  -6   7    2.18    0.50
  -5   6  -7    0.08    0.43
  -5   6  -7   -0.15    0.41
   5  -6   7    0.05    0.54
  -6   6  -7    3.34    0.81
  -6   6  -7    4.13    0.78
  -7   6  -7    0.42    0.53
   7   5  -7   -0.37    0.77
   6   5  -7    1.59    0.62
  -6  -5   7    1.51    0.57
   5   5  -7    4.08    0.76
  -5  -5   7    4.18    0.56
  -4  -5   7    9.92    1.05
   3   5  -7    9.70    0.88
   3   5  -7    7.54    0.97
  -3  -5   7    7.93    0.80
  -3  -5   7    9.09    0.90
   2   5  -7   74.55    4.87
   2   5  -7   67.82    4.79
  -2  -5   7   65.28    4.84
  -2  -5   7   73.09    4.72
   1   5  -7    0.10    0.28
   1   5  -7    0.22    0.20
  -1  -5   7    0.46    0.20
  -1  -5   7    0.07    0.25
   0   5  -7   45.25    3.33
   0   5  -7   43.82    3.19
   0  -5   7   48.48    3.34
   0  -5   7   48.60    3.29
  -1   5  -7  312.91   20.09
  -1   5  -7  303.90   20.33
   1  -5   7  337.44   20.32
  -2   5  -7    5.63    0.48
  -2   5  -7    6.02    0.69
   2  -5   7    4.11    0.63
  -3   5  -7    0.06    0.26
  -3   5  -7    0.33    0.27
   3  -5   7   -0.02    0.24
  -4   5  -7   50.61    3.71
  -4   5  -7   53.60    3.80
   4  -5   7   53.62    3.74
  -5   5  -7    0.30    0.34
  -5   5  -7    1.20    0.39
  -6   5  -7    2.52    0.51
  -7   5  -7    0.72    0.52
   7   4  -7    5.33    0.83
  -7  -4   7    6.50    0.91
   6   4  -7    0.45    0.46
  -6  -4   7    0.17    0.35
  -6  -4   7    0.64    0.35
  -5  -4   7    0.32    0.37
   4   4  -7   16.27    1.55
   4   4  -7   20.62    1.52
  -4  -4   7   19.65    1.67
   3   4  -7    3.25    0.41
   3   4  -7    2.45    0.54
  -3  -4   7    3.57    0.49
   2   4  -7    2.82    0.39
   2   4  -7    1.97    0.41
  -2  -4   7    2.30    0.40
  -2  -4   7    2.18    0.33
   1   4  -7    0.02    0.20
   1   4  -7    0.02    0.13
  -1  -4   7    0.02    0.19
  -1  -4   7   -0.01    0.17
   0   4  -7   26.93    2.10
   0   4  -7   27.40    1.98
   0  -4   7   29.99    2.08
  -1   4  -7   25.45    1.83
  -1   4  -7   26.53    2.02
   1  -4   7   27.32    1.97
  -2   4  -7    2.31    0.40
  -2   4  -7    2.71    0.37
   2  -4   7    2.13    0.31
  -3   4  -7   10.99    1.03
  -3   4  -7   11.76    1.07
  -4   4  -7   -0.02    0.28
  -4   4  -7    0.11    0.20
  -5   4  -7    1.84    0.39
  -5   4  -7    1.20    0.35
  -5   4  -7    1.31    0.39
  -6   4  -7    0.89    0.44
  -6   4  -7    0.33    0.48
  -6   4  -7    0.56    0.41
  -7   4  -7   -0.18    0.67
  -7   4  -7    0.02    0.51
  -8   4  -7   -0.03    0.58
   8   3  -7    0.30    0.69
  -8  -3   7    0.17    0.34
   7   3  -7   35.24    3.11
  -7  -3   7   39.76    3.02
   6   3  -7    7.67    1.00
  -6  -3   7    8.70    0.90
  -6  -3   7    7.12    0.83
   5   3  -7    0.00    0.38
   5   3  -7    0.43    0.17
   5   3  -7    0.03    0.41
  -5  -3   7    0.08    0.20
  -5  -3   7    0.16    0.24
   4   3  -7    4.72    0.50
   4   3  -7    4.42    0.51
   4   3  -7    3.34    0.61
  -4  -3   7    5.25    0.55
  -4  -3   7    4.05    0.58
   3   3  -7   13.60    1.11
   3   3  -7   13.91    1.16
  -3  -3   7   13.81    1.20
   2   3  -7   17.91    1.38
   2   3  -7   17.23    1.37
  -2  -3   7   17.99    1.43
   1   3  -7   15.31    1.34
   1   3  -7   15.86    1.26
  -1  -3   7   17.33    1.32
   0   3  -7    1.81    0.25
   0   3  -7    2.56    0.30
   0  -3   7    1.79    0.30
  -1   3  -7   34.08    2.45
   1  -3   7   33.73    2.32
  -2   3  -7  101.02    6.39
  -2   3  -7   91.21    6.29
   2  -3   7   92.48    6.09
  -3   3  -7    8.10    0.79
  -3   3  -7    7.80    0.81
  -4   3  -7    0.35    0.30
  -4   3  -7    0.08    0.28
  -4   3  -7    0.54    0.18
   4  -3   7    0.25    0.08
  -5   3  -7   26.60    2.19
  -5   3  -7   28.34    2.19
  -5   3  -7   27.62    2.08
  -6   3  -7    2.72    0.51
  -6   3  -7    0.90    0.49
  -6   3  -7    1.79    0.37
  -7   3  -7    0.27    0.48
  -7   3  -7    0.57    0.67
  -8   3  -7    0.55    0.60
   8   2  -7   10.13    1.30
  -8  -2   7   14.48    1.39
   7   2  -7    1.21    0.44
  -7  -2   7    1.47    0.39
   6   2  -7    0.29    0.56
   6   2  -7    0.64    0.47
   5   2  -7   31.62    2.51
   5   2  -7   31.39    2.26
   5   2  -7   36.61    2.51
  -5  -2   7   32.10    2.56
  -5  -2   7   34.54    2.48
   4   2  -7   11.04    0.91
   4   2  -7   10.43    1.04
   4   2  -7   12.36    1.05
  -4  -2   7   12.12    1.11
  -4  -2   7   12.95    1.03
   3   2  -7    5.46    0.51
   3   2  -7    4.69    0.54
  -3  -2   7    6.29    0.57
  -3  -2   7    5.89    0.61
  -3  -2   7    6.12    0.63
   2   2  -7   13.51    1.07
   2   2  -7   12.92    1.02
  -2  -2   7   12.83    1.09
  -2  -2   7   12.62    1.07
   1   2  -7   43.69    3.04
   1   2  -7   46.13    3.04
  -1  -2   7   44.17    3.08
   0   2  -7   -0.03    0.12
   0   2  -7   -0.04    0.13
   0  -2   7   -0.03    0.12
  -1   2  -7   -0.04    0.17
  -1   2  -7   -0.06    0.14
   1  -2   7    0.04    0.10
  -2   2  -7    0.27    0.12
  -2   2  -7    0.06    0.19
   2  -2   7    0.35    0.11
  -3   2  -7   22.63    1.88
  -3   2  -7   22.18    1.78
   3  -2   7   25.42    1.64
  -4   2  -7    0.33    0.29
  -4   2  -7    0.96    0.28
  -4   2  -7    0.76    0.30
  -5   2  -7    6.24    0.84
  -5   2  -7    9.00    0.84
  -5   2  -7    6.97    0.74
  -6   2  -7    2.98    0.61
  -6   2  -7    1.61    0.40
  -6   2  -7    1.54    0.54
  -7   2  -7   11.50    1.26
   7  -2   7   13.65    1.32
   9   1  -7   14.77    1.55
  -9  -1   7   14.24    1.39
   8   1  -7    1.50    0.50
  -8  -1   7    1.94    0.45
   7   1  -7   24.67    2.19
   7   1  -7   24.23    2.20
  -7  -1   7   26.11    2.13
   6   1  -7    7.36    0.93
   6   1  -7    9.05    0.93
  -6  -1   7   10.25    0.93
  -6  -1   7    9.02    0.91
   5   1  -7   15.57    1.32
   5   1  -7   15.45    1.13
   5   1  -7   17.59    1.32
  -5  -1   7   16.85    1.36
  -5  -1   7   14.69    1.36
   4   1  -7    5.24    0.51
   4   1  -7    4.82    0.44
   4   1  -7    4.77    0.52
  -4  -1   7    5.36    0.54
  -4  -1   7    4.69    0.56
  -4  -1   7    5.19    0.57
   3   1  -7   10.80    0.90
   3   1  -7   10.42    0.82
  -3  -1   7   10.39    0.94
  -3  -1   7   10.67    0.85
  -3  -1   7   10.27    0.92
   2   1  -7   70.54    4.77
   2   1  -7   71.82    4.87
  -2  -1   7   72.68    4.83
  -2  -1   7   77.81    4.76
  -2  -1   7   72.49    4.89
   1   1  -7   67.28    4.23
   1   1  -7   61.83    4.22
  -1  -1   7   62.07    4.26
   0   1  -7  161.80    9.97
   0   1  -7  147.72    9.81
   0  -1   7  149.33    9.79
  -1   1  -7    5.17    0.53
   1  -1   7    5.56    0.50
  -2   1  -7   73.11    4.86
  -2   1  -7   66.66    4.67
  -2   1  -7   69.85    4.60
  -3   1  -7   62.94    4.39
  -3   1  -7   62.88    4.55
   3  -1   7   68.77    4.60
  -4   1  -7    2.59    0.48
  -4   1  -7    2.85    0.41
  -4   1  -7    3.61    0.47
   4  -1   7    3.78    0.47
  -5   1  -7    1.04    0.28
  -5   1  -7    0.85    0.45
  -5   1  -7    1.65    0.38
  -6   1  -7   21.20    1.85
   6  -1   7   24.24    1.96
  -7   1  -7   23.10    2.10
   7  -1   7   25.90    2.17
   9   0  -7   12.66    1.30
   8   0  -7    1.71    0.47
  -8   0   7    3.09    0.62
   7   0  -7    0.45    0.33
   7   0  -7    0.03    0.53
   7   0  -7    0.00    0.47
  -7   0   7    0.89    0.35
   6   0  -7    1.06    0.37
   6   0  -7    1.58    0.15
   6   0  -7    0.84    0.33
  -6   0   7    1.77    0.37
   5   0  -7    1.73    0.32
   5   0  -7    2.38    0.23
   5   0  -7    1.99    0.37
  -5   0   7    2.25    0.41
  -5   0   7    2.35    0.35
  -5   0   7    2.22    0.36
   4   0  -7   14.82    1.10
   4   0  -7   13.85    1.12
  -4   0   7   12.97    1.14
  -4   0   7   13.01    1.10
  -4   0   7   12.90    1.13
   3   0  -7   26.51    1.84
  -3   0   7   24.29    1.78
  -3   0   7   24.18    1.87
  -3   0   7   24.30    1.82
   2   0  -7   20.20    1.49
  -2   0   7   21.03    1.49
  -2   0   7   20.01    1.55
  -2   0   7   20.21    1.41
   1   0  -7   72.85    4.85
  -1   0   7   70.24    4.75
   0   0  -7  270.64   17.39
   0   0   7  272.80   17.23
  -1   0  -7   16.13    1.15
  -1   0  -7   18.16    1.47
  -2   0  -7    6.68    0.80
  -2   0  -7    7.78    0.63
   2   0   7    9.27    0.88
  -3   0  -7   45.75    3.34
  -3   0  -7   50.45    3.67
   3   0   7   54.28    3.70
  -4   0  -7    4.02    0.50
  -4   0  -7    3.38    0.70
  -4   0  -7    4.49    0.53
   4   0   7    5.40    0.66
  -5   0  -7   14.60    1.22
  -5   0  -7   14.01    1.20
  -6   0  -7    0.11    0.38
  -6   0  -7   -0.16    0.36
   6   0   7    0.12    0.38
  -7   0  -7    0.34    0.48
   7   0   7   -0.25    0.46
   9  -1  -7    0.29    0.46
  -9   1   7    0.24    0.50
   8  -1  -7   12.48    1.34
   8  -1  -7   13.75    1.32
  -8   1   7   15.38    1.44
   7  -1  -7    1.19    0.32
   7  -1  -7    0.69    0.39
   7  -1  -7    0.52    0.42
  -7   1   7    1.04    0.35
   6  -1  -7   14.76    1.25
   6  -1  -7   15.60    1.23
  -6   1   7   13.94    1.32
  -6   1   7   14.64    1.28
   5  -1  -7   23.44    1.65
   5  -1  -7   21.87    1.71
  -5   1   7   19.19    1.58
  -5   1   7   20.60    1.67
  -5   1   7   19.79    1.66
   4  -1  -7   54.48    3.37
  -4   1   7   43.44    3.25
  -4   1   7   47.24    3.37
  -4   1   7   47.49    3.32
   3  -1  -7    5.14    0.49
  -3   1   7    4.46    0.49
  -3   1   7    5.34    0.54
  -3   1   7    5.48    0.51
   2  -1  -7    2.22    0.29
  -2   1   7    1.69    0.24
  -2   1   7    2.46    0.26
  -2   1   7    2.31    0.31
   1  -1  -7  167.98   10.80
  -1   1   7  164.85   10.68
   0  -1  -7    1.90    0.35
   0   1   7    2.57    0.36
  -1  -1  -7    0.47    0.16
   1   1   7    0.79    0.21
  -2  -1  -7    0.30    0.13
  -2  -1  -7   -0.06    0.27
   2   1   7    0.25    0.14
  -3  -1  -7    7.87    0.98
  -3  -1  -7    9.38    0.75
   3   1   7   10.53    1.03
  -4  -1  -7    1.49    0.31
   4   1   7    1.91    0.44
  -5  -1  -7    0.18    0.62
  -5  -1  -7    0.08    0.30
  -5  -1  -7    0.62    0.32
   5   1   7    0.77    0.34
  -6  -1  -7    0.11    0.40
  -6  -1  -7    0.28    0.40
   6   1   7   -0.18    0.38
  -7  -1  -7    0.05    0.48
   7   1   7    0.61    0.56
   9  -2  -7    4.39    0.68
  -9   2   7    5.42    0.89
   8  -2  -7   20.37    1.82
   8  -2  -7   24.79    1.96
   8  -2  -7   23.11    1.80
  -8   2   7   25.78    2.12
   7  -2  -7    8.58    0.86
   7  -2  -7    9.96    0.70
   7  -2  -7    9.47    0.89
   7  -2  -7    7.65    0.88
  -7   2   7    9.18    0.91
  -7   2   7    9.44    1.02
   6  -2  -7   13.05    1.08
   6  -2  -7   11.63    0.96
  -6   2   7   11.42    1.05
  -6   2   7   12.03    1.14
   5  -2  -7   20.05    1.37
   5  -2  -7   19.23    1.45
  -5   2   7   16.54    1.44
  -5   2   7   16.64    1.46
   4  -2  -7    0.02    0.14
  -4   2   7    0.00    0.18
  -4   2   7   -0.16    0.22
  -4   2   7   -0.01    0.10
   3  -2  -7   29.59    2.04
  -3   2   7   24.66    1.90
  -3   2   7   28.23    2.04
   2  -2  -7   15.93    1.26
  -2   2   7   13.91    1.08
  -2   2   7   16.22    1.24
   1  -2  -7   25.12    1.92
  -1   2   7   27.09    1.94
  -1   2   7   22.50    1.57
   0  -2  -7   18.00    1.56
   0   2   7   19.80    1.57
  -1  -2  -7  114.57    7.66
   1   2   7  111.74    7.57
  -2  -2  -7   73.97    5.31
   2   2   7   75.44    5.25
  -3  -2  -7   30.53    1.90
  -3  -2  -7   23.15    2.23
   3   2   7   26.49    2.24
  -4  -2  -7   58.48    4.77
  -4  -2  -7   72.64    4.39
   4   2   7   63.58    4.72
  -5  -2  -7   30.96    2.20
   5   2   7   27.83    2.48
  -6  -2  -7   -0.23    0.47
  -6  -2  -7    0.77    0.41
   6   2   7    0.75    0.49
  -7  -2  -7    1.14    0.48
   7   2   7    0.42    0.63
   9  -3  -7    1.92    0.81
  -9   3   7    3.64    0.74
   8  -3  -7    1.94    0.37
   8  -3  -7    2.34    0.30
   8  -3  -7    2.57    0.51
  -8   3   7    1.86    0.36
   7  -3  -7    0.48    0.31
   7  -3  -7    1.15    0.23
   7  -3  -7    0.56    0.19
   7  -3  -7    0.84    0.19
  -7   3   7    0.84    0.39
  -7   3   7    1.40    0.32
   6  -3  -7    7.07    0.64
   6  -3  -7    6.49    0.62
  -6   3   7    7.17    0.70
  -6   3   7    7.22    0.80
   5  -3  -7   14.03    1.06
  -5   3   7   13.12    1.16
  -5   3   7   14.05    1.18
   4  -3  -7   25.23    1.78
  -4   3   7   22.56    1.78
  -4   3   7   24.70    1.84
   3  -3  -7   16.84    1.30
  -3   3   7   14.54    1.22
  -3   3   7   17.07    1.28
   2  -3  -7   -0.02    0.16
  -2   3   7    0.03    0.06
  -2   3   7    0.03    0.12
  -2   3   7    0.01    0.16
  -1   3   7    2.94    0.40
  -1   3   7    2.40    0.29
   0  -3  -7   27.08    2.16
   0   3   7   27.67    2.15
  -1  -3  -7    0.93    0.30
  -2  -3  -7    9.43    1.15
   2   3   7   13.34    1.19
   3   3   7    5.22    0.67
   4   3   7    2.31    0.42
  -5  -3  -7    7.53    0.80
   5   3   7    7.06    0.97
  -6  -3  -7    3.61    0.69
   6   3   7    2.84    0.67
   9  -4  -7    7.55    0.66
  -9   4   7    7.76    1.05
   8  -4  -7   57.30    3.67
   8  -4  -7   54.10    3.58
  -8   4   7   48.06    3.70
  -8   4   7   50.76    4.01
   7  -4  -7   32.70    2.22
   7  -4  -7   32.19    2.14
  -7   4   7   27.24    2.41
  -7   4   7   28.46    2.28
   6  -4  -7   36.52    2.41
  -6   4   7   35.98    2.64
  -6   4   7   36.90    2.81
   5  -4  -7   33.31    2.30
  -5   4   7   33.72    2.46
  -5   4   7   33.93    2.53
   4  -4  -7    7.68    0.72
  -4   4   7    8.32    0.75
  -4   4   7    8.24    0.76
   3  -4  -7   19.81    1.58
  -3   4   7   21.80    1.59
  -3   4   7   19.73    1.54
   2  -4  -7    0.67    0.21
   1  -4  -7    0.01    0.24
  -1   4   7    0.01    0.10
  -1   4   7    0.21    0.17
   0  -4  -7   11.95    1.17
   0   4   7   10.43    0.91
   0   4   7   13.49    1.14
  -1  -4  -7   15.93    1.45
   1   4   7   17.30    1.49
   1   4   7   13.81    1.21
  -2  -4  -7   62.19    4.61
   2   4   7   65.76    4.60
   2   4   7   58.30    4.26
   3   4   7   19.13    1.75
   3   4   7   26.15    2.11
   4   4   7    3.10    0.66
   5   4   7   26.44    2.42
   9  -5  -7    0.49    0.36
  -9   5   7    0.29    0.42
   8  -5  -7    2.17    0.44
  -8   5   7    3.24    0.65
  -8   5   7    2.55    0.57
   7  -5  -7   -0.05    0.32
   7  -5  -7    0.00    0.19
  -7   5   7    0.20    0.41
  -7   5   7    0.16    0.31
  -6   5   7    1.78    0.42
  -6   5   7    1.90    0.41
   5  -5  -7    1.13    0.24
  -5   5   7    1.20    0.27
  -5   5   7    1.43    0.32
   4  -5  -7   54.03    3.63
  -4   5   7   50.23    3.71
  -4   5   7   56.03    3.70
   3  -5  -7    2.27    0.43
  -3   5   7    3.55    0.41
   2  -5  -7    0.67    0.27
  -2   5   7    1.26    0.31
   1  -5  -7   70.62    5.02
  -1   5   7   75.16    4.98
  -1   5   7   68.39    4.58
   0  -5  -7    3.70    0.68
   0   5   7    3.20    0.40
   0   5   7    4.35    0.56
  -1  -5  -7    0.17    0.47
   1   5   7    0.13    0.29
   1   5   7    0.00    0.27
   2   5   7    7.20    0.91
   2   5   7   10.38    1.05
   3   5   7    0.37    0.32
   3   5   7    0.08    0.55
   4   5   7    0.64    0.51
   5   5   7   10.08    1.32
  -9   6   7    3.63    0.63
  -8   6   7    2.46    0.56
  -8   6   7    3.25    0.47
   7  -6  -7    0.85    0.42
  -7   6   7    1.11    0.42
  -7   6   7    1.62    0.38
   6  -6  -7   17.46    1.56
  -6   6   7   20.37    1.73
  -6   6   7   20.76    1.59
  -5   6   7   23.51    1.95
  -5   6   7   23.99    1.80
   4  -6  -7   19.90    1.57
  -4   6   7   22.10    1.63
  -4   6   7   21.17    1.70
   3  -6  -7    1.37    0.31
   2  -6  -7   21.40    1.83
  -2   6   7   23.72    1.84
   1  -6  -7   20.44    1.90
  -1   6   7   25.32    1.99
  -1   6   7   24.98    1.61
   0  -6  -7    0.52    0.53
   0   6   7    0.45    0.22
   1   6   7    1.64    0.39
   2   6   7    0.01    0.51
   2   6   7    0.72    0.45
   3   6   7   11.13    1.27
   4   6   7   43.86    3.60
  -8   7   7    3.79    0.79
  -8   7   7    4.53    0.82
   7  -7  -7   -0.03    0.56
  -7   7   7   -0.09    0.42
  -7   7   7    0.04    0.38
   6  -7  -7   -0.06    0.47
  -6   7   7    0.15    0.37
  -6   7   7    0.05    0.34
   5  -7  -7    1.92    0.45
  -5   7   7    2.67    0.50
  -3   7   7    5.82    0.66
   2  -7  -7   -0.04    0.48
  -2   7   7    0.37    0.26
   1  -7  -7   -0.17    0.57
  -1   7   7    0.23    0.32
   0   7   7   36.08    2.84
   1   7   7   10.19    1.04
   1   7   7   14.16    1.37
   2   7   7    0.80    0.67
   2   7   7    2.89    0.60
   3   7   7   26.30    2.40
  -7   8   7    0.46    0.50
  -7   8   7    0.16    0.50
  -6   8   7    4.19    0.75
  -6   8   7    5.16    0.67
  -5   8   7    2.70    0.56
  -5   8   7    3.99    0.56
   4  -8  -7    0.91    0.64
  -3   8   7    7.79    0.84
  -2   8   7    5.28    0.74
  -1   8   7    7.79    0.93
   0   8   7   22.34    1.93
   1   8   7    0.74    0.55
  -6   9   7   18.90    1.71
  -5   9   7    0.36    0.46
  -4   9   7    5.37    0.70
  -3   9   7    2.51    0.62
  -2   9   7   17.79    1.64
  -1   9   7    0.62    0.55
   0   9   7    0.70    0.59
  -1  -9   8    1.80    0.64
   0  -9   8    1.94    0.54
   1  -9   8   15.70    1.52
  -2   9  -8    0.07    0.71
   2  -9   8    0.47    0.57
  -3   9  -8    0.89    0.70
   3  -9   8    0.41    0.60
   3   8  -8    1.40    0.69
  -3  -8   8    0.92    0.58
  -2  -8   8    2.57    0.55
   1   8  -8    3.82    0.62
  -1  -8   8    4.63    0.59
   0   8  -8    2.47    0.60
   0   8  -8    0.80    0.64
   0  -8   8    1.49    0.46
  -1   8  -8    8.53    0.97
   1  -8   8    9.23    1.00
  -2   8  -8    0.79    0.38
  -2   8  -8    1.20    0.55
   2  -8   8    1.53    0.47
  -4   8  -8    1.51    0.50
  -5   8  -8    0.88    0.79
   4   7  -8   36.45    3.01
  -4  -7   8   36.92    2.90
  -3  -7   8    5.28    0.67
   2   7  -8    0.02    0.28
  -2  -7   8   -0.13    0.40
   1   7  -8    0.53    0.60
   1   7  -8    2.46    0.43
  -1  -7   8    1.59    0.41
   0   7  -8   -0.04    0.46
   0   7  -8    0.29    0.29
   0  -7   8    0.07    0.34
  -1   7  -8   12.80    1.13
  -1   7  -8   13.24    1.28
   1  -7   8   15.08    1.30
  -2   7  -8   73.64    4.58
  -2   7  -8   68.63    4.97
   2  -7   8   65.24    4.87
  -3   7  -8    1.89    0.52
  -3   7  -8    3.03    0.55
   3  -7   8    1.06    0.62
  -4   7  -8   12.53    1.20
  -4   7  -8   10.90    1.22
   4  -7   8   10.08    1.30
  -5   7  -8   38.12    3.20
  -5   7  -8   47.49    3.32
   5  -7   8   40.97    3.13
   6   6  -8    0.07    0.76
  -6  -6   8    0.88    0.53
   5   6  -8    0.23    0.45
  -5  -6   8    0.21    0.54
  -4  -6   8   -0.06    0.42
  -3  -6   8    0.09    0.64
   2   6  -8    6.66    0.75
  -2  -6   8    7.56    0.81
   1   6  -8    1.35    0.32
   1   6  -8    0.92    0.38
  -1  -6   8    1.13    0.28
   0   6  -8    0.30    0.32
   0   6  -8    0.00    0.31
   0  -6   8   -0.14    0.38
   0  -6   8    0.63    0.20
  -1   6  -8    0.97    0.26
  -1   6  -8    1.29    0.35
   1  -6   8    0.30    0.41
  -2   6  -8    0.54    0.19
  -2   6  -8    1.07    0.36
   2  -6   8    0.27    0.33
  -3   6  -8   -0.04    0.38
  -3   6  -8    0.55    0.39
   3  -6   8   -0.14    0.46
  -4   6  -8    0.61    0.32
  -4   6  -8    0.07    0.44
   4  -6   8    0.12    0.55
  -5   6  -8    1.04    0.51
  -5   6  -8    0.22    0.48
  -6   6  -8    1.10    0.48
  -6   6  -8    1.54    0.58
  -7   6  -8    0.41    0.88
   6   5  -8   25.72    2.36
  -6  -5   8   27.58    2.32
  -5  -5   8    2.97    0.51
   4   5  -8   30.83    2.22
  -4  -5   8   27.77    2.35
   3   5  -8   44.03    3.17
   3   5  -8   46.71    3.26
  -3  -5   8   41.76    3.27
   2   5  -8   29.75    2.26
   2   5  -8   30.74    2.30
  -2  -5   8   30.53    2.18
  -2  -5   8   29.46    2.30
   1   5  -8    1.66    0.30
   1   5  -8    1.37    0.31
  -1  -5   8    1.45    0.27
  -1  -5   8    0.92    0.30
   0   5  -8    1.30    0.26
   0  -5   8    1.12    0.31
  -1   5  -8   21.93    1.78
  -1   5  -8   21.88    1.58
   1  -5   8   21.49    1.69
  -2   5  -8    0.44    0.21
  -2   5  -8    0.13    0.29
   2  -5   8    0.09    0.25
  -3   5  -8    1.30    0.33
  -3   5  -8    2.29    0.42
   3  -5   8    1.62    0.30
  -4   5  -8    0.35    0.37
  -4   5  -8   -0.12    0.36
  -5   5  -8    1.51    0.44
  -6   5  -8   45.93    3.39
  -6   5  -8   43.14    3.43
  -7   5  -8    8.91    1.14
   7   4  -8    0.76    0.66
   6   4  -8    0.21    0.48
  -6  -4   8    0.03    0.36
  -5  -4   8    1.59    0.30
   4   4  -8    0.16    0.21
   4   4  -8   -0.01    0.49
  -4  -4   8    0.53    0.23
   3   4  -8    4.68    0.57
  -3  -4   8    5.36    0.61
   2   4  -8    2.86    0.48
   2   4  -8    3.71    0.47
  -2  -4   8    3.67    0.46
   1   4  -8    0.24    0.23
   1   4  -8    0.44    0.19
  -1  -4   8    0.12    0.19
   0   4  -8  116.04    7.77
   0   4  -8  105.34    7.70
   0  -4   8  131.32    7.75
  -1   4  -8   27.66    1.89
  -1   4  -8   26.44    2.08
  -2   4  -8    4.71    0.60
  -2   4  -8    4.14    0.55
  -3   4  -8   39.11    2.91
  -3   4  -8   39.94    2.92
  -4   4  -8   15.74    1.29
  -4   4  -8   12.32    1.24
  -5   4  -8    0.31    0.37
  -5   4  -8   -0.03    0.45
  -5   4  -8    0.00    0.38
  -6   4  -8    0.41    0.45
  -6   4  -8   -0.21    0.56
  -7   4  -8    7.71    1.04
   8   3  -8   -0.82    0.72
  -8  -3   8   -0.51    0.48
   7   3  -8   11.99    1.38
  -7  -3   8   14.08    1.35
  -6  -3   8    4.29    0.54
  -6  -3   8    3.21    0.68
   5   3  -8   22.01    1.68
   5   3  -8   22.00    1.77
  -5  -3   8   24.89    1.89
  -5  -3   8   22.19    1.91
   4   3  -8    5.39    0.55
   4   3  -8    4.09    0.69
  -4  -3   8    5.91    0.58
  -4  -3   8    5.19    0.61
   3   3  -8   17.33    1.29
   3   3  -8   15.16    1.35
  -3  -3   8   16.26    1.39
   2   3  -8   83.41    5.74
   2   3  -8   91.81    5.81
  -2  -3   8   85.44    5.82
   1   3  -8  102.82    6.73
   1   3  -8   98.87    6.76
  -1  -3   8  102.99    6.78
  -1  -3   8  106.60    6.80
   0   3  -8    0.06    0.17
   0   3  -8    0.11    0.15
   0  -3   8    0.04    0.15
  -1   3  -8    0.45    0.21
   1  -3   8    0.59    0.17
  -2   3  -8   49.15    3.37
  -2   3  -8   46.34    3.28
   2  -3   8   43.02    3.06
  -3   3  -8   32.18    2.34
  -3   3  -8   30.47    2.38
   3  -3   8   30.44    2.09
  -4   3  -8    3.56    0.53
  -4   3  -8    2.32    0.44
  -5   3  -8   11.63    1.10
  -5   3  -8   11.82    1.09
  -5   3  -8    8.50    1.06
   5  -3   8   10.21    0.71
  -6   3  -8    1.36    0.61
  -6   3  -8    2.62    0.45
  -7   3  -8    4.48    0.80
   8   2  -8   14.32    1.59
  -8  -2   8   16.58    1.64
   7   2  -8    5.84    0.89
  -7  -2   8    7.45    0.80
   6   2  -8    3.09    0.37
  -6  -2   8    3.59    0.60
  -6  -2   8    3.96    0.56
   5   2  -8   48.06    3.10
   5   2  -8   39.45    2.85
   5   2  -8   38.39    3.07
  -5  -2   8   44.32    3.10
  -5  -2   8   41.81    3.14
   4   2  -8   43.29    3.08
   4   2  -8   46.40    3.27
  -4  -2   8   45.00    3.32
  -4  -2   8   48.12    3.21
   3   2  -8    1.32    0.28
   3   2  -8    1.75    0.24
  -3  -2   8    2.08    0.36
  -3  -2   8    1.85    0.28
   2   2  -8    5.31    0.51
   2   2  -8    4.87    0.49
  -2  -2   8    5.02    0.53
  -2  -2   8    5.42    0.56
   1   2  -8   16.12    1.25
  -1  -2   8   15.21    1.26
   0   2  -8    1.15    0.21
  -1   2  -8   22.29    1.72
  -1   2  -8   23.63    1.82
   1  -2   8   21.81    1.63
  -2   2  -8    9.62    0.94
  -2   2  -8    9.85    0.90
   2  -2   8   10.61    0.83
  -3   2  -8    3.03    0.42
  -3   2  -8    2.86    0.49
   3  -2   8    3.00    0.35
  -4   2  -8   87.33    5.98
  -4   2  -8   84.59    6.10
  -4   2  -8   83.04    5.95
   4  -2   8   99.38    5.76
  -5   2  -8   35.82    2.47
  -5   2  -8   27.93    2.48
  -6   2  -8    1.81    0.42
  -6   2  -8    3.04    0.53
  -6   2  -8    0.90    0.63
  -7   2  -8   18.77    1.65
   9   1  -8   11.36    1.38
  -9  -1   8   12.19    1.29
   8   1  -8    1.60    0.52
  -8  -1   8    1.39    0.47
  -7  -1   8    6.67    0.83
   6   1  -8   33.59    2.34
   6   1  -8   32.14    2.66
   6   1  -8   38.70    2.65
  -6  -1   8   38.02    2.73
  -6  -1   8   34.95    2.69
   5   1  -8    2.79    0.40
   5   1  -8    3.58    0.36
  -5  -1   8    3.73    0.43
  -5  -1   8    3.80    0.47
   4   1  -8    7.49    0.79
   4   1  -8    8.20    0.68
  -4  -1   8    8.56    0.78
  -4  -1   8    7.96    0.80
  -4  -1   8    8.97    0.83
   3   1  -8    0.23    0.22
   3   1  -8    0.41    0.12
  -3  -1   8    0.47    0.20
  -3  -1   8    0.69    0.21
  -3  -1   8    0.43    0.16
   2   1  -8   -0.01    0.17
   2   1  -8    0.03    0.10
  -2  -1   8    0.05    0.17
  -2  -1   8    0.04    0.12
   1   1  -8    0.13    0.11
   1   1  -8    0.01    0.11
  -1  -1   8    0.35    0.15
   0   1  -8   46.59    3.28
   0   1  -8   50.40    3.43
   0  -1   8   45.92    3.25
  -1   1  -8    0.13    0.15
  -1   1  -8    0.46    0.16
   1  -1   8    0.30    0.13
  -2   1  -8    6.20    0.58
  -2   1  -8    4.72    0.67
  -2   1  -8    5.87    0.59
  -3   1  -8   43.91    3.37
  -3   1  -8   43.24    3.19
   3  -1   8   48.79    3.42
  -4   1  -8    2.61    0.46
  -4   1  -8    2.82    0.48
   4  -1   8    3.04    0.49
  -5   1  -8    0.79    0.50
  -5   1  -8    1.90    0.40
  -5   1  -8    0.99    0.32
  -6   1  -8    1.63    0.47
   6  -1   8    2.68    0.57
  -7   1  -8   -0.08    0.52
   7  -1   8    0.09    0.51
   9   0  -8    0.56    0.57
  -9   0   8    0.14    0.59
   8   0  -8   11.08    1.26
  -8   0   8   12.40    1.18
   7   0  -8   26.71    2.19
  -7   0   8   30.32    2.36
   6   0  -8   13.01    1.09
   6   0  -8   11.55    0.83
   6   0  -8    9.15    1.07
  -6   0   8   11.31    1.08
  -6   0   8   12.94    1.14
   5   0  -8    0.00    0.32
   5   0  -8    0.08    0.23
  -5   0   8    0.12    0.19
  -5   0   8    0.27    0.26
   4   0  -8   60.06    3.89
  -4   0   8   54.92    3.80
  -4   0   8   53.64    3.85
  -4   0   8   55.14    3.91
   3   0  -8   78.46    5.05
  -3   0   8   75.65    5.02
  -3   0   8   72.26    5.08
  -3   0   8   74.57    4.92
  -2   0   8   29.00    1.88
  -2   0   8   27.22    2.04
  -2   0   8   26.00    1.93
   1   0  -8   29.63    2.23
  -1   0   8   29.21    2.14
   0   0  -8    5.48    0.62
   0   0   8    7.11    0.61
  -1   0  -8    0.89    0.15
  -2   0  -8   52.57    3.81
  -2   0  -8   47.71    3.38
   2   0   8   55.94    3.81
  -3   0  -8   16.81    1.39
  -3   0  -8   15.67    1.50
  -3   0  -8   16.81    1.28
   3   0   8   19.59    1.62
  -4   0  -8    2.74    0.48
  -4   0  -8    2.72    0.47
   4   0   8    3.38    0.51
  -5   0  -8   29.14    2.29
  -5   0  -8   30.08    2.30
   5   0   8   33.31    2.60
  -6   0  -8   44.84    3.28
  -7   0  -8    0.68    0.53
   7   0   8    0.44    0.56
   9  -1  -8    1.45    0.51
  -9   1   8    2.14    0.60
   8  -1  -8    9.27    1.27
   8  -1  -8   11.97    1.20
  -8   1   8   11.46    1.20
   7  -1  -8    1.65    0.44
   7  -1  -8    1.61    0.53
   7  -1  -8    2.61    0.20
  -7   1   8    2.78    0.54
   6  -1  -8    1.72    0.40
   6  -1  -8    2.49    0.42
  -6   1   8    2.06    0.41
  -6   1   8    2.60    0.47
   5  -1  -8    0.22    0.29
  -5   1   8    0.77    0.26
  -5   1   8    0.70    0.20
  -5   1   8    0.72    0.25
   4  -1  -8   21.51    1.57
  -4   1   8   18.56    1.50
  -4   1   8   20.56    1.61
  -4   1   8   19.03    1.51
   3  -1  -8   57.63    3.65
  -3   1   8   50.20    3.59
  -3   1   8   51.69    3.47
  -3   1   8   46.93    3.42
   2  -1  -8   49.83    3.38
  -2   1   8   45.81    3.08
  -2   1   8   47.02    3.30
   1  -1  -8   55.08    3.92
  -1   1   8   56.44    3.81
   0  -1  -8    5.52    0.62
  -1  -1  -8   23.68    2.02
   1   1   8   26.28    2.06
  -2  -1  -8  164.48   10.25
  -2  -1  -8  162.28   10.86
   2   1   8  161.54   10.78
  -3  -1  -8   32.56    2.78
  -3  -1  -8   37.14    2.41
   3   1   8   37.03    2.81
  -4  -1  -8   12.92    1.05
   4   1   8   12.10    1.27
  -5  -1  -8    1.75    0.39
  -5  -1  -8    2.31    0.39
   5   1   8    2.57    0.58
  -6  -1  -8    4.61    0.69
   6   1   8    3.11    0.74
  -7  -1  -8    0.49    0.55
   7   1   8    0.63    0.64
   9  -2  -8    0.03    0.40
  -9   2   8    0.33    0.52
   8  -2  -8    3.41    0.62
   8  -2  -8    4.31    0.65
  -8   2   8    4.77    0.76
   7  -2  -8    0.17    0.35
   7  -2  -8   -0.10    0.46
  -7   2   8    0.19    0.27
  -7   2   8    0.61    0.34
   6  -2  -8   10.93    1.09
   6  -2  -8   14.80    1.08
  -6   2   8   12.88    1.16
  -6   2   8   12.48    1.19
   5  -2  -8   17.72    1.34
  -5   2   8   16.94    1.41
  -5   2   8   15.38    1.37
   4  -2  -8   26.19    1.80
  -4   2   8   20.16    1.61
  -4   2   8   22.09    1.71
  -4   2   8   23.52    1.80
   3  -2  -8   53.89    3.45
  -3   2   8   45.17    3.24
  -3   2   8   49.48    3.42
  -3   2   8   46.80    3.22
   2  -2  -8  114.06    7.08
  -2   2   8  111.90    7.00
  -2   2   8   92.72    6.72
   1  -2  -8   12.14    1.15
  -1   2   8   14.68    1.21
   0  -2  -8   63.87    4.55
   0   2   8   64.97    4.52
  -1  -2  -8   55.81    4.13
   1   2   8   58.67    4.14
  -2  -2  -8    0.25    0.37
  -3  -2  -8    8.26    0.66
   3   2   8    7.58    0.87
  -4  -2  -8    0.66    0.28
   4   2   8    0.67    0.35
  -5  -2  -8    1.42    0.37
   5   2   8    1.06    0.44
  -6  -2  -8   17.81    1.47
   6   2   8   14.46    1.59
   9  -3  -8    8.83    0.80
   8  -3  -8    3.91    0.55
   8  -3  -8    4.35    0.56
   8  -3  -8    5.02    0.48
   8  -3  -8    3.66    0.76
  -8   3   8    5.06    0.76
  -8   3   8    5.76    0.72
   7  -3  -8   18.97    1.44
   7  -3  -8   20.25    1.45
  -7   3   8   18.70    1.69
  -7   3   8   17.15    1.55
   6  -3  -8    3.39    0.44
  -6   3   8    3.71    0.48
  -6   3   8    4.26    0.59
   5  -3  -8    1.85    0.33
  -5   3   8    2.04    0.43
  -5   3   8    2.53    0.33
   4  -3  -8    3.05    0.42
  -4   3   8    3.23    0.43
  -4   3   8    3.53    0.40
   3  -3  -8    5.98    0.63
  -3   3   8    6.52    0.62
  -3   3   8    5.99    0.58
  -3   3   8    5.32    0.44
   2  -3  -8    5.39    0.89
  -2   3   8    7.21    0.56
   1  -3  -8   25.21    1.96
  -1   3   8   26.77    1.98
  -1   3   8   22.03    1.57
   0  -3  -8   58.28    4.26
   0   3   8   60.15    4.23
  -1  -3  -8   20.08    1.80
   1   3   8   22.12    1.84
  -2  -3  -8   17.88    1.82
   2   3   8   22.08    1.85
  -3  -3  -8   22.92    2.34
   3   3   8   25.91    2.18
   5   3   8    0.51    0.50
   6   3   8    5.86    1.03
   9  -4  -8    1.60    0.28
  -9   4   8    1.46    0.56
   8  -4  -8   12.60    1.11
   8  -4  -8   13.36    1.08
  -8   4   8   12.29    1.25
  -8   4   8   11.11    1.14
   7  -4  -8    1.30    0.29
  -7   4   8    1.18    0.33
  -7   4   8    0.89    0.42
   6  -4  -8    5.13    0.50
  -6   4   8    5.70    0.65
  -6   4   8    5.71    0.72
   5  -4  -8   21.66    1.64
  -5   4   8   23.66    1.79
  -5   4   8   22.55    1.77
   4  -4  -8    1.07    0.22
  -4   4   8    1.30    0.27
  -4   4   8    1.70    0.33
   3  -4  -8    0.35    0.22
  -3   4   8    1.13    0.21
   2  -4  -8   28.79    2.19
  -2   4   8   25.27    1.79
  -2   4   8   31.72    2.20
  -2   4   8   27.10    1.93
   1  -4  -8   29.01    2.32
  -1   4   8   31.55    2.37
   0  -4  -8   40.50    3.17
   0   4   8   42.30    3.14
  -1  -4  -8    0.09    0.35
   1   4   8    0.14    0.26
  -2  -4  -8    7.55    0.91
   2   4   8    8.49    0.83
   3   4   8    4.53    0.61
   4   4   8    4.37    0.66
   5   4   8    1.36    0.62
   9  -5  -8    0.33    0.40
  -9   5   8    0.88    0.54
   8  -5  -8   18.72    1.50
  -8   5   8   16.08    1.47
  -8   5   8   16.93    1.67
   7  -5  -8   -0.05    0.33
  -7   5   8    0.23    0.34
  -7   5   8    0.14    0.42
   6  -5  -8    0.74    0.19
  -6   5   8    1.20    0.27
  -6   5   8    1.12    0.38
   5  -5  -8   15.69    1.28
  -5   5   8   17.58    1.42
  -5   5   8   18.30    1.51
   4  -5  -8   15.72    1.34
  -4   5   8   16.27    1.39
  -4   5   8   18.47    1.39
   3  -5  -8   -0.02    0.27
  -3   5   8    0.01    0.28
  -3   5   8    0.06    0.17
   2  -5  -8   -0.01    0.30
  -2   5   8    0.53    0.19
   1  -5  -8   23.69    2.06
  -1   5   8   28.07    2.09
   0  -5  -8    5.22    0.70
   0   5   8    5.50    0.53
  -1  -5  -8   33.60    2.88
   1   5   8   33.14    2.51
   1   5   8   38.47    2.88
   2   5   8    8.05    0.99
   3   5   8    0.09    0.64
   3   5   8    0.73    0.35
   4   5   8   61.71    4.79
  -8   6   8   14.63    1.32
  -8   6   8   12.54    1.39
   7  -6  -8    0.00    0.40
  -7   6   8    0.72    0.39
  -7   6   8    0.38    0.46
  -6   6   8    2.16    0.46
  -6   6   8    2.32    0.48
   5  -6  -8    0.18    0.21
  -5   6   8    0.44    0.27
  -5   6   8    0.19    0.37
   4  -6  -8   14.98    1.29
  -4   6   8   16.68    1.34
  -4   6   8   15.71    1.37
   3  -6  -8    8.89    0.99
  -3   6   8   11.72    1.00
   2  -6  -8    0.21    0.39
  -2   6   8    0.32    0.22
   1  -6  -8   24.49    2.17
  -1   6   8   26.54    1.77
  -1   6   8   27.93    2.18
   0  -6  -8   32.49    2.78
   0   6   8   34.43    2.45
   0   6   8   39.94    2.91
   1   6   8    6.27    0.75
   2   6   8    1.28    0.51
   2   6   8    0.42    0.58
   3   6   8   12.25    1.38
  -8   7   8   -0.12    0.52
  -8   7   8    0.03    0.51
  -7   7   8    2.92    0.59
  -7   7   8    3.54    0.58
  -6   7   8    5.00    0.74
  -6   7   8    4.18    0.62
  -5   7   8    1.06    0.42
  -4   7   8    0.78    0.39
   3  -7  -8   12.95    1.37
  -3   7   8   18.14    1.40
  -2   7   8    3.56    0.59
   1  -7  -8    0.31    0.64
  -1   7   8    2.30    0.52
   0   7   8   29.12    2.46
   1   7   8    1.53    0.48
   1   7   8    0.82    0.46
   2   7   8   -0.15    0.61
  -7   8   8    0.03    0.58
  -7   8   8    0.46    0.51
  -6   8   8    0.08    0.44
  -6   8   8    1.10    0.46
  -5   8   8   13.98    1.38
  -5   8   8   16.86    1.42
  -3   8   8    0.10    0.34
  -2   8   8    0.23    0.37
  -1   8   8    3.29    0.74
   0   8   8    0.32    0.53
   1   8   8   19.17    1.85
  -5   9   8    6.87    0.94
  -5   9   8    8.95    0.96
  -3   9   8   10.70    1.11
  -2   9   8   26.04    2.30
  -1   9   8   12.96    1.37
   0  -9   9   24.80    2.15
  -1   9  -9    1.94    0.57
   1  -9   9    2.24    0.62
  -2   9  -9    0.99    0.77
   2  -9   9    0.25    0.62
  -3  -8   9    8.63    1.14
  -2  -8   9    1.13    0.58
   1   8  -9    0.36    0.53
  -1  -8   9    0.11    0.38
   0   8  -9   -0.05    0.49
   0   8  -9    0.17    0.66
   0  -8   9   -0.11    0.49
  -1   8  -9   -0.02    0.54
   1  -8   9    0.21    0.49
  -2   8  -9    3.37    0.66
   2  -8   9    3.61    0.76
  -3   8  -9    0.30    0.49
  -4   8  -9   -0.11    0.55
  -4  -7   9    6.23    0.99
  -3  -7   9    3.58    0.57
   2   7  -9   25.48    2.06
  -2  -7   9   26.00    2.10
   1   7  -9   15.53    1.53
  -1  -7   9   17.78    1.56
   0   7  -9    5.91    0.81
   0   7  -9    4.40    0.74
   0  -7   9    5.66    0.77
  -1   7  -9   30.58    2.49
  -2   7  -9   36.30    2.96
  -2   7  -9   40.20    2.66
  -3   7  -9    0.00    0.64
  -3   7  -9    0.41    0.39
   3  -7   9    0.08    0.56
  -4   7  -9    2.47    0.66
  -5   7  -9   15.54    1.60
  -5  -6   9    2.71    0.62
  -4  -6   9    0.48    0.35
   3   6  -9    0.78    0.33
  -3  -6   9    0.52    0.40
   2   6  -9    9.13    0.94
  -2  -6   9    8.56    0.89
   1   6  -9    5.72    0.84
   1   6  -9    7.61    0.82
  -1  -6   9    7.28    0.76
   0   6  -9    2.66    0.54
   0   6  -9    1.74    0.38
   0  -6   9    1.88    0.37
  -1   6  -9    0.14    0.27
  -1   6  -9    0.07    0.26
   1  -6   9   -0.14    0.48
  -2   6  -9    3.12    0.57
   2  -6   9    1.86    0.53
  -3   6  -9   -0.09    0.43
  -3   6  -9   -0.19    0.47
  -4   6  -9    7.75    0.83
  -4   6  -9    5.14    0.99
  -5   6  -9    0.09    0.56
  -5   6  -9   -0.48    0.67
  -6   6  -9    1.42    0.50
   6   5  -9   22.88    2.02
  -6  -5   9   20.64    1.98
  -5  -5   9    2.51    0.52
   4   5  -9    7.22    0.85
  -4  -5   9    6.39    0.90
   3   5  -9    9.21    0.89
  -3  -5   9    8.38    0.92
   2   5  -9    3.18    0.52
   2   5  -9    4.76    0.59
  -2  -5   9    4.24    0.54
   1   5  -9   24.25    1.94
   1   5  -9   24.33    1.86
  -1  -5   9   24.06    1.94
   0   5  -9    4.51    0.51
   0   5  -9    4.40    0.55
  -1   5  -9    0.13    0.28
  -2   5  -9   16.87    1.43
  -2   5  -9   14.92    1.41
  -3   5  -9   32.33    2.58
  -3   5  -9   35.04    2.62
  -4   5  -9    1.59    0.42
  -5   5  -9    0.31    0.49
  -5   5  -9   -0.18    0.59
  -6   5  -9   20.33    1.81
  -6   5  -9   19.26    1.75
   7   4  -9    2.94    0.76
  -7  -4   9    3.55    0.70
  -6  -4   9    1.25    0.54
   4   4  -9   46.46    3.27
  -4  -4   9   46.05    3.46
   3   4  -9   14.26    1.18
   3   4  -9   12.10    1.14
  -3  -4   9   13.74    1.24
   2   4  -9    6.86    0.76
   2   4  -9    7.06    0.73
  -2  -4   9    7.54    0.76
   1   4  -9   62.58    4.17
   1   4  -9   59.18    4.24
  -1  -4   9   62.15    4.27
   0   4  -9    3.67    0.51
   0   4  -9    3.57    0.41
  -1   4  -9    2.27    0.36
  -2   4  -9    6.46    0.80
  -2   4  -9    8.11    0.79
  -3   4  -9    0.53    0.36
  -3   4  -9    1.98    0.39
  -4   4  -9    2.00    0.44
  -5   4  -9    7.23    0.86
  -5   4  -9    7.02    0.85
  -6   4  -9    6.08    0.93
  -6   4  -9    5.71    0.88
  -7   4  -9    0.90    0.57
   8   3  -9    3.97    0.79
  -8  -3   9    3.25    0.59
   7   3  -9    1.61    0.58
  -7  -3   9    2.05    0.55
  -6  -3   9   10.94    1.08
   5   3  -9   30.03    2.25
  -5  -3   9   34.41    2.46
  -5  -3   9   30.33    2.49
   4   3  -9    1.37    0.35
   4   3  -9    1.66    0.28
  -4  -3   9    1.38    0.27
   3   3  -9    1.38    0.36
   3   3  -9    1.82    0.28
  -3  -3   9    1.82    0.30
   2   3  -9    0.39    0.18
   2   3  -9    0.24    0.26
  -2  -3   9    0.19    0.19
  -2  -3   9    0.40    0.24
   1   3  -9   19.27    1.54
   1   3  -9   18.79    1.47
  -1  -3   9   19.19    1.54
  -1  -3   9   20.04    1.55
   0   3  -9   11.17    0.91
   0   3  -9   11.97    1.04
   0  -3   9   11.57    1.00
  -1   3  -9   17.80    1.46
  -1   3  -9   17.86    1.48
   1  -3   9   17.48    1.36
  -2   3  -9    0.19    0.30
  -2   3  -9    0.28    0.24
   2  -3   9    0.51    0.16
  -3   3  -9    6.76    0.75
   3  -3   9    6.33    0.57
  -4   3  -9   20.41    1.56
  -4   3  -9   17.88    1.52
   4  -3   9   17.44    1.29
  -5   3  -9    0.47    0.39
  -5   3  -9    0.35    0.37
  -5   3  -9   -0.32    0.55
  -6   3  -9    0.32    0.47
  -7   3  -9    7.25    1.01
   8   2  -9    8.08    1.13
  -7  -2   9   -0.09    0.39
  -7  -2   9    0.39    0.51
   6   2  -9    0.28    0.17
  -6  -2   9    0.10    0.40
  -6  -2   9    0.34    0.24
   5   2  -9    0.65    0.17
   5   2  -9   -0.01    0.50
  -5  -2   9    0.98    0.30
  -5  -2   9    0.77    0.24
   4   2  -9    2.35    0.35
  -4  -2   9    2.73    0.46
  -4  -2   9    3.29    0.41
   3   2  -9   23.39    1.78
   3   2  -9   24.80    1.85
  -3  -2   9   24.05    1.89
  -3  -2   9   24.58    1.92
   2   2  -9   38.78    2.85
   2   2  -9   44.06    2.92
  -2  -2   9   40.19    2.92
  -2  -2   9   42.18    2.97
   1   2  -9    6.67    0.65
   1   2  -9    6.93    0.67
  -1  -2   9    7.84    0.73
   0   2  -9   81.11    5.52
   0   2  -9   86.91    5.69
   0  -2   9   79.93    5.47
  -1   2  -9  102.20    6.51
  -1   2  -9   91.94    6.32
   1  -2   9   91.40    6.21
  -2   2  -9    1.27    0.26
  -2   2  -9    1.00    0.23
   2  -2   9    1.32    0.23
  -3   2  -9   -0.02    0.29
  -3   2  -9   -0.12    0.35
  -3   2  -9    0.23    0.25
   3  -2   9    0.06    0.16
  -4   2  -9    5.48    0.72
  -4   2  -9    6.51    0.72
   4  -2   9    6.03    0.58
  -5   2  -9   -0.29    0.53
  -5   2  -9    0.38    0.37
  -5   2  -9   -0.22    0.36
   5  -2   9    0.23    0.21
  -6   2  -9    3.72    0.76
   6  -2   9    4.17    0.48
  -7   2  -9    1.94    0.54
   8   1  -9    1.74    0.56
  -8  -1   9    1.57    0.48
  -7  -1   9   11.56    1.17
   6   1  -9    1.86    0.48
   6   1  -9    2.49    0.31
  -6  -1   9    3.33    0.53
  -6  -1   9    3.25    0.53
   5   1  -9    9.90    0.83
  -5  -1   9   10.24    0.99
  -5  -1   9   11.10    1.06
  -5  -1   9   10.78    0.99
   4   1  -9   10.59    1.03
   4   1  -9   11.24    0.93
  -4  -1   9   12.06    1.08
  -4  -1   9   12.61    0.98
  -4  -1   9   11.61    1.07
   3   1  -9    0.06    0.12
   3   1  -9    0.10    0.25
  -3  -1   9    0.21    0.17
  -3  -1   9   -0.21    0.23
  -3  -1   9   -0.06    0.13
   2   1  -9    1.40    0.27
   2   1  -9    1.13    0.19
  -2  -1   9    1.62    0.25
   1   1  -9    5.27    0.60
   1   1  -9    5.95    0.59
  -1  -1   9    6.21    0.61
   0   1  -9   29.33    2.26
   0   1  -9   29.01    2.15
   0  -1   9   28.62    2.11
  -1   1  -9    2.85    0.42
  -1   1  -9    1.98    0.37
   1  -1   9    3.14    0.35
  -2   1  -9    8.49    0.82
  -2   1  -9    6.34    0.84
  -2   1  -9    7.72    0.71
   2  -1   9    9.40    0.77
  -3   1  -9   20.52    1.88
  -3   1  -9   23.79    1.80
  -4   1  -9    1.27    0.31
  -4   1  -9    1.36    0.34
   4  -1   9    1.11    0.34
  -5   1  -9   13.88    1.20
  -5   1  -9   11.54    1.13
   5  -1   9   13.28    1.33
  -6   1  -9    3.39    0.55
  -6   1  -9    4.99    0.73
  -7   1  -9   -0.18    0.55
   7  -1   9    0.07    0.57
   9   0  -9   18.01    1.67
  -9   0   9   18.33    1.76
   8   0  -9    2.08    0.54
   7   0  -9    6.90    0.93
   7   0  -9    8.18    0.58
  -7   0   9    9.16    0.94
   6   0  -9    5.12    0.46
   6   0  -9    4.82    0.66
  -6   0   9    6.10    0.68
  -6   0   9    5.69    0.66
  -6   0   9    5.02    0.58
   5   0  -9    0.45    0.37
   5   0  -9    1.35    0.22
  -5   0   9    1.47    0.30
  -5   0   9    1.49    0.30
  -5   0   9    1.03    0.28
  -4   0   9    3.42    0.39
  -4   0   9    3.72    0.50
  -4   0   9    3.41    0.42
   3   0  -9   21.16    1.59
  -3   0   9   19.42    1.63
  -3   0   9   21.14    1.57
  -3   0   9   20.64    1.50
   2   0  -9   94.04    6.02
  -2   0   9   86.65    5.91
  -2   0   9   84.38    5.78
   1   0  -9   32.68    2.48
  -1   0   9   33.71    2.40
   0   0  -9   18.25    1.60
   0   0   9   20.61    1.51
  -1   0  -9   79.95    5.54
  -1   0  -9   70.00    4.99
   1   0   9   88.40    5.31
  -2   0  -9   44.08    3.05
  -2   0  -9   45.41    3.52
   2   0   9   51.75    3.58
  -3   0  -9   26.33    1.88
  -3   0  -9   23.42    2.23
  -3   0  -9   28.28    2.10
   3   0   9   30.66    2.34
  -4   0  -9   26.17    2.00
  -4   0  -9   27.95    2.16
   4   0   9   29.63    2.40
  -5   0  -9   27.60    2.12
   5   0   9   29.87    2.47
  -6   0  -9    2.63    0.49
   6   0   9    2.01    0.52
   9  -1  -9    0.52    0.57
   8  -1  -9   11.21    1.12
   8  -1  -9    9.88    1.19
  -8   1   9   11.73    1.17
   7  -1  -9    0.19    0.45
   7  -1  -9    0.48    0.11
  -7   1   9    0.71    0.36
  -7   1   9    0.55    0.39
   6  -1  -9    6.62    0.76
  -6   1   9    8.63    0.93
  -6   1   9    9.71    0.85
  -6   1   9    8.40    0.81
   5  -1  -9   22.90    1.80
  -5   1   9   24.27    1.88
  -5   1   9   22.87    1.78
  -5   1   9   21.13    1.74
  -4   1   9    6.65    0.65
  -4   1   9    6.61    0.66
  -4   1   9    6.73    0.70
   3  -1  -9   16.25    1.35
  -3   1   9   16.29    1.22
  -3   1   9   15.62    1.33
  -3   1   9   14.84    1.16
   2  -1  -9   34.10    2.58
  -2   1   9   35.62    2.27
  -2   1   9   33.50    2.52
   1  -1  -9    0.49    0.23
  -1   1   9    0.98    0.22
   0  -1  -9   22.90    1.90
  -1  -1  -9    1.79    0.37
  -2  -1  -9   -0.11    0.39
  -3  -1  -9    0.96    0.23
   3   1   9    1.26    0.32
  -4  -1  -9   18.45    1.34
   4   1   9   16.01    1.62
  -5  -1  -9    0.91    0.54
  -5  -1  -9    1.74    0.39
   5   1   9    1.49    0.45
  -6  -1  -9    3.65    0.75
   6   1   9    2.73    0.59
   9  -2  -9    6.84    0.93
  -9   2   9    9.69    1.10
   8  -2  -9   17.91    1.20
   8  -2  -9   17.41    1.55
   8  -2  -9   18.68    1.60
   8  -2  -9   18.47    1.19
  -8   2   9   18.30    1.64
   7  -2  -9   23.24    1.65
   7  -2  -9   17.41    1.63
  -7   2   9   21.12    1.72
  -7   2   9   19.32    1.65
  -6   2   9   21.10    1.72
  -6   2   9   20.42    1.73
   5  -2  -9  108.58    6.35
  -5   2   9   94.53    6.37
  -5   2   9   90.73    6.26
  -5   2   9   82.35    6.11
   4  -2  -9    6.85    0.68
  -4   2   9    6.93    0.73
  -4   2   9    6.82    0.67
  -4   2   9    6.56    0.59
   3  -2  -9   15.88    1.33
  -3   2   9   16.47    1.19
  -3   2   9   13.75    1.14
  -3   2   9   16.89    1.34
   2  -2  -9   13.97    1.25
  -2   2   9   16.83    1.30
  -2   2   9   14.77    1.03
   1  -2  -9   13.53    1.22
   0  -2  -9   46.78    3.62
   0   2   9   51.93    3.66
  -1  -2  -9   63.87    4.70
   1   2   9   66.01    4.67
  -2  -2  -9    0.16    0.45
  -3  -2  -9   21.67    2.18
   3   2   9   28.84    2.26
  -4  -2  -9   24.57    1.64
   4   2   9   19.64    1.95
  -5  -2  -9    0.33    0.39
   5   2   9    0.21    0.50
  -6  -2  -9   17.03    1.41
   6   2   9   13.47    1.44
   9  -3  -9    1.56    0.35
  -9   3   9    2.26    0.53
   8  -3  -9    1.00    0.32
   8  -3  -9    0.43    0.49
   8  -3  -9    1.16    0.26
  -8   3   9    1.16    0.47
  -8   3   9    1.18    0.46
   7  -3  -9   11.32    1.00
  -7   3   9   11.73    1.16
  -7   3   9   11.11    1.11
   6  -3  -9    2.39    0.43
  -6   3   9    3.08    0.51
  -6   3   9    2.69    0.53
  -5   3   9    1.18    0.32
  -5   3   9    0.89    0.27
   4  -3  -9   27.83    2.27
  -4   3   9   29.09    2.15
  -4   3   9   26.94    2.00
   3  -3  -9   31.90    2.26
  -3   3   9   28.36    2.04
  -3   3   9   26.57    2.01
  -3   3   9   31.92    2.23
   2  -3  -9   -0.04    0.25
  -2   3   9   -0.01    0.16
  -2   3   9    0.00    0.20
   1  -3  -9   15.45    1.44
  -1   3   9   18.45    1.49
   0  -3  -9   69.77    5.18
   0   3   9   77.18    5.20
  -1  -3  -9    1.94    0.35
  -2  -3  -9    0.13    0.42
   2   3   9   -0.10    0.22
   3   3   9   11.63    1.21
   4   3   9    1.21    0.35
   5   3   9   31.61    2.74
   9  -4  -9    0.04    0.28
  -9   4   9    0.60    0.56
   8  -4  -9    3.53    0.56
  -8   4   9    2.56    0.51
  -8   4   9    2.34    0.52
   7  -4  -9    6.92    0.67
  -7   4   9    7.69    0.84
  -7   4   9    8.90    0.96
  -6   4   9    1.47    0.34
  -6   4   9    1.46    0.38
   5  -4  -9   13.68    1.16
  -5   4   9   15.07    1.26
  -5   4   9   13.91    1.24
   4  -4  -9   39.99    2.99
  -4   4   9   37.26    2.71
  -4   4   9   38.90    2.82
   3  -4  -9    3.77    0.55
  -3   4   9    4.93    0.55
  -3   4   9    4.08    0.50
  -2   4   9    1.70    0.35
  -2   4   9    2.04    0.36
   1  -4  -9   39.86    3.03
  -1   4   9   43.53    3.03
  -1   4   9   35.37    2.51
   0  -4  -9    0.06    0.40
   0   4   9   -0.09    0.19
  -1  -4  -9    1.53    0.42
   2   4   9   -0.18    0.35
   2   4   9   -0.16    0.41
   4   4   9   27.26    2.46
   5   4   9   18.72    1.86
   9  -5  -9    0.81    0.46
  -9   5   9    1.01    0.62
   8  -5  -9   16.53    1.35
  -8   5   9   14.21    1.36
  -8   5   9   13.75    1.46
  -7   5   9    8.52    0.95
  -7   5   9    8.21    0.86
   6  -5  -9    6.44    0.65
  -6   5   9    7.96    0.81
  -6   5   9    7.75    0.80
   5  -5  -9    1.50    0.30
  -5   5   9    2.48    0.36
  -5   5   9    2.77    0.50
   4  -5  -9    1.78    0.38
  -4   5   9    2.31    0.48
  -4   5   9    2.82    0.44
   3  -5  -9    2.97    0.53
  -3   5   9    3.49    0.50
   2  -5  -9    3.73    0.71
  -2   5   9    4.53    0.52
  -2   5   9    5.21    0.61
   1  -5  -9   18.38    1.76
  -1   5   9   22.91    1.82
   0  -5  -9   13.06    1.31
   0   5   9   14.02    1.10
   1   5   9   58.46    4.43
   1   5   9   73.41    4.92
   2   5   9    6.51    0.94
   3   5   9    6.65    0.86
   4   5   9   21.46    1.99
  -8   6   9   -0.28    0.51
  -7   6   9    7.26    0.84
  -7   6   9    6.31    0.96
  -6   6   9   -0.37    0.41
  -6   6   9    0.03    0.35
   5  -6  -9    0.62    0.28
  -5   6   9    0.74    0.36
   4  -6  -9   17.33    1.51
  -4   6   9   18.27    1.52
  -4   6   9   19.61    1.55
   3  -6  -9    9.80    1.03
  -3   6   9   12.88    1.05
  -3   6   9   11.34    1.03
  -2   6   9    3.00    0.49
   1  -6  -9    0.15    0.56
  -1   6   9    0.19    0.31
  -1   6   9    0.09    0.15
   0   6   9    0.49    0.37
   1   6   9    6.90    0.90
   2   6   9    9.13    1.18
   3   6   9    6.98    1.09
  -8   7   9    0.29    0.56
  -8   7   9    0.42    0.58
  -7   7   9   27.38    2.34
   6  -7  -9   13.65    1.46
  -6   7   9   19.72    1.50
  -6   7   9   16.91    1.53
  -5   7   9   -0.15    0.43
  -5   7   9    0.17    0.36
   4  -7  -9    0.74    0.44
  -4   7   9    1.35    0.41
   3  -7  -9    5.48    0.97
  -3   7   9    7.59    0.82
   2  -7  -9    0.36    0.63
  -2   7   9    0.66    0.34
  -1   7   9   15.01    1.39
   0   7   9    3.42    0.70
   1   7   9    4.13    0.81
   2   7   9   50.70    3.98
  -6   8   9   -0.04    0.48
  -6   8   9   -0.27    0.51
  -5   8   9    1.28    0.44
  -5   8   9    0.56    0.46
  -4   8   9    2.56    0.53
  -3   8   9    0.38    0.39
  -2   8   9   -0.04    0.41
  -1   8   9    1.67    0.48
   0   8   9    0.27    0.58
  -4   9   9    0.68    0.56
  -3   9   9    3.60    0.77
   2   8 -10    0.57    0.59
  -2  -8  10    0.74    0.62
   1   8 -10   14.14    1.40
  -1  -8  10   13.44    1.33
   0  -8  10    1.60    0.52
  -1   8 -10    1.38    0.46
   1  -8  10    0.81    0.42
   2  -8  10    1.10    0.55
  -3   8 -10    4.88    0.87
  -4   8 -10    0.98    0.83
  -4  -7  10    0.15    0.63
   3   7 -10    8.03    0.91
  -3  -7  10    6.10    0.93
   2   7 -10   29.90    2.37
  -2  -7  10   28.31    2.39
   1   7 -10    0.28    0.43
  -1  -7  10    0.11    0.33
   0   7 -10    0.32    0.51
   0   7 -10    0.74    0.53
   0  -7  10    0.84    0.44
  -1   7 -10   28.07    2.38
  -1   7 -10   27.02    2.10
   1  -7  10   31.64    2.38
  -2   7 -10    0.05    0.49
  -3   7 -10    3.97    0.71
  -4   7 -10    9.90    1.28
  -5   7 -10    3.00    0.63
  -5  -6  10    1.21    0.60
   4   6 -10    0.55    0.38
  -4  -6  10    0.00    0.48
   3   6 -10    1.29    0.35
  -3  -6  10    1.35    0.43
   2   6 -10    3.06    0.65
  -2  -6  10    2.57    0.46
   1   6 -10    0.10    0.50
   1   6 -10    0.48    0.36
  -1  -6  10    0.24    0.27
   0   6 -10   26.65    2.16
   0   6 -10   24.14    1.98
   0  -6  10   29.92    2.22
  -1   6 -10   60.70    3.96
  -1   6 -10   55.83    4.22
  -2   6 -10    0.41    0.58
  -2   6 -10    1.59    0.49
  -3   6 -10   21.75    2.03
  -3   6 -10   22.67    1.95
  -4   6 -10   35.74    2.85
  -5   6 -10    8.58    1.01
  -6  -5  10   -0.20    0.65
   5   5 -10    3.73    0.61
  -5  -5  10    3.50    0.60
   4   5 -10   15.96    1.31
  -4  -5  10   14.49    1.38
   3   5 -10    0.46    0.29
  -3  -5  10    0.60    0.25
   2   5 -10    7.88    0.80
   2   5 -10    6.21    0.86
  -2  -5  10    7.64    0.83
   1   5 -10   27.78    2.14
   1   5 -10   26.73    2.07
  -1  -5  10   28.27    2.17
   0   5 -10    1.49    0.30
   0   5 -10    1.91    0.37
  -1   5 -10   -0.10    0.33
  -2   5 -10    0.82    0.28
  -2   5 -10    0.08    0.46
  -3   5 -10    1.16    0.41
  -3   5 -10    0.39    0.46
  -4   5 -10    3.27    0.65
  -5   5 -10    0.16    0.41
  -5   5 -10    0.56    0.48
  -6   5 -10    0.01    0.52
   7   4 -10   26.37    2.51
  -7  -4  10   29.82    2.50
  -6  -4  10   14.41    1.48
   5   4 -10   12.93    1.11
  -5  -4  10   12.97    1.25
   4   4 -10   26.68    2.06
  -4  -4  10   27.29    2.22
   3   4 -10   14.19    1.30
   3   4 -10   15.36    1.26
  -3  -4  10   15.56    1.32
   2   4 -10   15.91    1.32
   2   4 -10   14.26    1.28
  -2  -4  10   14.89    1.31
   1   4 -10    2.25    0.35
  -1  -4  10    2.66    0.42
   0   4 -10   14.28    1.25
   0   4 -10   13.09    1.07
  -1   4 -10   11.60    1.12
  -1   4 -10   10.85    1.15
   1  -4  10   12.76    0.97
  -2   4 -10   41.46    2.95
  -2   4 -10   38.54    2.96
   2  -4  10   36.67    2.65
  -3   4 -10   -0.11    0.45
  -3   4 -10    0.52    0.34
  -4   4 -10    8.72    1.10
  -5   4 -10   72.32    4.90
  -5   4 -10   64.15    4.82
  -6   4 -10    8.57    1.05
  -7  -3  10    1.19    0.57
  -7  -3  10    0.47    0.42
   6   3 -10    5.18    0.59
  -6  -3  10    6.26    0.75
  -6  -3  10    5.51    0.84
   5   3 -10   23.36    1.76
  -5  -3  10   23.92    2.04
   4   3 -10    2.51    0.53
   4   3 -10    3.41    0.43
   3   3 -10   17.88    1.46
   3   3 -10   18.53    1.52
  -3  -3  10   18.18    1.53
   2   3 -10   57.30    3.82
   2   3 -10   53.27    3.80
  -2  -3  10   56.29    3.90
  -2  -3  10   52.94    3.84
   1   3 -10    8.86    0.86
   1   3 -10   10.52    0.94
  -1  -3  10   11.57    0.97
  -1  -3  10    9.96    0.92
   0   3 -10   20.92    1.67
   0  -3  10   20.82    1.62
  -1   3 -10    0.09    0.24
  -1   3 -10    0.18    0.18
   1  -3  10    0.37    0.20
  -2   3 -10    0.10    0.37
  -2   3 -10    0.51    0.27
   2  -3  10    0.29    0.19
  -3   3 -10    3.43    0.48
   3  -3  10    3.35    0.40
  -4   3 -10    4.78    0.67
  -4   3 -10    5.13    0.72
   4  -3  10    5.21    0.50
  -5   3 -10    1.26    0.44
  -5   3 -10    1.72    0.47
   5  -3  10    1.39    0.28
  -6   3 -10    5.25    0.90
   8   2 -10    0.97    0.68
  -8  -2  10   -0.49    0.57
  -7  -2  10   13.73    1.32
  -7  -2  10   12.02    1.34
   6   2 -10   16.07    1.29
  -6  -2  10   19.97    1.59
  -6  -2  10   15.95    1.54
   5   2 -10   11.09    1.00
  -5  -2  10   12.52    1.19
  -5  -2  10   14.12    1.14
   4   2 -10   24.68    1.87
   4   2 -10   23.15    1.99
  -4  -2  10   29.61    1.99
  -4  -2  10   25.95    2.09
  -4  -2  10   24.95    2.04
   3   2 -10   99.40    6.57
   3   2 -10   98.46    6.49
  -3  -2  10   96.80    6.60
  -3  -2  10   99.74    6.66
   2   2 -10   16.52    1.34
   2   2 -10   16.71    1.34
  -2  -2  10   16.76    1.41
  -2  -2  10   16.69    1.37
   1   2 -10   -0.04    0.18
  -1  -2  10    0.08    0.21
   0   2 -10    3.92    0.50
   0   2 -10    2.95    0.46
   0  -2  10    4.71    0.49
  -1   2 -10   -0.27    0.23
  -1   2 -10    0.12    0.31
   1  -2  10   -0.06    0.19
  -2   2 -10   22.03    1.94
  -2   2 -10   23.76    1.86
   2  -2  10   24.03    1.74
  -3   2 -10   13.41    1.16
  -3   2 -10   11.07    1.05
  -3   2 -10    9.52    1.17
   3  -2  10   13.45    1.00
  -4   2 -10    7.15    0.81
  -4   2 -10    7.95    0.88
   4  -2  10    7.91    0.71
  -5   2 -10   11.87    1.16
  -5   2 -10   11.68    1.17
   5  -2  10   11.36    0.94
   6  -2  10   48.91    3.28
  -8  -1  10    3.60    0.72
   7   1 -10    2.22    0.30
  -7  -1  10    1.91    0.44
  -7  -1  10    2.49    0.48
   6   1 -10    3.75    0.42
  -6  -1  10    3.16    0.63
  -6  -1  10    4.45    0.59
   5   1 -10    9.03    1.01
   5   1 -10   10.75    0.87
  -5  -1  10   11.10    1.09
  -5  -1  10   12.12    1.04
  -5  -1  10   11.11    1.08
   4   1 -10    8.80    0.78
   4   1 -10    7.35    0.85
  -4  -1  10    9.00    0.94
  -4  -1  10    9.62    0.92
  -4  -1  10   10.39    0.82
   3   1 -10    3.02    0.34
  -3  -1  10    3.16    0.37
  -3  -1  10    2.59    0.39
   2   1 -10   44.89    3.14
   2   1 -10   44.99    3.15
  -2  -1  10   45.96    3.15
  -2  -1  10   44.40    3.22
   1   1 -10   23.22    1.91
   1   1 -10   24.24    1.82
  -1  -1  10   23.01    1.82
   0   1 -10    6.87    0.85
   0   1 -10    8.83    0.82
   0  -1  10    8.68    0.79
  -1   1 -10    2.96    0.40
   1  -1  10    2.97    0.37
  -2   1 -10   10.57    0.92
  -2   1 -10   13.44    1.11
  -2   1 -10    9.43    1.07
   2  -1  10   13.40    1.00
  -3   1 -10   38.82    3.34
  -3   1 -10   44.94    3.21
   3  -1  10   48.93    3.11
  -4   1 -10    6.17    0.80
  -4   1 -10    7.28    0.77
  -5   1 -10    1.20    0.45
  -5   1 -10    0.88    0.43
  -6   1 -10   11.64    1.19
  -9   0  10   -0.05    0.52
  -8   0  10    1.80    0.50
   7   0 -10    2.02    0.28
  -7   0  10    2.42    0.44
   6   0 -10   17.14    1.24
  -6   0  10   16.73    1.48
  -6   0  10   17.98    1.49
  -6   0  10   16.17    1.51
   5   0 -10   18.98    1.36
   5   0 -10   15.69    1.49
  -5   0  10   17.26    1.50
  -5   0  10   20.49    1.51
  -5   0  10   16.97    1.54
   4   0 -10   55.86    3.87
  -4   0  10   58.12    3.79
  -4   0  10   53.98    3.95
  -4   0  10   53.55    3.86
  -3   0  10    3.81    0.48
  -3   0  10    3.66    0.42
  -3   0  10    3.19    0.42
   2   0 -10   24.20    1.94
  -2   0  10   24.38    1.79
  -2   0  10   24.19    1.91
   1   0 -10   87.80    5.97
  -1   0  10   85.62    5.82
   0   0 -10   -0.13    0.27
   0   0  10   -0.09    0.20
  -1   0 -10   15.93    1.57
   1   0  10   19.78    1.46
  -2   0 -10   20.37    1.89
  -2   0 -10   22.18    1.44
  -3   0 -10    0.21    0.25
  -3   0 -10    0.19    0.22
  -3   0 -10   -0.29    0.54
   3   0  10    0.21    0.23
  -4   0 -10    5.67    0.69
  -4   0 -10    4.67    0.62
   4   0  10    5.01    0.66
  -5   0 -10    0.87    0.42
  -5   0 -10    0.72    0.47
   5   0  10    0.85    0.46
  -6   0 -10    1.56    0.52
   6   0  10    1.26    0.59
   9  -1 -10    3.26    0.69
   8  -1 -10    9.31    1.39
  -8   1  10   11.57    1.18
   7  -1 -10    0.02    0.14
  -7   1  10    0.18    0.38
  -7   1  10    0.20    0.44
  -6   1  10    4.78    0.61
  -6   1  10    4.15    0.57
  -6   1  10    4.79    0.61
   5  -1 -10   59.35    3.95
  -5   1  10   50.89    3.83
  -5   1  10   56.83    3.89
  -5   1  10   56.63    4.03
   4  -1 -10   10.22    0.98
  -4   1  10   10.38    0.98
  -4   1  10    8.86    0.84
  -4   1  10    9.85    0.90
   3  -1 -10   19.95    1.66
  -3   1  10   19.93    1.64
  -3   1  10   19.77    1.52
  -3   1  10   20.21    1.44
   2  -1 -10    0.07    0.25
  -2   1  10    0.31    0.22
   1  -1 -10   10.57    1.06
  -1   1  10   13.09    1.05
   0  -1 -10   40.47    3.23
   0   1  10   46.33    3.12
  -1  -1 -10   26.71    2.40
   1   1  10   33.31    2.51
  -2  -1 -10   21.41    2.09
   2   1  10   26.85    2.14
  -3  -1 -10   -0.21    0.68
  -3  -1 -10    0.80    0.22
   3   1  10    0.80    0.25
  -4  -1 -10   52.65    3.65
   4   1  10   46.17    4.14
  -5  -1 -10    3.76    0.70
  -5  -1 -10    5.22    0.81
   5   1  10    4.23    0.78
  -6  -1 -10    0.18    0.53
   6   1  10    0.91    0.63
   9  -2 -10    0.77    0.54
   8  -2 -10    0.11    0.18
  -8   2  10    0.58    0.51
  -8   2  10   -0.32    0.42
  -7   2  10    1.17    0.42
  -7   2  10    1.09    0.37
   6  -2 -10    4.12    0.66
  -6   2  10    5.54    0.70
  -6   2  10    5.09    0.65
   5  -2 -10   -0.02    0.30
  -5   2  10    0.05    0.28
  -5   2  10    0.16    0.30
  -5   2  10    0.04    0.19
   4  -2 -10   53.65    3.62
  -4   2  10   49.22    3.39
  -4   2  10   49.18    3.41
  -4   2  10   48.45    3.57
  -3   2  10    3.94    0.41
  -3   2  10    4.23    0.50
  -3   2  10    4.17    0.44
   2  -2 -10   11.12    1.10
  -2   2  10   13.42    1.09
   1  -2 -10   33.86    2.72
  -1   2  10   37.12    2.63
  -1  -2 -10    5.18    0.72
  -2  -2 -10    0.09    0.43
   2   2  10    0.96    0.24
   3   2  10    3.03    0.46
   4   2  10    0.27    0.44
  -5  -2 -10   -0.44    0.61
   5   2  10    1.65    0.56
   9  -3 -10    0.14    0.13
   9  -3 -10    0.11    0.49
  -9   3  10   -0.35    0.63
   8  -3 -10    2.49    0.47
  -8   3  10    2.08    0.48
  -8   3  10    2.13    0.46
   7  -3 -10    9.72    0.95
  -7   3  10    8.95    1.02
  -7   3  10   10.37    1.10
  -6   3  10    4.58    0.64
  -6   3  10    4.65    0.63
   5  -3 -10    0.16    0.27
  -5   3  10    0.75    0.31
  -5   3  10    0.57    0.31
   4  -3 -10   72.55    4.56
  -4   3  10   62.31    4.33
  -4   3  10   67.65    4.55
  -4   3  10   57.91    4.19
   3  -3 -10   24.62    2.02
  -3   3  10   26.49    2.02
  -3   3  10   27.72    1.78
  -3   3  10   23.89    1.78
  -2   3  10    3.03    0.27
  -2   3  10    3.34    0.47
   1  -3 -10   52.35    3.98
  -1   3  10   56.54    3.99
   0   3  10    1.76    0.40
  -1  -3 -10    7.13    1.09
   1   3  10   11.41    1.09
   2   3  10   30.63    2.58
   3   3  10   10.70    1.16
   4   3  10    2.59    0.52
   5   3  10   30.18    2.62
   9  -4 -10   10.87    0.97
  -9   4  10   11.01    1.29
   8  -4 -10   18.75    1.46
  -8   4  10   17.60    1.60
  -8   4  10   15.36    1.51
  -7   4  10    1.82    0.42
  -7   4  10    1.02    0.45
   6  -4 -10   -0.16    0.28
  -6   4  10    0.49    0.26
  -6   4  10   -0.05    0.39
  -5   4  10    0.85    0.34
  -5   4  10    0.79    0.31
   4  -4 -10    0.85    0.31
  -4   4  10    1.44    0.31
  -4   4  10    1.08    0.30
   3  -4 -10   41.72    3.04
  -3   4  10   42.63    2.97
  -3   4  10   38.07    2.74
   2  -4 -10    3.50    0.63
  -2   4  10    4.90    0.42
   1  -4 -10    0.06    0.32
  -1   4  10    0.86    0.27
   0  -4 -10   35.45    3.04
   0   4  10   42.13    3.09
   1   4  10    7.91    0.95
   2   4  10    0.26    0.45
   3   4  10    0.73    0.47
   4   4  10    6.21    1.00
   8  -5 -10    0.52    0.46
  -8   5  10    0.98    0.53
  -8   5  10    0.68    0.53
   7  -5 -10    2.28    0.38
  -7   5  10    3.95    0.70
   6  -5 -10    8.66    0.86
  -6   5  10   11.40    1.07
  -6   5  10   11.14    1.03
   5  -5 -10    2.19    0.44
  -5   5  10    3.50    0.59
  -5   5  10    3.42    0.53
   4  -5 -10    3.08    0.60
  -4   5  10    3.37    0.52
  -4   5  10    3.70    0.56
   3  -5 -10   16.75    1.53
  -3   5  10   18.95    1.48
   2  -5 -10   15.33    1.60
  -2   5  10   20.05    1.60
   1  -5 -10    0.17    0.54
  -1   5  10    0.43    0.29
  -1   5  10    0.08    0.19
   0   5  10    0.19    0.35
   0   5  10   -0.01    0.30
   1   5  10    8.91    0.94
   2   5  10    0.00    0.56
   2   5  10    0.18    0.47
   3   5  10    3.79    0.67
  -8   6  10   -0.66    0.54
  -8   6  10    0.16    0.56
  -7   6  10   -0.30    0.52
  -7   6  10    0.03    0.52
   6  -6 -10    2.01    0.46
  -6   6  10    2.24    0.45
  -6   6  10    2.66    0.53
   5  -6 -10    0.23    0.42
  -5   6  10   -0.06    0.43
  -5   6  10   -0.22    0.35
   4  -6 -10    5.97    0.85
  -4   6  10    5.88    0.74
  -4   6  10    7.34    0.73
   3  -6 -10    0.40    0.50
  -3   6  10    0.46    0.36
   2  -6 -10   11.45    1.37
  -2   6  10   16.78    1.38
   1  -6 -10    0.75    0.69
  -1   6  10    1.10    0.36
   0   6  10    7.94    0.89
   0   6  10   10.77    1.31
   1   6  10    6.67    0.93
   1   6  10    4.44    0.83
   2   6  10    1.27    0.60
  -7   7  10    0.51    0.52
  -7   7  10    0.42    0.57
  -6   7  10    1.50    0.54
  -6   7  10    1.99    0.46
  -5   7  10   17.77    1.55
  -5   7  10   18.35    1.54
   4  -7 -10    6.31    1.02
  -4   7  10    8.53    0.92
  -4   7  10    9.56    0.94
   3  -7 -10   15.31    1.65
  -3   7  10   20.10    1.56
  -3   7  10   16.64    1.44
   2  -7 -10   48.84    4.11
  -2   7  10   62.22    4.15
  -1   7  10   29.14    2.63
   0   7  10   19.23    1.79
   1   7  10    0.68    0.58
  -6   8  10    1.03    0.52
  -6   8  10    0.58    0.56
  -5   8  10    0.13    0.45
  -5   8  10    0.45    0.54
  -4   8  10    1.30    0.52
  -4   8  10    1.53    0.50
  -3   8  10    0.19    0.43
  -3   8  10    0.18    0.52
  -1   8  10    1.21    0.52
   1   8 -11    2.72    0.66
  -1  -8  11    1.45    0.59
   0   8 -11    2.77    0.65
   0  -8  11    2.24    0.64
  -1   8 -11    0.47    0.64
   1  -8  11    1.01    0.63
  -2   8 -11    2.54    0.77
   2  -8  11    2.06    0.67
  -3  -7  11    2.68    0.63
   2   7 -11    0.43    0.44
  -2  -7  11    0.85    0.39
   1   7 -11    0.42    0.47
  -1  -7  11    0.03    0.49
   0   7 -11    3.16    0.62
   0   7 -11    4.20    0.81
   0  -7  11    5.27    0.77
  -1   7 -11   -0.26    0.48
   1  -7  11    0.54    0.38
  -2   7 -11    2.09    0.62
  -3   7 -11    4.78    0.80
  -4   7 -11    1.92    0.78
  -5  -6  11    0.54    0.49
   4   6 -11   12.17    1.24
  -4  -6  11   11.43    1.19
   3   6 -11   37.66    2.84
  -3  -6  11   35.82    2.88
   2   6 -11   11.02    1.10
  -2  -6  11   10.31    1.04
   1   6 -11   -0.05    0.54
  -1  -6  11    0.69    0.39
   0   6 -11   22.22    1.83
   0   6 -11   23.56    2.02
   0  -6  11   26.24    2.06
  -1   6 -11   11.87    1.25
  -2   6 -11    0.23    0.37
  -3   6 -11    1.88    0.44
  -4   6 -11   -0.69    0.64
  -5   6 -11    5.06    0.86
  -6  -5  11    1.41    0.71
   5   5 -11    4.97    0.70
  -5  -5  11    4.81    0.68
   4   5 -11    5.33    0.71
  -4  -5  11    5.01    0.72
   3   5 -11    0.52    0.32
  -3  -5  11    0.47    0.36
   2   5 -11    0.28    0.50
   2   5 -11    1.48    0.36
  -2  -5  11    1.32    0.34
   1   5 -11    0.47    0.41
   1   5 -11    0.23    0.33
  -1  -5  11    0.42    0.30
   0   5 -11    4.66    0.71
   0  -5  11    5.55    0.69
  -1   5 -11   21.26    1.83
  -2   5 -11    0.09    0.42
  -3   5 -11    2.32    0.50
  -4   5 -11    1.13    0.56
  -5   5 -11   -0.38    0.66
  -5   5 -11    0.74    0.53
   6   4 -11    7.65    0.77
  -6  -4  11    6.03    1.00
   5   4 -11   -0.13    0.30
  -5  -4  11    0.32    0.34
   4   4 -11    0.41    0.27
  -4  -4  11    1.06    0.49
   3   4 -11    8.28    0.94
   3   4 -11   10.16    0.93
  -3  -4  11    8.91    0.95
   2   4 -11   14.99    1.26
   2   4 -11   12.59    1.18
  -2  -4  11   13.66    1.22
   1   4 -11   10.73    1.02
   1   4 -11    8.79    0.90
  -1  -4  11   11.82    1.02
   0   4 -11   12.36    1.16
   0  -4  11   12.29    1.09
  -1   4 -11   32.84    2.61
  -1   4 -11   35.44    2.62
   1  -4  11   32.87    2.41
  -2   4 -11   14.62    1.43
  -2   4 -11   19.97    1.55
   2  -4  11   16.89    1.31
  -3   4 -11    3.21    0.67
  -4   4 -11    2.12    0.50
  -4   4 -11    1.87    0.45
  -5   4 -11    0.56    0.48
  -5   4 -11    1.08    0.60
  -6   4 -11    4.63    0.83
  -7  -3  11    5.20    1.02
   6   3 -11    1.61    0.30
  -6  -3  11    0.73    0.53
  -5  -3  11    2.30    0.48
   4   3 -11    8.80    0.86
  -4  -3  11    9.35    0.92
   3   3 -11    1.40    0.28
   3   3 -11    1.16    0.33
  -3  -3  11    1.33    0.32
   2   3 -11    1.20    0.27
  -2  -3  11    1.25    0.25
  -2  -3  11    1.36    0.30
   1   3 -11    1.92    0.39
  -1  -3  11    2.17    0.42
  -1  -3  11    2.22    0.32
   0   3 -11    9.66    0.94
   0  -3  11    8.71    0.86
  -1   3 -11    1.87    0.37
   1  -3  11    1.80    0.38
  -2   3 -11    3.09    0.44
   2  -3  11    2.75    0.41
  -3   3 -11    0.23    0.35
  -3   3 -11   -0.13    0.41
   3  -3  11    0.28    0.22
  -4   3 -11    7.44    0.92
  -4   3 -11    8.08    0.85
   4  -3  11    8.08    0.69
  -5   3 -11    0.38    0.56
  -5   3 -11    0.24    0.51
   5  -3  11    0.31    0.22
  -6   3 -11    0.23    0.58
   8   2 -11    7.99    1.19
  -8  -2  11    6.82    0.93
   7   2 -11    3.46    0.45
  -7  -2  11    4.35    0.70
  -6  -2  11   18.50    1.80
  -6  -2  11   23.04    1.80
   5   2 -11    0.07    0.20
  -5  -2  11    0.26    0.27
  -5  -2  11    0.10    0.27
   4   2 -11   16.25    1.27
   4   2 -11   13.66    1.31
  -4  -2  11   16.09    1.38
  -4  -2  11   15.68    1.38
   3   2 -11   19.90    1.61
   3   2 -11   20.26    1.55
  -3  -2  11   20.09    1.68
  -3  -2  11   19.43    1.62
   2   2 -11    6.50    0.67
  -2  -2  11    6.23    0.65
  -2  -2  11    6.14    0.71
   1   2 -11   35.58    2.71
   1   2 -11   35.29    2.57
  -1  -2  11   33.13    2.53
   0   2 -11   45.27    3.18
   0   2 -11   40.93    3.21
   0  -2  11   44.70    3.11
  -1   2 -11    0.21    0.39
  -1   2 -11    1.01    0.28
   1  -2  11    0.99    0.23
  -2   2 -11   66.83    4.53
  -2   2 -11   59.50    4.59
   2  -2  11   65.49    4.34
  -3   2 -11   45.63    3.92
  -3   2 -11   56.87    3.91
  -3   2 -11   53.41    3.69
   3  -2  11   58.51    3.68
  -4   2 -11    3.40    0.61
  -4   2 -11    3.54    0.66
   4  -2  11    3.68    0.49
  -5   2 -11    3.94    0.82
  -5   2 -11    2.49    0.54
   5  -2  11    2.63    0.51
  -6   2 -11    0.68    0.56
   6  -2  11   -0.07    0.39
  -8  -1  11    4.55    0.80
   7   1 -11    1.75    0.37
  -7  -1  11    1.65    0.36
  -7  -1  11    1.48    0.49
   6   1 -11    1.52    0.33
  -6  -1  11    1.74    0.42
  -6  -1  11    2.41    0.49
   5   1 -11    2.16    0.33
  -5  -1  11    2.88    0.44
  -5  -1  11    2.36    0.49
  -5  -1  11    2.01    0.42
   4   1 -11   36.60    2.79
   4   1 -11   35.44    2.66
  -4  -1  11   35.56    2.79
  -4  -1  11   39.09    2.90
  -4  -1  11   42.76    2.73
   3   1 -11   -0.04    0.24
   3   1 -11    0.23    0.18
  -3  -1  11    0.29    0.30
  -3  -1  11    0.40    0.21
   2   1 -11    0.76    0.20
  -2  -1  11    0.85    0.20
  -2  -1  11    0.64    0.27
   1   1 -11   55.76    4.06
   1   1 -11   58.15    3.95
  -1  -1  11   54.48    3.92
   0   1 -11    8.54    0.93
   0   1 -11   10.93    1.01
   0  -1  11   10.63    0.94
  -1   1 -11    6.16    0.73
   1  -1  11    6.32    0.64
  -2   1 -11    0.01    0.27
  -2   1 -11   -0.20    0.47
  -2   1 -11   -0.06    0.30
   2  -1  11   -0.13    0.24
  -3   1 -11    3.34    0.58
  -3   1 -11    3.05    0.53
   3  -1  11    3.54    0.50
  -4   1 -11    1.23    0.43
  -4   1 -11    1.07    0.41
   4  -1  11    1.23    0.30
  -5   1 -11   16.30    1.54
   5  -1  11   16.93    1.35
  -6   1 -11   13.17    1.32
   6  -1  11   12.85    1.17
  -8   0  11   16.99    1.60
   7   0 -11   11.88    0.91
  -7   0  11   11.23    1.21
  -7   0  11   12.78    1.22
   6   0 -11   14.63    1.10
  -6   0  11   13.35    1.34
  -6   0  11   15.50    1.30
  -6   0  11   12.53    1.26
   5   0 -11   23.90    1.70
   5   0 -11   18.52    1.72
  -5   0  11   23.72    1.85
  -5   0  11   21.38    1.87
  -5   0  11   26.30    1.83
   4   0 -11   22.28    1.83
  -4   0  11   26.45    1.77
  -4   0  11   23.06    1.95
  -4   0  11   23.29    1.88
   3   0 -11   -0.03    0.33
  -3   0  11    0.40    0.19
  -3   0  11    0.44    0.28
   2   0 -11    2.09    0.38
  -2   0  11    3.01    0.41
   1   0 -11    0.05    0.24
  -1   0  11   -0.17    0.25
   0   0 -11   29.33    2.47
   0   0  11   32.45    2.32
  -1   0 -11   20.22    1.93
   1   0  11   24.38    1.75
  -2   0 -11    0.71    0.23
  -2   0 -11   -0.05    0.39
   2   0  11    0.57    0.26
  -3   0 -11   12.95    1.01
  -3   0 -11   14.98    1.30
  -4   0 -11   25.22    2.06
   4   0  11   25.74    2.22
  -5   0 -11    0.71    0.48
  -5   0 -11    1.17    0.57
   5   0  11    1.42    0.43
   6   0  11    0.04    0.49
  -8   1  11    5.27    0.79
   7  -1 -11    4.19    0.44
  -7   1  11    3.75    0.65
  -7   1  11    2.94    0.54
  -6   1  11    0.60    0.32
  -6   1  11    0.96    0.29
  -6   1  11    0.32    0.41
   5  -1 -11    7.41    0.89
  -5   1  11    8.20    0.77
  -5   1  11    8.37    0.84
  -5   1  11    8.80    0.92
   4  -1 -11   32.00    2.43
  -4   1  11   31.72    2.21
  -4   1  11   30.33    2.41
  -4   1  11   29.91    2.26
   3  -1 -11   66.66    4.64
  -3   1  11   61.70    4.56
  -3   1  11   62.40    4.39
  -3   1  11   70.27    4.29
   2  -1 -11   41.30    3.19
  -2   1  11   45.05    3.17
  -1   1  11    2.28    0.41
   0  -1 -11   53.24    4.15
   0   1  11   59.71    3.98
  -1  -1 -11    5.97    0.76
   3   1  11    4.20    0.70
  -4  -1 -11    0.66    0.45
   4   1  11    0.57    0.34
  -5  -1 -11    1.12    0.64
   5   1  11    0.44    0.54
   9  -2 -11    0.61    0.61
   8  -2 -11    5.02    1.26
  -8   2  11    7.11    0.85
  -8   2  11    6.76    0.96
   7  -2 -11   17.03    1.51
  -7   2  11   17.56    1.51
  -7   2  11   13.32    1.53
   6  -2 -11    2.78    0.62
  -6   2  11    4.45    0.63
  -6   2  11    4.37    0.65
   5  -2 -11    1.73    0.37
  -5   2  11    3.12    0.54
  -5   2  11    2.21    0.37
  -4   2  11    2.61    0.40
  -4   2  11    1.94    0.39
  -4   2  11    2.92    0.37
   3  -2 -11   23.83    2.02
  -3   2  11   25.84    1.73
  -3   2  11   23.80    1.98
  -3   2  11   26.56    1.85
   2  -2 -11   16.94    1.60
  -2   2  11   20.53    1.60
   1  -2 -11   -0.18    0.37
  -1   2  11    0.31    0.19
   0  -2 -11  115.42    7.97
  -1  -2 -11   10.63    1.25
   2   2  11    7.26    0.88
   3   2  11    3.98    0.71
   4   2  11   11.57    1.21
   5   2  11   20.92    1.94
  -8   3  11    6.15    0.89
  -8   3  11    5.03    0.81
   7  -3 -11   14.31    1.33
  -7   3  11   16.86    1.49
   6  -3 -11    4.84    0.73
  -6   3  11    5.86    0.68
  -6   3  11    6.52    0.79
  -5   3  11    1.33    0.36
  -5   3  11    1.33    0.34
   4  -3 -11    6.63    0.80
  -4   3  11    6.79    0.62
  -4   3  11    8.81    0.86
  -4   3  11    8.20    0.72
   3  -3 -11   -0.07    0.32
  -3   3  11    0.25    0.21
  -3   3  11    0.31    0.15
  -3   3  11    0.46    0.21
   2  -3 -11   75.95    5.53
  -2   3  11   82.25    5.43
   1  -3 -11   49.69    3.75
   0  -3 -11    4.82    0.70
   1   3  11   46.83    3.63
   3   3  11    0.99    0.35
   4   3  11   13.80    1.49
  -8   4  11    7.71    0.92
  -8   4  11    5.35    0.99
   7  -4 -11   -0.16    0.62
  -7   4  11    0.83    0.43
  -7   4  11    0.58    0.45
  -6   4  11    1.34    0.38
  -6   4  11    1.13    0.41
   5  -4 -11   -0.14    0.36
  -5   4  11    0.03    0.36
  -5   4  11    0.53    0.32
   4  -4 -11    0.14    0.38
  -4   4  11    0.40    0.24
  -4   4  11    0.92    0.31
   3  -4 -11   11.87    1.21
  -3   4  11   11.45    0.84
  -3   4  11   13.27    0.97
  -3   4  11   14.44    1.18
   2  -4 -11   -0.18    0.44
  -2   4  11    0.32    0.21
   1  -4 -11    9.86    1.19
   0  -4 -11   -0.02    0.54
   0   4  11    0.07    0.25
   1   4  11    9.03    1.10
   2   4  11    2.90    0.69
   3   4  11    0.83    0.55
   4   4  11   33.41    2.80
  -8   5  11    4.53    0.86
  -8   5  11    5.66    0.84
  -7   5  11    2.88    0.51
  -7   5  11    3.02    0.53
  -6   5  11   36.55    2.76
   5  -5 -11   10.14    1.10
  -5   5  11   12.49    1.14
  -5   5  11   11.84    1.08
   4  -5 -11    1.30    0.45
  -4   5  11    2.20    0.38
  -4   5  11    1.96    0.40
  -3   5  11    2.84    0.51
  -3   5  11    2.52    0.50
   2  -5 -11   -0.01    0.54
  -2   5  11    0.58    0.31
  -2   5  11    0.14    0.08
   1  -5 -11   18.37    1.62
   0   5  11    3.47    0.60
   1   5  11    7.20    0.91
   2   5  11    4.87    0.78
   3   5  11   23.98    2.26
  -7   6  11    1.65    0.57
  -7   6  11    2.02    0.51
  -6   6  11   -0.61    0.44
  -6   6  11   -0.04    0.45
   5  -6 -11   -0.07    0.46
  -5   6  11   -0.16    0.45
  -5   6  11    0.00    0.37
  -4   6  11    2.28    0.46
  -4   6  11    3.25    0.56
   3  -6 -11   15.08    1.66
  -3   6  11   19.13    1.51
   2  -6 -11    0.66    0.72
  -1   6  11    0.12    0.39
  -1   6  11    0.08    0.19
   0   6  11   16.99    1.62
   1   6  11    0.40    0.52
   2   6  11    0.55    0.68
  -7   7  11    0.59    0.58
  -7   7  11    0.06    0.61
  -6   7  11    1.11    0.56
  -6   7  11    2.08    0.52
  -5   7  11   27.93    2.28
  -5   7  11   32.11    2.33
   4  -7 -11   16.51    1.75
  -4   7  11   23.91    1.76
  -4   7  11   20.49    1.67
   3  -7 -11    0.80    0.80
  -3   7  11    0.70    0.45
  -2   7  11    6.78    0.91
  -1   7  11   13.50    1.33
   0   7  11   13.75    1.48
  -5   8  11    0.15    0.58
  -5   8  11   -0.15    0.57
  -4   8  11    1.91    0.59
  -4   8  11    2.56    0.57
  -3   8  11    0.49    0.47
  -2   8  11   14.43    1.44
   2   7 -12    0.17    0.50
  -2  -7  12    0.00    0.58
   1   7 -12    9.32    1.13
  -1  -7  12    9.64    1.12
   0   7 -12    0.60    0.43
   0  -7  12    1.43    0.42
  -1   7 -12    1.03    0.60
   1  -7  12    1.03    0.43
  -2   7 -12    3.82    0.87
  -3   7 -12    4.09    0.83
   4   6 -12   11.02    1.05
  -4  -6  12    8.59    1.13
   3   6 -12    4.77    0.73
  -3  -6  12    3.08    0.57
   2   6 -12    0.74    0.45
  -2  -6  12    0.68    0.46
   1   6 -12    0.80    0.45
  -1  -6  12    1.48    0.33
   0   6 -12   -0.53    0.54
   0  -6  12   -0.14    0.45
  -1   6 -12    2.39    0.51
  -2   6 -12   36.66    2.90
  -3   6 -12   26.84    2.36
  -4   6 -12    0.15    0.71
   5   5 -12    1.41    0.40
  -5  -5  12    1.19    0.58
   4   5 -12    5.58    0.73
  -4  -5  12    6.49    0.83
   3   5 -12   -0.24    0.36
  -3  -5  12   -0.11    0.41
   2   5 -12    0.94    0.37
  -2  -5  12    1.13    0.28
   1   5 -12   12.09    1.22
  -1  -5  12   13.33    1.20
   0   5 -12    1.55    0.40
   0  -5  12    1.56    0.40
  -1   5 -12    2.34    0.50
  -2   5 -12   12.71    1.24
  -3   5 -12    5.73    0.96
  -4   5 -12    1.18    0.61
  -5   5 -12   -0.33    0.53
  -5   5 -12   -0.81    0.77
   6   4 -12    9.30    0.93
  -6  -4  12    8.86    1.13
   5   4 -12   24.40    1.85
  -5  -4  12   20.79    1.96
   4   4 -12    0.75    0.33
  -4  -4  12    1.19    0.41
  -3  -4  12   16.25    1.66
   2   4 -12   39.24    2.82
   2   4 -12   35.76    2.71
  -2  -4  12   36.10    2.79
   1   4 -12    1.91    0.42
  -1  -4  12    2.28    0.37
   0   4 -12   -0.30    0.32
   0  -4  12   -0.02    0.32
  -1   4 -12    0.20    0.37
   1  -4  12    0.16    0.29
  -2   4 -12    1.14    0.43
   2  -4  12    1.26    0.29
  -3   4 -12   37.57    2.75
   3  -4  12   32.02    2.38
  -4   4 -12   19.73    1.74
  -4   4 -12   19.95    1.74
  -5   4 -12    5.35    1.13
  -5   4 -12    4.97    0.95
   7   3 -12    2.93    0.55
  -7  -3  12    2.73    0.74
   6   3 -12    4.88    0.64
  -6  -3  12    4.72    0.88
   5   3 -12    7.51    0.82
  -5  -3  12    8.05    0.97
  -4  -3  12    3.13    0.57
   3   3 -12   13.49    1.19
   3   3 -12   11.63    1.29
  -3  -3  12   15.76    1.30
  -3  -3  12   13.68    1.22
   2   3 -12   11.86    1.00
   2   3 -12    8.40    0.97
  -2  -3  12   11.35    1.01
  -2  -3  12   10.60    1.03
   1   3 -12    0.65    0.28
  -1  -3  12    0.70    0.31
  -1  -3  12    0.86    0.20
   0   3 -12   52.71    3.71
   0   3 -12   49.40    3.75
   0  -3  12   50.78    3.57
  -1   3 -12    7.78    1.15
  -1   3 -12   11.19    1.06
   1  -3  12   10.39    0.93
  -2   3 -12    0.93    0.29
   2  -3  12    0.72    0.27
  -3   3 -12   37.51    2.82
  -3   3 -12   41.79    3.03
   3  -3  12   37.71    2.70
  -4   3 -12   21.16    1.81
  -4   3 -12   20.37    1.76
   4  -3  12   22.08    1.57
  -5   3 -12   -0.27    0.67
  -5   3 -12   -0.19    0.55
   5  -3  12   -0.07    0.29
  -7  -2  12    0.77    0.41
  -7  -2  12    0.94    0.64
   6   2 -12    2.09    0.45
  -6  -2  12    2.53    0.58
  -5  -2  12   40.43    3.11
   4   2 -12    0.52    0.22
  -4  -2  12    0.41    0.32
  -4  -2  12    0.11    0.30
   3   2 -12    0.70    0.21
   3   2 -12   -0.03    0.41
  -3  -2  12    1.03    0.27
  -3  -2  12    0.67    0.37
   2   2 -12    8.88    0.84
  -2  -2  12    8.63    0.88
  -2  -2  12    7.91    0.82
   1   2 -12   12.82    1.17
  -1  -2  12   12.22    1.11
   0   2 -12   13.70    1.22
   0  -2  12   13.48    1.21
  -1   2 -12    1.30    0.37
   1  -2  12    1.30    0.27
  -2   2 -12    1.75    0.40
  -2   2 -12    1.71    0.38
   2  -2  12    1.97    0.34
  -3   2 -12    4.73    0.74
  -3   2 -12    5.50    0.78
   3  -2  12    5.67    0.63
  -4   2 -12    7.63    0.87
  -4   2 -12    6.53    0.81
   4  -2  12    7.74    0.76
  -5   2 -12    1.62    0.55
  -5   2 -12    1.60    0.64
   5  -2  12    1.34    0.38
   7   1 -12   10.59    0.97
  -7  -1  12   12.40    1.27
  -7  -1  12   14.51    1.22
   6   1 -12    1.68    0.32
  -6  -1  12    1.91    0.45
  -6  -1  12    2.31    0.40
  -6  -1  12    1.98    0.39
   5   1 -12   26.11    1.99
  -5  -1  12   30.27    2.11
  -5  -1  12   25.06    2.17
  -5  -1  12   26.00    2.16
   4   1 -12    7.71    0.74
  -4  -1  12    7.35    0.80
  -4  -1  12    7.13    0.86
   3   1 -12    3.62    0.46
  -3  -1  12    3.48    0.47
  -3  -1  12    3.45    0.57
   2   1 -12    5.87    0.65
  -2  -1  12    5.05    0.59
  -2  -1  12    5.97    0.68
   1   1 -12    6.34    0.70
  -1  -1  12    5.33    0.67
   0   1 -12    0.76    0.28
   0   1 -12    0.14    0.31
   0  -1  12    0.57    0.25
  -1   1 -12   35.52    2.44
  -1   1 -12   41.12    2.85
  -1   1 -12   31.82    2.86
   1  -1  12   39.42    2.70
  -2   1 -12    6.69    0.64
  -2   1 -12    7.37    0.80
   2  -1  12    7.18    0.74
  -3   1 -12    0.50    0.36
  -3   1 -12    0.66    0.41
   3  -1  12    0.44    0.29
  -4   1 -12   59.60    4.44
   4  -1  12   64.34    4.26
  -5   1 -12   25.65    2.47
  -5   1 -12   24.42    2.14
   5  -1  12   26.21    1.93
   8   0 -12    4.60    0.45
  -8   0  12    6.56    0.80
   7   0 -12    3.34    0.44
  -7   0  12    4.56    0.72
  -7   0  12    3.09    0.65
  -7   0  12    4.31    0.65
  -6   0  12    3.40    0.69
  -6   0  12    2.33    0.46
  -6   0  12    4.11    0.55
   5   0 -12    8.84    0.79
  -5   0  12    8.25    0.89
  -5   0  12    9.38    0.85
  -5   0  12    7.52    0.95
   4   0 -12   18.61    1.74
  -4   0  12   21.68    1.76
  -4   0  12   19.88    1.67
  -4   0  12   23.26    1.60
   3   0 -12   16.66    1.52
  -3   0  12   19.08    1.57
  -3   0  12   16.83    1.41
   2   0 -12    0.06    0.30
  -2   0  12    0.85    0.29
   1   0 -12    0.10    0.30
  -1   0  12    0.34    0.27
   0   0 -12   -0.06    0.45
   0   0  12    0.91    0.28
  -1   0 -12    5.95    0.74
  -2   0 -12   24.80    2.02
   2   0  12   23.61    1.89
  -3   0 -12    1.25    0.43
   3   0  12    1.25    0.35
  -4   0 -12    0.08    0.51
   8  -1 -12    1.51    0.33
  -8   1  12    1.96    0.48
   7  -1 -12   21.30    1.52
  -7   1  12   17.50    1.75
  -7   1  12   21.84    1.78
   6  -1 -12   12.24    1.33
  -6   1  12   14.60    1.20
  -6   1  12   14.33    1.23
  -5   1  12    7.40    0.84
  -5   1  12    9.06    0.95
  -5   1  12    8.21    0.83
  -4   1  12   10.47    0.87
  -4   1  12    9.90    0.94
  -4   1  12    9.65    0.98
   3  -1 -12   69.61    4.95
  -3   1  12   70.00    4.70
  -3   1  12   68.96    4.90
   2  -1 -12    3.34    0.53
   1  -1 -12   -0.04    0.32
  -1   1  12   -0.10    0.29
   0  -1 -12    7.44    1.00
   1   1  12    2.35    0.46
   3   1  12   18.76    1.81
  -4  -1 -12    3.40    0.66
   4   1  12    2.53    0.59
   5   1  12   24.71    2.25
   8  -2 -12   10.34    0.83
  -8   2  12    8.38    0.97
  -8   2  12    9.23    1.05
  -7   2  12    2.22    0.47
  -7   2  12    2.62    0.56
   6  -2 -12   20.44    1.77
  -6   2  12   19.67    1.57
  -6   2  12   17.67    1.49
   5  -2 -12    0.23    0.45
  -5   2  12    0.26    0.29
  -5   2  12    0.20    0.39
  -5   2  12   -0.23    0.25
  -4   2  12    4.06    0.50
  -4   2  12    4.25    0.51
  -4   2  12    3.65    0.52
  -3   2  12    3.81    0.46
  -3   2  12    3.41    0.55
   2  -2 -12    0.03    0.42
  -2   2  12    0.27    0.29
   1  -2 -12    4.36    0.80
   0   2  12    2.91    0.52
   1   2  12   13.85    1.42
   2   2  12    1.06    0.40
   3   2  12    2.92    0.74
   4   2  12    0.14    0.57
  -8   3  12   -0.41    0.49
  -8   3  12   -0.26    0.62
   7  -3 -12    3.43    0.56
  -7   3  12    4.97    0.65
   6  -3 -12   27.37    2.15
  -6   3  12   23.80    2.34
  -6   3  12   27.93    2.10
   5  -3 -12   12.37    1.23
  -5   3  12   11.68    1.00
  -5   3  12   15.26    1.18
  -5   3  12   15.06    1.32
   4  -3 -12   23.37    2.03
  -4   3  12   23.64    1.76
  -4   3  12   26.43    2.05
  -4   3  12   27.06    1.80
  -3   3  12    9.28    1.04
  -3   3  12   11.53    0.78
  -3   3  12   10.49    0.88
   2  -3 -12   -0.13    0.43
  -2   3  12    0.52    0.32
   1  -3 -12    1.49    0.55
   0   3  12    0.34    0.36
   1   3  12    2.83    0.72
   2   3  12    0.60    0.46
   3   3  12    1.40    0.55
   4   3  12    9.01    1.22
  -8   4  12    2.77    0.58
  -8   4  12    2.81    0.66
  -7   4  12    0.99    0.53
  -7   4  12    0.97    0.44
  -6   4  12    0.79    0.43
  -6   4  12    0.97    0.42
   5  -4 -12    2.72    0.47
  -5   4  12    3.43    0.80
   4  -4 -12    0.72    0.48
  -4   4  12    1.44    0.37
  -4   4  12    1.71    0.40
   3  -4 -12   -0.05    0.48
  -3   4  12    0.19    0.15
  -3   4  12    0.37    0.34
   2  -4 -12   -0.13    0.56
  -2   4  12    0.87    0.33
  -1   4  12    0.30    0.32
   0   4  12    0.94    0.40
   1   4  12   38.47    3.13
   2   4  12    3.65    0.62
   3   4  12    0.95    0.65
  -8   5  12    0.10    0.54
  -8   5  12    0.69    0.66
  -7   5  12    0.56    0.51
  -7   5  12    0.37    0.54
   6  -5 -12   -0.38    0.48
  -6   5  12   -0.07    0.46
  -6   5  12    0.26    0.47
  -5   5  12   12.12    1.10
  -5   5  12   11.28    1.08
   4  -5 -12   31.70    2.61
  -4   5  12   37.64    2.69
   3  -5 -12   19.71    1.93
  -3   5  12   25.84    1.89
   2  -5 -12   13.93    1.58
  -2   5  12   19.60    1.21
  -1   5  12   31.80    2.20
   0   5  12   12.41    1.10
   1   5  12    0.30    0.49
   2   5  12    0.62    0.46
  -7   6  12    4.70    0.86
  -7   6  12    3.54    0.69
  -6   6  12    0.08    0.51
  -6   6  12    0.35    0.38
   5  -6 -12    0.03    0.60
  -5   6  12    0.24    0.46
  -5   6  12    0.84    0.49
  -4   6  12    4.45    0.57
  -4   6  12    4.51    0.72
   3  -6 -12   -0.35    0.73
  -3   6  12    0.08    0.32
  -2   6  12    1.39    0.42
  -1   6  12    0.97    0.41
   0   6  12    0.22    0.52
   1   6  12    1.70    0.48
  -6   7  12   -0.31    0.60
  -6   7  12    0.03    0.58
  -5   7  12    0.60    0.50
  -5   7  12    0.56    0.57
  -4   7  12    7.78    0.81
  -3   7  12    2.52    0.53
  -2   7  12    0.44    0.49
  -1   7  12    2.07    0.56
   1   7 -13    1.94    0.64
  -1  -7  13    1.34    0.48
   0   7 -13    0.22    0.67
   0  -7  13    0.35    0.47
  -1   7 -13   -0.03    0.71
   1  -7  13   -0.20    0.49
   3   6 -13    1.24    0.51
  -3  -6  13    0.98    0.42
   2   6 -13   18.52    1.65
  -2  -6  13   16.70    1.57
   1   6 -13   22.22    1.94
  -1  -6  13   23.85    1.95
   0   6 -13    1.97    0.43
   0  -6  13    1.35    0.52
  -1   6 -13    4.27    0.72
  -3   6 -13   -0.62    0.74
   5   5 -13   17.61    1.55
  -5  -5  13   15.86    1.64
   4   5 -13    9.18    0.93
  -4  -5  13    7.55    0.87
   3   5 -13   -0.03    0.41
  -3  -5  13    0.39    0.46
   2   5 -13    0.19    0.41
  -2  -5  13    0.69    0.42
   1   5 -13    3.85    0.71
  -1  -5  13    3.89    0.53
   0   5 -13    2.43    0.56
   0  -5  13    1.25    0.45
  -1   5 -13    2.62    0.57
  -2   5 -13    6.84    0.88
  -3   5 -13    0.13    0.62
  -4   5 -13    9.35    1.10
   5   4 -13    3.11    0.65
  -5  -4  13    2.28    0.58
   4   4 -13    9.83    1.03
  -4  -4  13   10.05    1.04
   3   4 -13    4.75    0.61
  -3  -4  13    4.06    0.55
   2   4 -13    0.80    0.42
  -2  -4  13    1.03    0.27
   1   4 -13   17.54    1.56
   0   4 -13   30.67    2.44
   0  -4  13   31.13    2.35
  -1   4 -13   12.63    1.28
   1  -4  13   12.09    1.11
  -2   4 -13    8.62    1.04
   2  -4  13    8.10    0.80
  -3   4 -13   14.32    1.36
   3  -4  13   13.60    1.13
  -4   4 -13    5.16    0.82
  -4   4 -13    4.61    0.86
   6   3 -13    3.53    0.64
  -6  -3  13    4.65    0.70
   5   3 -13   -0.12    0.33
  -5  -3  13   -0.03    0.36
   4   3 -13    1.88    0.34
  -3  -3  13    9.82    1.00
  -3  -3  13   11.28    1.11
   2   3 -13   -0.03    0.45
   2   3 -13    0.23    0.29
  -2  -3  13    0.20    0.35
  -2  -3  13    0.36    0.30
   1   3 -13    8.96    0.91
  -1  -3  13    8.23    0.90
  -1  -3  13    8.68    0.87
   0   3 -13   12.04    1.19
   0  -3  13   11.49    1.04
  -1   3 -13    5.10    0.79
   1  -3  13    5.66    0.68
  -2   3 -13    2.95    0.57
   2  -3  13    3.43    0.54
  -3   3 -13    0.17    0.46
  -3   3 -13    0.57    0.39
   3  -3  13    0.30    0.33
  -4   3 -13   -0.10    0.47
  -4   3 -13    0.15    0.54
   4  -3  13    0.14    0.34
   7   2 -13    9.92    0.97
  -7  -2  13   14.04    1.25
  -7  -2  13   11.66    1.33
   6   2 -13    1.19    0.33
  -6  -2  13    1.68    0.51
   5   2 -13    0.13    0.26
  -5  -2  13    0.00    0.43
  -5  -2  13    0.50    0.39
   4   2 -13   53.84    4.10
  -4  -2  13   54.53    4.01
  -4  -2  13   58.97    4.39
   3   2 -13    0.75    0.24
  -3  -2  13    0.53    0.37
  -3  -2  13    0.80    0.30
   2   2 -13    8.56    0.87
  -2  -2  13    7.64    0.89
  -2  -2  13    7.76    0.81
   1   2 -13    9.89    0.95
  -1  -2  13    9.57    0.92
   0   2 -13   12.41    1.17
   0  -2  13   11.14    1.06
  -1   2 -13   17.41    1.52
   1  -2  13   16.28    1.39
  -2   2 -13    3.88    0.71
   2  -2  13    3.18    0.56
  -3   2 -13    2.66    0.53
  -3   2 -13    4.16    0.79
   3  -2  13    3.72    0.61
  -4   2 -13    1.85    0.60
  -4   2 -13    1.46    0.54
   4  -2  13    1.94    0.42
   5  -2  13    7.57    0.86
   7   1 -13    1.10    0.31
  -7  -1  13    1.20    0.41
  -7  -1  13    1.87    0.61
   6   1 -13   40.94    3.01
  -6  -1  13   43.12    3.30
  -6  -1  13   40.27    3.26
  -6  -1  13   48.36    3.24
   5   1 -13   15.11    1.24
  -5  -1  13   13.63    1.29
  -5  -1  13   14.68    1.44
   4   1 -13   14.55    1.26
  -4  -1  13   13.88    1.32
  -4  -1  13   14.44    1.28
   3   1 -13   47.23    3.22
   3   1 -13   41.77    3.39
  -3  -1  13   41.51    3.13
  -3  -1  13   45.63    3.33
   2   1 -13   51.98    3.99
   2   1 -13   59.48    3.95
  -2  -1  13   55.14    3.94
  -2  -1  13   52.73    3.80
   1   1 -13    7.46    0.83
  -1  -1  13    6.61    0.74
   0   1 -13   16.23    1.45
   0  -1  13   16.48    1.38
  -1   1 -13   52.96    3.80
   1  -1  13   50.97    3.66
  -2   1 -13    5.11    0.76
   2  -1  13    4.39    0.58
  -3   1 -13    0.05    0.49
   3  -1  13   -0.22    0.38
   4  -1  13    2.24    0.47
   8   0 -13    0.01    0.25
  -8   0  13    0.42    0.58
   7   0 -13   15.03    1.24
  -7   0  13   18.88    1.46
  -7   0  13   14.99    1.56
  -7   0  13   14.78    1.45
   6   0 -13    3.54    0.51
  -6   0  13    3.17    0.58
  -6   0  13    4.16    0.59
  -6   0  13    4.03    0.83
   5   0 -13    7.05    1.21
  -5   0  13    8.00    1.10
  -5   0  13    9.50    0.97
   4   0 -13    3.79    0.51
  -4   0  13    3.09    0.51
  -4   0  13    4.08    0.66
  -3   0  13    3.63    0.48
  -3   0  13    3.62    0.61
   2   0 -13    0.30    0.51
  -2   0  13    0.50    0.35
  -2   0  13    0.94    0.23
   1   0 -13   -0.33    0.50
  -1   0  13   -0.09    0.25
   0   0  13   17.58    1.48
  -1   0 -13    0.97    0.30
   1   0  13    0.58    0.32
  -2   0 -13   31.85    2.48
   2   0  13   29.55    2.32
  -3   0 -13    0.30    0.39
   3   0  13    0.52    0.41
  -4   0 -13   17.81    1.68
   4   0  13   17.33    1.52
   8  -1 -13    2.17    0.43
  -8   1  13    1.91    0.69
  -8   1  13    2.53    0.52
   7  -1 -13    6.78    0.70
  -7   1  13    6.59    1.00
  -7   1  13    6.33    0.88
  -7   1  13    7.33    0.84
  -6   1  13    7.79    1.01
  -6   1  13    9.64    0.96
  -6   1  13    9.14    0.90
   5  -1 -13   -0.13    0.52
  -5   1  13   -0.03    0.34
  -5   1  13   -0.03    0.33
   4  -1 -13   -0.12    0.39
  -4   1  13    0.31    0.38
  -4   1  13   -0.15    0.29
  -4   1  13    0.07    0.27
   3  -1 -13    0.20    0.49
  -3   1  13    0.80    0.24
  -3   1  13    0.51    0.28
   2  -1 -13   19.39    1.78
  -2   1  13   23.32    1.82
   1  -1 -13   22.45    2.09
  -1   1  13   30.50    2.16
   0   1  13   52.82    3.80
   1   1  13   17.97    1.55
   2   1  13   56.86    4.05
  -3  -1 -13   30.63    2.51
  -4  -1 -13    0.45    0.73
   8  -2 -13    1.43    0.32
  -8   2  13    1.33    0.53
  -8   2  13    0.78    0.73
  -7   2  13   15.45    1.36
  -7   2  13   12.99    1.39
   6  -2 -13   -0.01    0.60
  -6   2  13   -0.14    0.50
  -6   2  13   -0.12    0.39
  -6   2  13    0.25    0.32
   5  -2 -13    0.21    0.52
  -5   2  13    0.66    0.35
  -5   2  13    0.84    0.29
   4  -2 -13   23.30    2.26
  -4   2  13   31.81    2.01
  -4   2  13   29.38    2.08
  -4   2  13   27.62    2.29
   3  -2 -13   -0.10    0.51
  -3   2  13    0.65    0.28
  -3   2  13    0.79    0.25
   2  -2 -13    3.08    0.62
  -1   2  13   15.76    1.40
   0   2  13    5.19    0.61
   1   2  13    0.52    0.28
   2   2  13   11.68    1.29
   3   2  13    5.10    0.70
  -8   3  13   28.98    2.19
  -8   3  13   24.12    2.22
  -7   3  13    1.13    0.59
  -7   3  13    1.77    0.45
  -6   3  13    7.27    0.97
  -6   3  13    9.67    0.93
   5  -3 -13   16.12    1.59
  -5   3  13   16.68    1.32
  -5   3  13   19.96    1.44
  -5   3  13   18.58    1.64
  -4   3  13    7.13    0.66
  -3   3  13   13.95    1.08
  -3   3  13   13.28    1.25
   2  -3 -13   10.81    1.28
  -1   3  13    2.03    0.41
   1   3  13    3.56    0.73
   2   3  13   11.43    1.23
   3   3  13   19.60    1.92
  -7   4  13   -0.17    0.50
  -7   4  13    0.12    0.60
  -6   4  13    4.31    0.64
  -6   4  13    5.16    0.73
   5  -4 -13   -0.05    0.58
  -5   4  13    0.05    0.46
  -5   4  13    0.15    0.39
   4  -4 -13   20.31    1.98
  -4   4  13   24.62    1.96
   3  -4 -13   45.14    3.65
  -3   4  13   52.29    3.63
  -2   4  13    1.59    0.41
  -1   4  13    1.58    0.32
   0   4  13   10.66    1.20
   1   4  13    2.83    0.57
   2   4  13    0.45    0.61
  -7   5  13    2.94    0.57
  -7   5  13    1.90    0.64
  -6   5  13    3.69    0.62
  -6   5  13    4.36    0.76
  -5   5  13   13.41    1.33
  -5   5  13   14.25    1.23
   4  -5 -13    9.14    1.23
  -3   5  13    0.25    0.44
  -2   5  13    0.31    0.33
  -2   5  13   -0.05    0.17
  -1   5  13    4.49    0.76
   0   5  13    0.77    0.39
   1   5  13    7.57    1.05
  -6   6  13    0.78    0.58
  -6   6  13   -0.20    0.57
  -5   6  13    1.65    0.40
  -5   6  13    1.79    0.72
   4  -6 -13    0.13    0.79
  -4   6  13    0.34    0.37
  -3   6  13    0.80    0.47
  -1   6  13   25.03    2.21
   0   6  13   10.61    1.13
  -4   7  13    0.99    0.54
  -3   7  13    2.91    0.61
   2   6 -14    7.47    0.99
  -2  -6  14    8.13    1.03
   1   6 -14    2.95    0.65
  -1  -6  14    4.76    0.66
   0   6 -14    4.48    0.76
   0  -6  14    4.18    0.88
  -1   6 -14    1.08    0.51
   1  -6  14    1.05    0.48
  -2   6 -14    0.78    0.58
   4   5 -14    1.59    0.49
  -4  -5  14    1.21    0.60
   3   5 -14    0.28    0.46
  -3  -5  14    1.38    0.39
   2   5 -14    3.09    0.58
  -2  -5  14    3.00    0.53
   1   5 -14    0.14    0.37
  -1  -5  14   -0.18    0.35
   0   5 -14   36.66    2.96
   0  -5  14   40.20    3.03
  -1   5 -14   39.85    3.17
  -2   5 -14    2.35    0.78
  -3   5 -14    4.19    0.79
   5   4 -14    0.70    0.46
  -5  -4  14    1.26    0.61
   4   4 -14    2.53    0.43
  -4  -4  14    2.08    0.53
   3   4 -14    4.01    0.73
  -3  -4  14    3.54    0.70
   2   4 -14   -0.25    0.40
  -2  -4  14   -0.11    0.37
   1   4 -14    0.44    0.39
  -1  -4  14    0.29    0.37
  -1  -4  14    0.88    0.43
   0  -4  14    4.46    0.68
  -1   4 -14    4.00    0.85
   1  -4  14    3.57    0.67
  -2   4 -14   -0.47    0.60
   2  -4  14    0.10    0.40
  -3   4 -14   -0.16    0.51
   3  -4  14    0.25    0.37
   6   3 -14    4.62    0.72
  -6  -3  14    5.31    1.02
   5   3 -14    0.00    0.39
  -5  -3  14   -0.12    0.54
   4   3 -14   17.41    1.50
  -4  -3  14   16.06    1.47
   3   3 -14    0.24    0.34
  -3  -3  14    0.66    0.47
  -3  -3  14    0.76    0.38
   2   3 -14    5.33    0.70
  -2  -3  14    4.89    0.74
   1   3 -14    2.73    0.49
  -1  -3  14    3.25    0.60
   0   3 -14    1.82    0.45
   0  -3  14    2.10    0.42
  -1   3 -14   14.39    1.41
   1  -3  14   12.82    1.22
  -2   3 -14   45.65    3.37
   2  -3  14   40.69    3.04
  -3   3 -14   16.28    1.50
  -3   3 -14   14.90    1.39
   3  -3  14   15.08    1.30
  -4   3 -14   10.90    1.38
   4  -3  14    8.62    0.93
   6   2 -14    0.18    0.37
  -6  -2  14   -0.30    0.60
   5   2 -14    0.50    0.34
  -5  -2  14    0.59    0.46
  -5  -2  14    1.26    0.61
   4   2 -14    0.78    0.32
  -4  -2  14    0.82    0.38
  -4  -2  14    0.42    0.52
   3   2 -14   18.77    1.50
  -3  -2  14   15.89    1.53
  -3  -2  14   15.65    1.44
   2   2 -14    2.65    0.50
  -2  -2  14    1.97    0.46
  -2  -2  14    1.66    0.34
   1   2 -14    3.24    0.62
  -1  -2  14    3.85    0.64
   0   2 -14    0.07    0.30
   0  -2  14    0.43    0.37
  -1   2 -14    0.28    0.47
   1  -2  14    0.30    0.39
  -2   2 -14   10.36    1.07
   2  -2  14    9.07    0.97
  -3   2 -14   11.84    1.36
   3  -2  14   12.22    1.14
  -4   2 -14    0.99    0.77
   4  -2  14   -0.07    0.48
   7   1 -14   15.87    1.38
  -7  -1  14   16.15    1.66
  -7  -1  14   19.83    1.60
   6   1 -14    1.51    0.34
  -6  -1  14    1.43    0.57
  -6  -1  14    1.90    0.50
   5   1 -14    8.06    0.80
  -5  -1  14    8.93    1.04
  -5  -1  14    6.94    0.96
   4   1 -14   13.23    1.20
  -4  -1  14   13.65    1.24
  -4  -1  14   13.16    1.28
   3   1 -14    8.15    0.99
  -3  -1  14    7.73    0.93
  -3  -1  14    6.38    0.73
   2   1 -14   27.33    2.11
  -2  -1  14   25.01    2.10
  -2  -1  14   24.04    1.93
   1   1 -14    1.50    0.38
  -1  -1  14    0.80    0.40
   0   1 -14    0.58    0.41
   0  -1  14   -0.11    0.37
  -1   1 -14    4.81    0.66
   1  -1  14    5.19    0.67
  -2   1 -14   11.07    1.09
   2  -1  14    9.13    1.04
  -3   1 -14   11.78    1.40
   3  -1  14   12.44    1.18
   4  -1  14    2.48    0.57
   7   0 -14    0.15    0.33
  -7   0  14    1.12    0.69
  -7   0  14    0.57    0.55
  -7   0  14    0.26    0.45
   6   0 -14    0.18    0.30
  -6   0  14    0.15    0.41
  -6   0  14    0.48    0.48
  -6   0  14   -0.07    0.58
   5   0 -14    4.75    0.58
  -5   0  14    4.57    0.68
   4   0 -14   -0.05    0.30
  -4   0  14    0.23    0.33
  -4   0  14    0.28    0.50
   3   0 -14   32.45    2.50
  -3   0  14   33.78    2.60
  -3   0  14   29.96    2.38
  -2   0  14    3.35    0.65
  -2   0  14    4.11    0.48
  -1   0  14    2.00    0.43
   0   0 -14   41.41    3.07
   0   0  14   36.51    2.86
  -1   0 -14    1.31    0.36
   1   0  14    1.27    0.41
  -2   0 -14    4.21    0.84
   2   0  14    3.47    0.57
  -3   0 -14    3.66    0.74
   3   0  14    3.83    0.72
   7  -1 -14    6.13    0.71
  -7   1  14    6.42    0.88
  -7   1  14    6.62    0.85
  -7   1  14    5.17    1.08
   6  -1 -14    8.00    0.83
  -6   1  14    7.24    1.06
  -6   1  14    7.50    0.91
  -6   1  14    8.49    0.87
  -5   1  14   25.47    2.28
  -5   1  14   31.69    2.11
  -5   1  14   25.83    2.11
  -4   1  14   11.59    1.15
  -4   1  14   11.09    1.03
  -3   1  14    3.83    0.50
  -3   1  14    3.65    0.67
  -2   1  14    0.27    0.31
  -1   1  14    8.93    0.96
   0   1  14    2.35    0.43
   1   1  14    7.43    0.88
  -3  -1 -14    6.70    1.19
   3   1  14    7.25    0.87
  -7   2  14   -0.13    0.45
  -7   2  14    0.81    0.51
  -6   2  14    0.31    0.37
  -6   2  14    0.06    0.58
  -6   2  14   -0.03    0.42
   5  -2 -14    0.08    0.78
  -5   2  14   -0.31    0.37
  -5   2  14    0.26    0.34
  -5   2  14    0.37    0.52
  -4   2  14    8.13    0.82
  -4   2  14    7.82    0.97
  -3   2  14    0.40    0.29
  -2   2  14    1.04    0.36
  -1   2  14    2.25    0.50
   1   2  14   22.54    1.85
   2   2  14    8.29    0.96
  -7   3  14    3.46    0.70
  -7   3  14    2.55    0.56
   6  -3 -14   -0.50    0.77
  -6   3  14    0.11    0.58
  -6   3  14    0.07    0.44
  -5   3  14    3.25    0.47
  -5   3  14    2.94    0.55
  -4   3  14    4.49    0.63
  -4   3  14    5.23    0.58
  -3   3  14   21.93    1.60
  -3   3  14   20.58    1.83
  -2   3  14   26.75    2.17
  -1   3  14   14.59    1.37
   0   3  14   12.18    1.21
   2   3  14    5.65    1.02
  -7   4  14    0.97    0.53
  -7   4  14    0.99    0.69
  -6   4  14   38.33    2.54
  -6   4  14   30.40    2.70
  -5   4  14    3.45    0.63
  -5   4  14    4.81    0.71
  -4   4  14   10.25    0.99
  -3   4  14    2.25    0.49
  -3   4  14    3.16    0.38
  -2   4  14    0.55    0.46
  -1   4  14   19.43    1.66
   1   4  14    1.08    0.61
  -6   5  14    8.73    1.02
  -6   5  14    8.01    1.07
  -5   5  14    1.61    0.53
  -4   5  14    1.84    0.52
  -3   5  14    1.23    0.52
  -2   5  14    0.85    0.38
  -1   5  14    1.61    0.42
   0   5  14    1.56    0.63
  -5   6  14   40.44    3.11
  -4   6  14    6.82    0.99
  -3   6  14    1.43    0.57
  -2   6  14   33.38    2.61
   3   5 -15   15.94    1.53
  -3  -5  15   15.85    1.43
   2   5 -15    6.16    0.97
  -2  -5  15    8.06    0.94
   1   5 -15    0.97    0.58
  -1  -5  15   -0.52    0.52
   0   5 -15    0.53    0.47
   0  -5  15    0.12    0.43
  -1   5 -15    1.49    0.70
   4   4 -15    0.58    0.50
  -4  -4  15   -0.13    0.56
   3   4 -15    1.66    0.48
  -3  -4  15    1.80    0.51
   2   4 -15   18.89    1.68
  -2  -4  15   17.94    1.57
   1   4 -15    2.28    0.42
  -1  -4  15    2.61    0.62
  -1  -4  15    3.09    0.55
   0   4 -15   13.15    1.29
   0  -4  15   10.64    1.14
  -1   4 -15    2.12    0.67
   1  -4  15    2.34    0.51
  -2   4 -15    0.71    0.85
   2  -4  15    0.59    0.48
   5   3 -15   15.29    1.31
  -5  -3  15   14.54    1.47
   4   3 -15   10.61    1.09
  -4  -3  15   10.40    1.12
   3   3 -15   23.33    1.88
  -3  -3  15   19.80    1.82
  -3  -3  15   24.43    2.01
   2   3 -15   37.15    2.78
  -2  -3  15   35.03    2.66
  -2  -3  15   34.27    2.76
   1   3 -15   40.54    3.05
  -1  -3  15   38.02    2.96
  -1  -3  15   40.00    3.00
   0   3 -15    3.81    0.65
   0  -3  15    3.65    0.78
  -1   3 -15   14.42    1.57
   1  -3  15   12.71    1.26
  -2   3 -15    2.41    0.68
   2  -3  15    2.29    0.52
  -3   3 -15    7.11    1.25
   3  -3  15    5.40    0.87
   6   2 -15   12.12    1.13
  -6  -2  15   12.37    1.33
   5   2 -15    1.79    0.43
  -5  -2  15    2.12    0.52
  -5  -2  15    2.31    0.71
   4   2 -15    2.07    0.42
  -4  -2  15    1.36    0.60
  -4  -2  15    1.05    0.45
   3   2 -15    1.83    0.41
  -3  -2  15    1.62    0.43
  -3  -2  15    1.56    0.49
   2   2 -15    3.78    0.66
   1   2 -15    6.58    0.86
  -1  -2  15    4.54    0.76
   0   2 -15    1.98    0.52
   0  -2  15    1.12    0.45
  -1   2 -15   26.31    2.16
   1  -2  15   23.78    2.01
  -2   2 -15    7.34    1.07
   2  -2  15    5.51    0.85
  -3   2 -15    0.94    0.76
   3  -2  15    0.15    0.54
   6   1 -15   12.01    1.14
  -6  -1  15   11.24    1.27
  -6  -1  15   12.61    1.39
   5   1 -15    3.93    0.65
  -5  -1  15    2.56    0.72
   4   1 -15    8.02    0.87
  -4  -1  15    7.14    0.88
  -4  -1  15    7.27    0.88
   3   1 -15    0.12    0.36
  -3  -1  15    0.17    0.35
  -3  -1  15    0.66    0.53
   2   1 -15    9.93    1.02
  -2  -1  15    8.35    0.86
   1   1 -15   30.79    2.75
  -1  -1  15   30.51    2.44
   0   1 -15   29.81    2.38
   0  -1  15   26.40    2.21
  -1   1 -15   21.69    1.89
   1  -1  15   19.21    1.65
  -2   1 -15    1.72    0.64
   2  -1  15    1.60    0.53
  -3   1 -15   22.41    1.92
   3  -1  15   20.59    1.80
   6   0 -15    0.91    0.38
  -6   0  15    0.89    0.58
  -6   0  15    0.31    0.54
   5   0 -15    3.78    0.65
  -5   0  15    2.81    0.56
  -5   0  15    2.79    0.66
   4   0 -15    8.48    0.89
  -4   0  15    8.15    1.04
  -4   0  15    6.41    0.87
   3   0 -15   10.23    1.09
  -3   0  15    9.90    1.00
  -3   0  15   10.57    1.12
   2   0 -15   -0.27    0.50
  -2   0  15    0.52    0.84
  -2   0  15    0.44    0.32
   1   0 -15    4.79    0.81
  -1   0  15    3.49    0.55
   0   0 -15   26.77    2.14
   0   0  15   22.98    1.97
  -1   0 -15    1.27    0.43
   1   0  15    1.18    0.48
  -2   0 -15   37.85    2.99
  -3   0 -15    1.75    0.81
   3   0  15    0.31    0.56
   7  -1 -15    7.71    0.90
  -7   1  15    8.07    0.96
  -7   1  15    9.10    1.11
  -7   1  15    6.53    1.25
   6  -1 -15    0.23    0.37
  -6   1  15    0.11    0.46
  -6   1  15   -0.11    0.53
  -6   1  15    0.46    0.70
  -5   1  15    1.48    0.48
  -5   1  15    2.08    0.63
  -4   1  15    0.94    0.37
  -4   1  15    1.32    0.54
  -3   1  15    4.16    0.62
  -3   1  15    4.03    0.62
  -2   1  15    3.71    0.75
  -2   1  15    3.97    0.53
  -1   1  15    0.15    0.48
   0   1  15   25.06    2.06
   1   1  15   15.51    1.46
  -2  -1 -15   -1.13    0.72
   2   1  15   -0.14    0.54
  -7   2  15    0.08    0.54
  -7   2  15    0.41    0.73
  -6   2  15    4.16    0.75
  -6   2  15    3.91    0.69
  -6   2  15    5.25    0.76
  -5   2  15    8.62    0.96
  -5   2  15    9.07    0.92
  -4   2  15    7.52    0.82
  -4   2  15    7.55    0.86
  -3   2  15   12.45    1.24
  -3   2  15   12.09    1.07
  -2   2  15   36.76    2.85
  -1   2  15    6.80    0.94
   0   2  15    2.17    0.52
   1   2  15   44.55    3.33
   2   2  15    0.71    0.57
  -6   3  15    0.26    0.50
  -6   3  15    0.18    0.68
  -5   3  15   -0.07    0.61
  -5   3  15    0.56    0.32
  -4   3  15   23.18    1.99
  -4   3  15   22.14    1.66
  -3   3  15    7.68    0.85
  -3   3  15    7.46    0.77
  -2   3  15    0.78    0.51
  -1   3  15    0.13    0.52
   0   3  15    3.65    0.61
   1   3  15    1.47    0.56
  -6   4  15    2.66    0.70
  -6   4  15    1.27    0.60
  -5   4  15    4.63    0.71
  -4   4  15   -0.47    0.57
  -3   4  15    1.47    0.41
  -3   4  15    0.85    0.26
  -2   4  15   12.21    1.02
  -2   4  15   10.90    1.21
  -1   4  15   41.09    3.15
   0   4  15   18.44    1.61
  -5   5  15    6.03    1.00
  -4   5  15    0.36    0.46
  -3   5  15   -0.27    0.61
  -2   5  15    0.83    0.61
   3   4 -16   -0.25    0.57
  -3  -4  16   -0.40    0.57
   2   4 -16   -0.07    0.53
  -2  -4  16    0.46    0.50
   1   4 -16    6.13    1.03
  -1  -4  16    6.23    0.94
  -1  -4  16    8.11    0.99
   0   4 -16    0.44    0.68
   0  -4  16    0.86    0.72
  -1   4 -16    3.12    0.80
   1  -4  16    2.73    0.61
   4   3 -16   16.77    1.49
  -4  -3  16   15.91    1.52
   3   3 -16    1.49    0.51
  -3  -3  16    0.80    0.51
  -3  -3  16    1.90    0.66
   2   3 -16    1.41    0.53
  -2  -3  16    0.58    0.47
  -2  -3  16    0.76    0.55
   1   3 -16    0.54    0.57
  -1  -3  16    0.05    0.46
  -1  -3  16   -0.32    0.57
   0   3 -16    4.35    0.75
  -1   3 -16    8.65    1.23
   1  -3  16    7.11    0.97
   5   2 -16    6.53    0.84
  -5  -2  16    5.93    0.98
  -5  -2  16    7.32    1.24
   4   2 -16    0.71    0.46
  -4  -2  16    0.26    0.69
  -4  -2  16    0.10    0.50
   3   2 -16    6.90    0.88
  -3  -2  16    6.84    0.79
  -3  -2  16    5.00    0.98
   2   2 -16    7.96    0.96
  -2  -2  16    6.22    0.76
  -2  -2  16    5.61    0.97
   1   2 -16    1.31    0.53
  -1  -2  16    1.36    0.56
   0   2 -16   21.73    1.91
  -1   2 -16   42.77    3.12
   1  -2  16   33.83    3.07
  -2   2 -16    0.62    0.73
   2  -2  16    0.68    0.61
   5   1 -16    2.64    0.51
  -5  -1  16    2.42    0.59
  -5  -1  16    2.76    0.79
  -4  -1  16    8.69    0.99
  -4  -1  16    8.63    0.99
   3   1 -16    6.69    0.91
  -3  -1  16    7.30    1.02
   2   1 -16   -0.18    0.37
  -2  -1  16   -0.05    0.73
  -2  -1  16    0.23    0.56
   1   1 -16    0.84    0.53
  -1  -1  16    0.88    0.53
   0   1 -16    3.80    0.71
   0  -1  16    3.62    0.76
  -1   1 -16    2.81    0.72
   1  -1  16    3.11    0.60
   2  -1  16    7.27    0.98
   6   0 -16    1.81    0.48
  -6   0  16    0.77    0.63
  -6   0  16    1.83    0.64
   5   0 -16    2.45    0.49
  -5   0  16    1.99    0.77
  -5   0  16    2.94    0.59
   4   0 -16    9.43    1.06
  -4   0  16    9.36    1.00
  -4   0  16    6.93    0.98
   3   0 -16    3.86    0.72
  -3   0  16    2.73    0.65
  -3   0  16    4.32    0.62
   2   0 -16    2.48    0.54
  -2   0  16    2.55    0.41
  -2   0  16    1.81    0.59
   1   0 -16    2.55    0.59
  -1   0  16    2.21    0.57
   0   0 -16    6.27    0.83
   0   0  16    4.56    0.87
  -1   0 -16    1.35    0.76
   1   0  16    2.25    0.59
  -2   0 -16   26.53    2.84
   2   0  16   24.36    2.12
   6  -1 -16    4.96    0.73
  -6   1  16    2.88    0.67
  -6   1  16    4.14    0.86
   5  -1 -16    0.72    0.47
  -5   1  16    0.45    0.70
  -5   1  16    0.94    0.53
  -4   1  16    1.34    0.43
  -4   1  16    1.72    0.62
  -3   1  16   27.57    2.12
  -3   1  16   26.79    2.32
  -2   1  16    7.17    1.01
  -2   1  16    7.97    0.85
  -1   1  16   -0.05    0.57
   0   1  16    0.36    0.58
  -1  -1 -16    0.51    0.75
   1   1  16    0.20    0.55
  -6   2  16   19.78    1.80
  -6   2  16   20.18    1.64
  -5   2  16    3.95    0.77
  -5   2  16    4.25    0.75
  -4   2  16    0.69    0.65
  -4   2  16    0.42    0.43
  -3   2  16    1.47    0.58
  -2   2  16    0.60    0.44
  -2   2  16    1.50    0.41
  -1   2  16    6.02    0.93
   0   2  16   28.65    2.36
   1   2  16    5.06    0.99
  -5   3  16    3.60    0.77
  -4   3  16   -0.59    0.66
  -4   3  16    0.05    0.38
  -3   3  16    0.17    0.46
  -3   3  16    0.16    0.39
  -2   3  16    1.91    0.42
  -2   3  16    1.51    0.62
  -1   3  16   -0.36    0.62
   0   3  16    1.12    0.58
  -4   4  16   37.04    2.88
  -3   4  16    2.61    0.51
  -2   4  16    4.07    0.73
  -2  -3  17   -0.40    0.72
  -2  -3  17   -0.20    0.51
   1   3 -17    6.17    0.85
  -1  -3  17    4.64    0.88
  -1  -3  17    4.85    0.80
   3   2 -17   38.72    2.88
  -3  -2  17   35.07    2.80
  -3  -2  17   32.74    2.71
   2   2 -17    8.31    1.11
  -2  -2  17    6.89    0.86
  -2  -2  17    5.15    1.08
   1   2 -17    1.11    0.66
  -1  -2  17    0.48    0.62
  -1  -2  17    0.37    0.52
   0   2 -17    4.48    0.82
   0  -2  17    3.61    0.69
   4   1 -17    1.62    0.54
  -4  -1  17    0.76    0.54
  -4  -1  17    0.79    0.79
   3   1 -17   -0.44    0.58
  -3  -1  17    0.35    0.71
  -3  -1  17    0.57    0.49
   2   1 -17   18.05    1.72
  -2  -1  17   16.43    1.53
  -2  -1  17   17.34    1.66
   1   1 -17    0.74    0.68
  -1  -1  17    0.75    0.66
   0   1 -17   -0.24    0.72
   0  -1  17    0.39    0.65
   4   0 -17    8.05    0.99
  -4   0  17    5.48    1.20
  -4   0  17    5.94    0.89
   3   0 -17   15.31    1.48
  -3   0  17   13.71    1.52
   2   0 -17   28.63    2.21
  -2   0  17   21.63    1.89
  -2   0  17   22.46    2.08
   1   0 -17   13.23    1.45
  -1   0  17   11.15    1.30
   0   0 -17    1.89    0.58
   0   0  17    1.79    0.67
   4  -1 -17   -0.17    0.60
  -4   1  17   -0.32    0.53
  -4   1  17    0.07    0.76
  -3   1  17    3.71    0.75
  -3   1  17    2.89    0.53
  -2   1  17   -0.33    0.47
  -2   1  17   -0.06    0.68
  -1   1  17    1.16    0.69
   0  -1 -17   11.11    1.39
   0   1  17    7.51    1.18
  -4   2  17   10.10    1.12
  -4   2  17   11.21    1.39
  -3   2  17    5.17    0.81
  -3   2  17    5.03    0.83
  -2   2  17   21.01    1.92
  -2   2  17   21.06    1.73
  -1   2  17   32.32    2.58
   0   0   0    0.00    0.00
;
_shelx_hkl_checksum              67265
_shelx_res_file
;
TITL rr4 in P-1
    shelx.res
    created by SHELXL-2018/1 at 15:30:17 on 08-Mar-2018
CELL 0.71073   7.218200   7.636400  12.751600  90.707000 102.629000 105.338000
ZERR    2      0.000300   0.000300   0.000600   0.002000   0.002000   0.002000
LATT  1
SFAC C H N O S Cl
UNIT   22 22 6 4 2 4
temp -173.15
L.S.   10
acta
conf
bond $h
htab
HTAB O1B N1A
EQIV $1 x-1, y-1, z-1
HTAB C4B Cl1A_$1
EQIV $2 -x+2, -y+2, -z+1
HTAB N4A N3A_$2
EQIV $3 -x+2, -y+1, -z+1
HTAB N4A O2B_$3
EQIV $4 -x+1, -y+1, -z+1
HTAB C7A Cl1A_$4
HTAB C7A Cl1A_$3
HTAB C8A Cl1A
HTAB C8A N4A_$3
WGHT    0.055400    0.588300
FVAR       0.24254   0.50130
CL1B  6   -0.284773   -0.342928    0.002449    11.00000    0.01386    0.01853 =
         0.01794   -0.00067   -0.00175   -0.00151
S1B   5    0.040243   -0.073683    0.156155    11.00000    0.01419    0.01421 =
         0.01208   -0.00213    0.00224    0.00103
O1B   4    0.390991    0.181920    0.291226    11.00000    0.01666    0.01797 =
         0.01698   -0.00783    0.00246   -0.00262
H1A   2    0.497565    0.281233    0.332333    11.00000    0.05947
O2B   4    0.615907    0.126192    0.206597    11.00000    0.01286    0.02563 =
         0.02085   -0.00367   -0.00095    0.00197
C1B   1    0.446891    0.097402    0.217630    11.00000    0.01691    0.01178 =
         0.01387    0.00008   -0.00072    0.00070
C2B   1    0.283182   -0.039914    0.146604    11.00000    0.01142    0.01466 =
         0.01160    0.00220   -0.00015    0.00177
C3B   1    0.297076   -0.148333    0.065008    11.00000    0.01414    0.01499 =
         0.01577    0.00091    0.00223    0.00356
AFIX  43
H3AA  2    0.418792   -0.147819    0.047805    11.00000   -1.20000
AFIX   0
C4B   1    0.112797   -0.262020    0.008170    11.00000    0.01953    0.01517 =
         0.00985   -0.00411   -0.00129    0.00230
AFIX  43
H4AA  2    0.096144   -0.346000   -0.050993    11.00000   -1.20000
AFIX   0
C5B   1   -0.038197   -0.235583    0.049255    11.00000    0.01432    0.01270 =
         0.01180    0.00006   -0.00146    0.00068
CL1A  6    0.948378    0.514032    0.728864    11.00000    0.01996    0.01831 =
         0.00992    0.00149    0.00017    0.00187
N1A   3    0.657995    0.439748    0.422044    11.00000    0.01168    0.01275 =
         0.01312   -0.00244    0.00280   -0.00077
C2A   1    0.708753    0.611390    0.393337    11.00000    0.01066    0.01560 =
         0.01063   -0.00279    0.00141    0.00222
N3A   3    0.831061    0.753912    0.456597    11.00000    0.01223    0.01432 =
         0.01198    0.00009    0.00222    0.00185
N4A   3    1.041435    0.863606    0.621573    11.00000    0.01667    0.01206 =
         0.01013   -0.00249   -0.00021   -0.00051
H4B1  2    1.076134    0.973738    0.601897    11.00000    0.03485
H4B2  2    1.118892    0.854811    0.683090    11.00000    0.02149
C4A   1    0.912016    0.724415    0.559262    11.00000    0.01047    0.01255 =
         0.01203   -0.00085    0.00180    0.00363
C5A   1    0.856680    0.547563    0.595967    11.00000    0.01274    0.01450 =
         0.00712   -0.00013    0.00102    0.00253
C6A   1    0.732644    0.406803    0.525384    11.00000    0.01417    0.01423 =
         0.01217   -0.00084    0.00462    0.00257
C7A   1    0.620426    0.642382    0.279357    11.00000    0.01784    0.02199 =
         0.01184    0.00293    0.00130    0.00445
AFIX 137
H7BA  2    0.652565    0.773352    0.270051    11.00000   -1.50000
H7BB  2    0.476747    0.591891    0.264024    11.00000   -1.50000
H7BC  2    0.674362    0.582116    0.229662    11.00000   -1.50000
AFIX   0
C8A   1    0.670764    0.214473    0.555020    11.00000    0.01928    0.01030 =
         0.01714    0.00063    0.00312   -0.00261
part 1
AFIX 137
H8B1  2    0.610279    0.133235    0.489367    21.00000   -1.50000
H8B2  2    0.574907    0.204034    0.600045    21.00000   -1.50000
H8B3  2    0.786587    0.180211    0.595054    21.00000   -1.50000
part 2
AFIX 137
H8B4  2    0.718728    0.209791    0.632726   -21.00000   -1.50000
H8B5  2    0.726639    0.137893    0.515809   -21.00000   -1.50000
H8B6  2    0.526406    0.169796    0.535931   -21.00000   -1.50000
part 0
AFIX   0
HKLF 4
REM  rr4 in P-1
REM R1 =  0.0506 for    2947 Fo > 4sig(Fo)  and  0.0635 for all    3636 data
REM    187 parameters refined using      0 restraints
END
WGHT      0.0554      0.5899
REM Instructions for potential hydrogen bonds
HTAB O1B N1A
HTAB C4B Cl1A_$1
HTAB N4A N3A_$2
HTAB N4A O2B_$3
HTAB C7A Cl1A_$4
HTAB C7A Cl1A_$3
HTAB C8A Cl1A
HTAB C8A N4A_$3
REM Highest difference peak  0.757,  deepest hole -0.559,  1-sigma level  0.120
Q1    1  -0.1582 -0.2913  0.0163  11.00000  0.05    0.63
Q2    1   0.9491  0.6207  0.7242  11.00000  0.05    0.60
Q3    1   0.2045 -0.2028  0.0406  11.00000  0.05    0.60
Q4    1   0.3610  0.0183  0.1812  11.00000  0.05    0.60
Q5    1   0.1733 -0.0445  0.1573  11.00000  0.05    0.59
Q6    1   1.0723  0.5870  0.7394  11.00000  0.05    0.59
Q7    1   0.3033 -0.1013  0.1214  11.00000  0.05    0.55
Q8    1   0.6077  0.2268  0.5802  11.00000  0.05    0.53
Q9    1  -0.3883 -0.3969 -0.0242  11.00000  0.05    0.52
Q10   1   0.8249  0.4594  0.7130  11.00000  0.05    0.51
Q11   1   0.0320 -0.1807  0.1528  11.00000  0.05    0.48
Q12   1   0.9119  0.3998  0.7348  11.00000  0.05    0.45
Q13   1   0.6994  0.2172  0.2425  11.00000  0.05    0.44
Q14   1   0.7984  0.4787  0.5537  11.00000  0.05    0.44
Q15   1   0.6641  0.6440  0.3357  11.00000  0.05    0.44
Q16   1  -0.0490 -0.1226  0.0975  11.00000  0.05    0.44
Q17   1  -0.2889 -0.2422 -0.0004  11.00000  0.05    0.44
Q18   1   0.6882  0.3070  0.5419  11.00000  0.05    0.43
Q19   1   0.7269  0.2192  0.1261  11.00000  0.05    0.43
Q20   1   0.0338  0.0274  0.1534  11.00000  0.05    0.43
;
_shelx_res_checksum              75134
loop_
_space_group_symop_operation_xyz
'x, y, z'
'-x, -y, -z'
loop_
_atom_site_type_symbol
_atom_site_label
_atom_site_fract_x
_atom_site_fract_y
_atom_site_fract_z
_atom_site_U_iso_or_equiv
_atom_site_adp_type
_atom_site_calc_flag
_atom_site_occupancy
_atom_site_disorder_assembly
_atom_site_disorder_group
Cl Cl1B -0.28477(8) -0.34293(8) 0.00245(5) 0.01882(16) Uani d 1 . .
S S1B 0.04024(8) -0.07368(8) 0.15616(5) 0.01421(15) Uani d 1 . .
O O1B 0.3910(3) 0.1819(2) 0.29123(14) 0.0189(4) Uani d 1 . .
H H1A 0.498(6) 0.281(6) 0.332(4) 0.059(13) Uiso d 1 . .
O O2B 0.6159(2) 0.1262(3) 0.20660(15) 0.0212(4) Uani d 1 . .
C C1B 0.4469(3) 0.0974(3) 0.21763(19) 0.0155(5) Uani d 1 . .
C C2B 0.2832(3) -0.0399(3) 0.14660(18) 0.0133(4) Uani d 1 . .
C C3B 0.2971(3) -0.1483(3) 0.06501(19) 0.0153(4) Uani d 1 . .
H H3AA 0.418792 -0.147819 0.047805 0.018 Uiso calc 1 . .
C C4B 0.1128(3) -0.2620(3) 0.00817(19) 0.0161(5) Uani d 1 . .
H H4AA 0.096144 -0.346000 -0.050993 0.019 Uiso calc 1 . .
C C5B -0.0382(3) -0.2356(3) 0.04925(18) 0.0142(4) Uani d 1 . .
Cl Cl1A 0.94838(8) 0.51403(8) 0.72886(4) 0.01724(15) Uani d 1 . .
N N1A 0.6580(3) 0.4397(3) 0.42204(16) 0.0134(4) Uani d 1 . .
C C2A 0.7088(3) 0.6114(3) 0.39334(18) 0.0128(4) Uani d 1 . .
N N3A 0.8311(3) 0.7539(3) 0.45660(15) 0.0133(4) Uani d 1 . .
N N4A 1.0414(3) 0.8636(3) 0.62157(16) 0.0144(4) Uani d 1 . .
H H4B1 1.076(5) 0.974(5) 0.602(3) 0.035(9) Uiso d 1 . .
H H4B2 1.119(4) 0.855(4) 0.683(3) 0.021(8) Uiso d 1 . .
C C4A 0.9120(3) 0.7244(3) 0.55926(18) 0.0117(4) Uani d 1 . .
C C5A 0.8567(3) 0.5476(3) 0.59597(17) 0.0119(4) Uani d 1 . .
C C6A 0.7326(3) 0.4068(3) 0.52538(18) 0.0135(4) Uani d 1 . .
C C7A 0.6204(4) 0.6424(4) 0.27936(19) 0.0177(5) Uani d 1 . .
H H7BA 0.652565 0.773352 0.270051 0.027 Uiso calc 1 . .
H H7BB 0.476747 0.591891 0.264024 0.027 Uiso calc 1 . .
H H7BC 0.674362 0.582116 0.229662 0.027 Uiso calc 1 . .
C C8A 0.6708(4) 0.2145(3) 0.5550(2) 0.0171(5) Uani d 1 . .
H H8B1 0.610279 0.133235 0.489367 0.026 Uiso calc 0.50(4) A 1
H H8B2 0.574907 0.204034 0.600045 0.026 Uiso calc 0.50(4) A 1
H H8B3 0.786587 0.180211 0.595054 0.026 Uiso calc 0.50(4) A 1
H H8B4 0.718728 0.209791 0.632726 0.026 Uiso calc 0.50(4) A 2
H H8B5 0.726639 0.137893 0.515809 0.026 Uiso calc 0.50(4) A 2
H H8B6 0.526406 0.169796 0.535931 0.026 Uiso calc 0.50(4) A 2
loop_
_atom_site_aniso_label
_atom_site_aniso_U_11
_atom_site_aniso_U_22
_atom_site_aniso_U_33
_atom_site_aniso_U_12
_atom_site_aniso_U_13
_atom_site_aniso_U_23
Cl1B 0.0139(3) 0.0185(3) 0.0179(3) -0.0015(2) -0.0017(2) -0.0007(2)
S1B 0.0142(3) 0.0142(3) 0.0121(3) 0.0010(2) 0.0022(2) -0.0021(2)
O1B 0.0167(8) 0.0180(9) 0.0170(9) -0.0026(7) 0.0025(7) -0.0078(7)
O2B 0.0129(8) 0.0256(10) 0.0209(9) 0.0020(7) -0.0009(7) -0.0037(7)
C1B 0.0169(11) 0.0118(11) 0.0139(11) 0.0007(9) -0.0007(8) 0.0001(9)
C2B 0.0114(10) 0.0147(11) 0.0116(10) 0.0018(8) -0.0002(8) 0.0022(8)
C3B 0.0141(10) 0.0150(11) 0.0158(11) 0.0036(9) 0.0022(8) 0.0009(9)
C4B 0.0195(11) 0.0152(11) 0.0099(10) 0.0023(9) -0.0013(8) -0.0041(9)
C5B 0.0143(10) 0.0127(11) 0.0118(10) 0.0007(8) -0.0015(8) 0.0001(8)
Cl1A 0.0200(3) 0.0183(3) 0.0099(3) 0.0019(2) 0.0002(2) 0.0015(2)
N1A 0.0117(9) 0.0128(9) 0.0131(9) -0.0008(7) 0.0028(7) -0.0024(7)
C2A 0.0107(10) 0.0156(11) 0.0106(10) 0.0022(8) 0.0014(8) -0.0028(8)
N3A 0.0122(9) 0.0143(9) 0.0120(9) 0.0018(7) 0.0022(7) 0.0001(7)
N4A 0.0167(9) 0.0121(10) 0.0101(9) -0.0005(8) -0.0002(7) -0.0025(8)
C4A 0.0105(10) 0.0125(10) 0.0120(10) 0.0036(8) 0.0018(8) -0.0009(8)
C5A 0.0127(10) 0.0145(11) 0.0071(9) 0.0025(8) 0.0010(7) -0.0001(8)
C6A 0.0142(10) 0.0142(11) 0.0122(10) 0.0026(9) 0.0046(8) -0.0008(8)
C7A 0.0178(11) 0.0220(12) 0.0118(11) 0.0045(10) 0.0013(8) 0.0029(9)
C8A 0.0193(11) 0.0103(11) 0.0171(11) -0.0026(9) 0.0031(9) 0.0006(9)
loop_
_atom_type_symbol
_atom_type_description
_atom_type_scat_dispersion_real
_atom_type_scat_dispersion_imag
_atom_type_scat_source
C C 0.0033 0.0016 'International Tables Vol C Tables 4.2.6.8 and 6.1.1.4'
H H 0.0000 0.0000 'International Tables Vol C Tables 4.2.6.8 and 6.1.1.4'
N N 0.0061 0.0033 'International Tables Vol C Tables 4.2.6.8 and 6.1.1.4'
O O 0.0106 0.0060 'International Tables Vol C Tables 4.2.6.8 and 6.1.1.4'
S S 0.1246 0.1234 'International Tables Vol C Tables 4.2.6.8 and 6.1.1.4'
Cl Cl 0.1484 0.1585 'International Tables Vol C Tables 4.2.6.8 and 6.1.1.4'
loop_
_geom_angle_atom_site_label_1
_geom_angle_atom_site_label_2
_geom_angle_atom_site_label_3
_geom_angle
C5B S1B C2B 90.45(11)
C1B O1B H1A 113(3)
O2B C1B O1B 125.2(2)
O2B C1B C2B 121.2(2)
O1B C1B C2B 113.6(2)
C3B C2B C1B 126.5(2)
C3B C2B S1B 111.65(18)
C1B C2B S1B 121.84(18)
C2B C3B C4B 113.5(2)
C2B C3B H3AA 123.3
C4B C3B H3AA 123.3
C5B C4B C3B 111.3(2)
C5B C4B H4AA 124.3
C3B C4B H4AA 124.3
C4B C5B Cl1B 126.31(19)
C4B C5B S1B 113.09(18)
Cl1B C5B S1B 120.59(14)
C2A N1A C6A 118.1(2)
N3A C2A N1A 125.6(2)
N3A C2A C7A 118.0(2)
N1A C2A C7A 116.4(2)
C2A N3A C4A 117.65(19)
C4A N4A H4B1 124(2)
C4A N4A H4B2 125(2)
H4B1 N4A H4B2 110(3)
N4A C4A N3A 118.2(2)
N4A C4A C5A 122.4(2)
N3A C4A C5A 119.4(2)
C6A C5A C4A 119.5(2)
C6A C5A Cl1A 121.36(18)
C4A C5A Cl1A 119.13(17)
N1A C6A C5A 119.7(2)
N1A C6A C8A 116.7(2)
C5A C6A C8A 123.7(2)
C2A C7A H7BA 109.5
C2A C7A H7BB 109.5
H7BA C7A H7BB 109.5
C2A C7A H7BC 109.5
H7BA C7A H7BC 109.5
H7BB C7A H7BC 109.5
C6A C8A H8B1 109.5
C6A C8A H8B2 109.5
H8B1 C8A H8B2 109.5
C6A C8A H8B3 109.5
H8B1 C8A H8B3 109.5
H8B2 C8A H8B3 109.5
C6A C8A H8B4 109.5
C6A C8A H8B5 109.5
H8B4 C8A H8B5 109.5
C6A C8A H8B6 109.5
H8B4 C8A H8B6 109.5
H8B5 C8A H8B6 109.5
loop_
_geom_bond_atom_site_label_1
_geom_bond_atom_site_label_2
_geom_bond_distance
Cl1B C5B 1.717(2)
S1B C5B 1.720(2)
S1B C2B 1.735(2)
O1B C1B 1.322(3)
O1B H1A 0.97(5)
O2B C1B 1.221(3)
C1B C2B 1.473(3)
C2B C3B 1.359(3)
C3B C4B 1.414(3)
C3B H3AA 0.9500
C4B C5B 1.366(3)
C4B H4AA 0.9500
Cl1A C5A 1.728(2)
N1A C2A 1.343(3)
N1A C6A 1.364(3)
C2A N3A 1.332(3)
C2A C7A 1.503(3)
N3A C4A 1.360(3)
N4A C4A 1.328(3)
N4A H4B1 0.87(4)
N4A H4B2 0.87(3)
C4A C5A 1.419(3)
C5A C6A 1.372(3)
C6A C8A 1.497(3)
C7A H7BA 0.9800
C7A H7BB 0.9800
C7A H7BC 0.9800
C8A H8B1 0.9800
C8A H8B2 0.9800
C8A H8B3 0.9800
C8A H8B4 0.9800
C8A H8B5 0.9800
C8A H8B6 0.9800
loop_
_geom_hbond_atom_site_label_D
_geom_hbond_atom_site_label_H
_geom_hbond_atom_site_label_A
_geom_hbond_site_symmetry_A
_geom_hbond_distance_DH
_geom_hbond_distance_HA
_geom_hbond_distance_DA
_geom_hbond_angle_DHA
_geom_hbond_publ_flag
O1B H1A N1A . 0.97(5) 1.66(5) 2.623(3) 169(4) yes
C4B H4AA Cl1A 1_444 0.95 2.86 3.734(2) 153.7 yes
N4A H4B1 N3A 2_776 0.87(4) 2.20(4) 3.070(3) 176(3) yes
N4A H4B2 O2B 2_766 0.87(3) 2.08(3) 2.907(3) 157(3) yes
C7A H7BB Cl1A 2_666 0.98 2.98 3.938(2) 165.6 yes
C7A H7BC Cl1A 2_766 0.98 2.94 3.638(2) 128.6 yes
C8A H8B4 Cl1A . 0.98 2.58 3.110(3) 114.0 yes
C8A H8B5 N4A 2_766 0.98 2.68 3.523(3) 144.8 yes
loop_
_geom_torsion_atom_site_label_1
_geom_torsion_atom_site_label_2
_geom_torsion_atom_site_label_3
_geom_torsion_atom_site_label_4
_geom_torsion
O2B C1B C2B C3B 0.8(4)
O1B C1B C2B C3B -179.3(2)
O2B C1B C2B S1B -176.30(18)
O1B C1B C2B S1B 3.6(3)
C5B S1B C2B C3B 0.25(18)
C5B S1B C2B C1B 177.78(19)
C1B C2B C3B C4B -177.6(2)
S1B C2B C3B C4B -0.2(3)
C2B C3B C4B C5B 0.0(3)
C3B C4B C5B Cl1B 178.81(17)
C3B C4B C5B S1B 0.1(3)
C2B S1B C5B C4B -0.22(19)
C2B S1B C5B Cl1B -178.97(15)
C6A N1A C2A N3A 1.8(3)
C6A N1A C2A C7A -178.94(19)
N1A C2A N3A C4A -0.1(3)
C7A C2A N3A C4A -179.31(19)
C2A N3A C4A N4A 176.8(2)
C2A N3A C4A C5A -2.9(3)
N4A C4A C5A C6A -175.5(2)
N3A C4A C5A C6A 4.3(3)
N4A C4A C5A Cl1A 4.2(3)
N3A C4A C5A Cl1A -176.07(16)
C2A N1A C6A C5A -0.4(3)
C2A N1A C6A C8A 179.17(19)
C4A C5A C6A N1A -2.5(3)
Cl1A C5A C6A N1A 177.80(16)
C4A C5A C6A C8A 177.9(2)
Cl1A C5A C6A C8A -1.7(3)

_cod_database_fobs_code 2021198
