#------------------------------------------------------------------------------
#$Date: 2019-08-29 10:55:16 +0300 (Thu, 29 Aug 2019) $
#$Revision: 217822 $
#$URL: file:///home/coder/svn-repositories/cod/cif/2/02/17/2021759.cif $
#------------------------------------------------------------------------------
#
# This file is available in the Crystallography Open Database (COD),
# http://www.crystallography.net/. The original data for this entry
# were provided by IUCr Journals, http://journals.iucr.org/.
#
# The file may be used within the scientific community so long as
# proper attribution is given to the journal article from which the
# data were obtained.
#
data_2021759
loop_
_publ_author_name
'Marcos R. Imer'
'Virginia Aldabalde'
'Silvina Pagola'
'Jacco van de Streek'
'Leopoldo Suescun'
_publ_contact_author_address
;
Cryssmat-Lab/DETEMA
Facultad de Quimica
Av. Gral. Flores 2124
Montevideo 11800
Uruguay
;
_publ_contact_author_email       leopoldo@fq.edu.uy
_publ_contact_author_fax         59829241906
_publ_contact_author_name        'Leopoldo Suescun'
_publ_contact_author_phone       59829290705
_publ_section_title
;
 Four interpenetrating hydrogen-bonded three-dimensional networks in
 divanillin
;
_publ_section_title_footnote     .
_journal_coeditor_code           SK3715
_journal_date_accepted           2018-11-15
_journal_date_recd_electronic    2018-11-12
_journal_issue                   12
_journal_name_full               'Acta Crystallographica, Section C'
_journal_page_first              1768
_journal_page_last               1773
_journal_paper_category          FA
_journal_paper_doi               10.1107/S2053229618016200
_journal_volume                  74
_journal_year                    2018
_chemical_compound_source        synthesis
_chemical_formula_iupac          'C16 H14 O6'
_chemical_formula_moiety         'C16 H14 O6'
_chemical_formula_sum            'C16 H14 O6'
_chemical_formula_weight         302.28
_chemical_name_common            divanillin
_chemical_name_systematic
;
6,6'-Dihydroxy-5,5'-dimethoxy-[1,1'-biphenyl]-3,3'-dicarbaldehyde
;
_space_group_IT_number           32
_space_group_name_Hall           'P 2 -2ab'
_space_group_name_H-M_alt        'P b a 2'
_symmetry_cell_setting           orthorhombic
_symmetry_space_group_name_Hall  'P 2 -2ab'
_symmetry_space_group_name_H-M   'P b a 2'
_audit_creation_method           'from EXP file using GSAS2CIF'
_cell_angle_alpha                90.0
_cell_angle_beta                 90.0
_cell_angle_gamma                90.0
_cell_formula_units_Z            2
_cell_length_a                   12.28767(11)
_cell_length_b                   13.97200(18)
_cell_length_c                   3.93043(4)
_cell_measurement_temperature    293(2)
_cell_volume                     674.789(13)
_computing_structure_refinement  GSAS
_computing_structure_solution    'direct methods'
_diffrn_ambient_temperature      293(2)
_diffrn_detector                 'NaI scintillator counter'
_diffrn_measurement_device_type  'Rigaku ULTIMA IV diffractometer'
_diffrn_radiation_monochromator  'curved Ge crystal'
_diffrn_radiation_probe          x-ray
_diffrn_source                   'sealed X-ray tube'
_exptl_absorpt_correction_T_max  1.00000
_exptl_absorpt_correction_T_min  1.00000
_exptl_absorpt_process_details
;   GSAS Absorption/surface roughness correction: function number 0
 No correction is applied.
;
_exptl_crystal_density_diffrn    1.488
_pd_block_id
2018-10-19T16:04|ACTAC-DIV|Silvina_Pagola|Rigaku_ULTIMA_IV
_pd_calc_method                  'Rietveld Refinement'
_pd_char_colour                  'light yellow'
_pd_meas_2theta_range_inc        0.01
_pd_meas_2theta_range_max        108.11
_pd_meas_2theta_range_min        5.0
_pd_meas_number_of_points        10312
_pd_meas_scan_method             step
_pd_phase_name                   divainillina
_pd_proc_2theta_range_inc        0.01
_pd_proc_2theta_range_max        108.1043
_pd_proc_2theta_range_min        4.9943
_pd_proc_info_datetime           2018-10-19T16:04:39
_pd_proc_ls_background_function
;   GSAS Background function number 7 with 36 terms.
 Linear interpolation
      1:    746.117     2:    636.840     3:    820.260     4:    1087.66
      5:    1340.36     6:    1694.77     7:    1939.95     8:    1780.04
      9:    1470.80    10:    1469.09    11:    1171.58    12:    1220.23
     13:    1099.08    14:    1133.77    15:    1082.14    16:    1040.03
     17:    920.035    18:    960.677    19:    942.495    20:    867.667
     21:    833.747    22:    817.667    23:    803.239    24:    778.713
     25:    734.737    26:    743.098    27:    717.039    28:    697.800
     29:    637.240    30:    613.791    31:    574.878    32:    571.899
     33:    544.400    34:    538.892    35:    514.075    36:    523.654
;
_pd_proc_ls_peak_cutoff          0.00100
_pd_proc_ls_pref_orient_corr
;   March-Dollase
 AXIS  1 Ratio=   0.77078  h= 1.000  k= 0.000  l= 0.000
 Prefered orientation correction range: Min=   0.67671, Max=   2.18374
;
_pd_proc_ls_profile_function
;
CW Profile function number 3 with  19 terms
pseudo-Voigt profile coefficients as parameterized in
P. Thompson, D.E. Cox & J.B. Hastings (1987). J. Appl.
Cryst.,20,79-83.
Asymmetry correction of L.W. Finger, D.E. Cox & A. P. Jephcoat (1994).
J. Appl. Cryst.,27,892-900.
#1(GU)   =  280.285 #2(GV)   =  -19.927 #3(GW)   =   18.038
#4(GP)   =    0.000 #5(LX)   =    5.378 #6(LY)   =    0.000
#7(S/L)  =   0.0295 #8(H/L)  =   0.0301
#9(trns) =     8.98 #10(shft)=   0.0000
#11(stec)=     0.00 #12(ptec)=     0.00 #13(sfec)=     0.00
#14(L11) =    0.026 #15(L22) =   -0.035 #16(L33) =    2.037
#17(L12) =   -0.015 #18(L13) =    0.214 #19(L23) =   -0.135
Peak tails are ignored  where the intensity is below 0.0010 times the peak
Aniso. broadening axis   0.0   0.0   1.0
;
_pd_proc_ls_prof_R_factor        0.0350
_pd_proc_ls_prof_wR_expected     0.0220
_pd_proc_ls_prof_wR_factor       0.0492
_pd_proc_number_of_points        10312
_pd_spec_mounting
' Glass sample holder with a 20x20x0.5 mm indentation for the sample'
_pd_spec_mount_mode              'reflection, \q-\q geometry'
_pd_spec_shape                   flat_sheet
_pd_spec_size_axial              20
_pd_spec_size_thick              0.5
_refine_diff_density_max         0.183
_refine_diff_density_min         -0.145
_refine_ls_goodness_of_fit_all   2.30
_refine_ls_matrix_type           full
_refine_ls_number_parameters     116
_refine_ls_number_restraints     56
_refine_ls_shift/su_max          0.02
_refine_ls_shift/su_mean         0.00
_reflns_number_total             942
_cod_data_source_file            sk3715sup1.cif
_cod_data_source_block           I
_cod_original_cell_volume        674.790(12)
_cod_database_code               2021759
loop_
_symmetry_equiv_pos_site_id
_symmetry_equiv_pos_as_xyz
1 +x,+y,+z
2 -x+1/2,+y+1/2,+z
3 +x+1/2,-y+1/2,+z
4 -x,-y,+z
loop_
_atom_site_type_symbol
_atom_site_label
_atom_site_fract_x
_atom_site_fract_y
_atom_site_fract_z
_atom_site_U_iso_or_equiv
_atom_site_thermal_displace_type
_atom_site_occupancy
_atom_site_symmetry_multiplicity
O O1 0.13485(8) 0.31375(11) 0.8931(7) 0.0784(8) Uiso 1.0 4
O O2 0.20440(9) 0.64551(12) 0.2917(7) 0.0663(8) Uiso 1.0 4
O O3 0.42399(10) 0.64420(7) 0.2402(5) 0.0707(7) Uiso 1.0 4
C C1 0.27806(12) 0.41290(11) 0.6785(6) 0.0470(13) Uiso 1.0 4
C C2 0.21080(10) 0.48780(17) 0.5520(9) 0.0493(11) Uiso 1.0 4
C C3 0.26177(13) 0.56830(16) 0.4107(11) 0.0598(13) Uiso 1.0 4
C C4 0.37574(11) 0.57070(11) 0.4036(6) 0.0607(14) Uiso 1.0 4
C C5 0.44038(11) 0.49460(17) 0.5 0.0375(12) Uiso 1.0 4
C C6 0.38971(11) 0.41765(11) 0.6453(6) 0.0532(13) Uiso 1.0 4
C C7 0.23099(9) 0.32760(9) 0.8444(6) 0.0808(14) Uiso 1.0 4
C C8 0.08772(11) 0.64343(8) 0.3383(3) 0.0567(9) Uiso 1.0 4
H H2 0.13565(13) 0.4859(6) 0.579(2) 0.0592(13) Uiso 1.0 4
H H3 0.4013(4) 0.70692(13) 0.2997(15) 0.0848(9) Uiso 1.0 4
H H6 0.4332(2) 0.37013(16) 0.7397(10) 0.0638(15) Uiso 1.0 4
H H7 0.2795(2) 0.27727(16) 0.9036(16) 0.0969(16) Uiso 1.0 4
H H8A 0.0593(3) 0.70318(13) 0.2656(12) 0.0681(11) Uiso 1.0 4
H H8B 0.0718(4) 0.6328(5) 0.5720(4) 0.0681(11) Uiso 1.0 4
H H8C 0.0553(3) 0.59394(16) 0.2069(7) 0.0681(11) Uiso 1.0 4
loop_
_atom_type_symbol
_atom_type_number_in_cell
_atom_type_scat_Cromer_Mann_a1
_atom_type_scat_Cromer_Mann_a2
_atom_type_scat_Cromer_Mann_a3
_atom_type_scat_Cromer_Mann_a4
_atom_type_scat_Cromer_Mann_b1
_atom_type_scat_Cromer_Mann_b2
_atom_type_scat_Cromer_Mann_b3
_atom_type_scat_Cromer_Mann_b4
_atom_type_scat_Cromer_Mann_c
_atom_type_scat_dispersion_real
_atom_type_scat_dispersion_imag
_atom_type_scat_source
C 32.0 2.31000 20.8439 1.02000 10.2075 1.58860 0.56870 0.86500 51.6512 0.21560
0.000 0.000 International_Tables_Vol_C
O 12.0 3.04850 13.2771 2.28680 5.70110 1.54630 0.32390 0.86700 32.9089 0.25080
0.000 0.000 International_Tables_Vol_C
H 28.0 0.49300 10.5109 0.32291 26.1257 0.14019 3.14236 0.04081 57.7997 0.00304
0.000 0.000 International_Tables_Vol_C
loop_
_diffrn_radiation_type
_diffrn_radiation_wavelength
CuK\a~1~ 1.540598
CuK\a~2~ 1.544426
loop_
_geom_angle_atom_site_label_1
_geom_angle_atom_site_label_2
_geom_angle_atom_site_label_3
_geom_angle_site_symmetry_1
_geom_angle_site_symmetry_2
_geom_angle_site_symmetry_3
_geom_angle
_geom_angle_publ_flag
C2 C3 C4 1_555 . 1_555 118.3(2) n
C2 C3 O2 1_555 . 1_555 122.46(15) n
C4 C3 O2 1_555 . 1_555 119.2(2) n
C3 C2 C1 1_555 . 1_555 117.96(13) n
C3 C2 H2 1_555 . 1_555 120.7(5) n
C1 C2 H2 1_555 . 1_555 121.1(6) n
C2 C1 C6 1_555 . 1_555 120.60(16) n
C2 C1 C7 1_555 . 1_555 121.35(13) n
C6 C1 C7 1_555 . 1_555 118.04(14) n
C1 C6 C5 1_555 . 1_555 122.01(15) n
C1 C6 H6 1_555 . 1_555 119.9(2) n
C5 C6 H6 1_555 . 1_555 117.9(2) n
C6 C5 C5 1_555 . 4_665 122.2(2) n
C6 C5 C4 1_555 . 1_555 117.29(13) n
C5 C5 C4 4_665 . 1_555 119.6(2) n
C3 C4 C5 1_555 . 1_555 123.45(17) n
C3 C4 O3 1_555 . 1_555 117.85(18) n
C5 C4 O3 1_555 . 1_555 117.67(13) n
C4 O3 H3 1_555 . 1_555 117.2(3) n
C3 O2 C8 1_555 . 1_555 116.80(16) n
C1 C7 O1 1_555 . 1_555 125.47(15) n
C1 C7 H7 1_555 . 1_555 117.4(2) n
O1 C7 H7 1_555 . 1_555 117.0(2) n
O2 C8 H8A 1_555 . 1_555 108.0(3) n
O2 C8 H8B 1_555 . 1_555 109.2(4) n
O2 C8 H8C 1_555 . 1_555 111.2(3) n
H8A C8 H8B 1_555 . 1_555 110.6(5) n
H8A C8 H8C 1_555 . 1_555 108.8(3) n
H8B C8 H8C 1_555 . 1_555 109.0(4) n
loop_
_geom_bond_atom_site_label_1
_geom_bond_atom_site_label_2
_geom_bond_site_symmetry_1
_geom_bond_site_symmetry_2
_geom_bond_distance
_geom_bond_publ_flag
C3 C2 . 1_555 1.402(4) n
C3 C4 . 1_555 1.401(2) n
C3 O2 . 1_555 1.371(3) n
C2 C3 . 1_555 1.402(4) n
C2 C1 . 1_555 1.423(3) n
C2 H2 . 1_555 0.930(2) n
C1 C2 . 1_555 1.423(3) n
C1 C6 . 1_555 1.380(2) n
C1 C7 . 1_555 1.477(2) n
C6 C1 . 1_555 1.380(2) n
C6 C5 . 1_555 1.367(3) n
C6 H6 . 1_555 0.929(3) n
C5 C6 . 1_555 1.367(3) n
C5 C5 . 4_665 1.473(3) n
C5 C4 . 1_555 1.380(3) n
C4 C3 . 1_555 1.401(2) n
C4 C5 . 1_555 1.380(3) n
C4 O3 . 1_555 1.349(2) n
O3 C4 . 1_555 1.349(2) n
O3 H3 . 1_555 0.949(3) n
O2 C3 . 1_555 1.371(3) n
O2 C8 . 1_555 1.4456(18) n
C7 C1 . 1_555 1.477(2) n
C7 O1 . 1_555 1.2124(16) n
C7 H7 . 1_555 0.951(3) n
O1 C7 . 1_555 1.2124(16) n
C8 O2 . 1_555 1.4456(18) n
C8 H8A . 1_555 0.949(3) n
C8 H8B . 1_555 0.951(3) n
C8 H8C . 1_555 0.951(3) n
H6 C6 . 1_555 0.929(3) n
H2 C2 . 1_555 0.930(2) n
H8A C8 . 1_555 0.949(3) n
H8A H8B . 1_555 1.562(6) n
H8A H8C . 1_555 1.545(3) n
H8B C8 . 1_555 0.951(3) n
H8B H8A . 1_555 1.562(6) n
H8B H8C . 1_555 1.548(4) n
H8C C8 . 1_555 0.951(3) n
H8C H8A . 1_555 1.545(3) n
H8C H8B . 1_555 1.548(4) n
H7 C7 . 1_555 0.951(3) n
H3 O3 . 1_555 0.949(3) n
loop_
_geom_hbond_atom_site_label_D
_geom_hbond_atom_site_label_H
_geom_hbond_atom_site_label_A
_geom_hbond_site_symmetry_A
_geom_hbond_distance_DH
_geom_hbond_distance_HA
_geom_hbond_distance_DA
_geom_hbond_angle_DHA
O3 H3 O1 2_554 0.949(3) 2.231(5) 2.828(2) 120.0(5)
loop_
_pd_proc_ls_weight
_pd_proc_intensity_bkg_calc
_pd_calc_intensity_total
_pd_meas_counts_total
. . . 985.0
. . . 938.0
. . . 972.0
. . . 975.0
. . . 1020.0
. . . 933.0
. . . 1005.0
. . . 966.0
. . . 872.0
. . . 999.0
. . . 944.0
. . . 915.0
. . . 981.0
. . . 915.0
. . . 942.0
. . . 923.0
. . . 900.0
. . . 913.0
. . . 927.0
. . . 954.0
. . . 962.0
. . . 929.0
. . . 892.0
. . . 896.0
. . . 859.0
. . . 905.0
. . . 907.0
. . . 882.0
. . . 853.0
. . . 812.0
. . . 837.0
. . . 820.0
. . . 829.0
. . . 888.0
. . . 857.0
. . . 861.0
. . . 804.0
. . . 864.0
. . . 783.0
. . . 808.0
. . . 802.0
. . . 792.0
. . . 767.0
. . . 820.0
. . . 777.0
. . . 818.0
. . . 759.0
. . . 736.0
. . . 767.0
. . . 841.0
. . . 806.0
. . . 814.0
. . . 779.0
. . . 754.0
. . . 806.0
. . . 750.0
. . . 800.0
. . . 818.0
. . . 787.0
. . . 726.0
. . . 779.0
. . . 818.0
. . . 767.0
. . . 804.0
. . . 730.0
. . . 755.0
. . . 769.0
. . . 802.0
. . . 787.0
. . . 800.0
. . . 876.0
. . . 757.0
. . . 790.0
. . . 804.0
. . . 806.0
. . . 796.0
. . . 767.0
. . . 771.0
. . . 750.0
. . . 831.0
. . . 775.0
. . . 765.0
. . . 814.0
. . . 720.0
. . . 761.0
. . . 715.0
. . . 742.0
. . . 783.0
. . . 691.0
. . . 792.0
. . . 711.0
. . . 757.0
. . . 736.0
. . . 701.0
. . . 752.0
. . . 771.0
. . . 695.0
. . . 757.0
. . . 718.0
. . . 783.0
. . . 769.0
. . . 802.0
. . . 790.0
. . . 755.0
. . . 722.0
. . . 718.0
. . . 754.0
. . . 757.0
. . . 718.0
. . . 740.0
. . . 728.0
. . . 814.0
. . . 689.0
. . . 757.0
. . . 765.0
. . . 754.0
. . . 794.0
. . . 761.0
. . . 738.0
. . . 771.0
. . . 829.0
. . . 777.0
. . . 822.0
. . . 697.0
. . . 822.0
. . . 720.0
. . . 771.0
. . . 718.0
. . . 804.0
. . . 802.0
. . . 804.0
. . . 707.0
. . . 777.0
. . . 771.0
. . . 674.0
. . . 703.0
. . . 715.0
. . . 752.0
. . . 781.0
. . . 812.0
. . . 767.0
. . . 748.0
. . . 705.0
. . . 707.0
. . . 732.0
. . . 783.0
. . . 781.0
. . . 680.0
. . . 734.0
. . . 718.0
. . . 781.0
. . . 752.0
. . . 781.0
. . . 709.0
. . . 707.0
. . . 728.0
. . . 695.0
. . . 783.0
. . . 800.0
. . . 794.0
. . . 711.0
. . . 646.0
. . . 794.0
. . . 777.0
. . . 717.0
. . . 730.0
. . . 771.0
. . . 724.0
. . . 763.0
. . . 717.0
. . . 683.0
. . . 717.0
. . . 748.0
. . . 744.0
. . . 773.0
. . . 787.0
. . . 754.0
. . . 685.0
. . . 748.0
. . . 730.0
. . . 715.0
. . . 670.0
. . . 761.0
. . . 650.0
. . . 701.0
. . . 777.0
. . . 736.0
. . . 711.0
. . . 705.0
. . . 754.0
. . . 777.0
. . . 713.0
. . . 790.0
. . . 639.0
. . . 732.0
. . . 711.0
. . . 775.0
. . . 773.0
. . . 765.0
. . . 748.0
. . . 732.0
. . . 693.0
. . . 785.0
. . . 697.0
. . . 802.0
. . . 818.0
. . . 738.0
. . . 792.0
. . . 781.0
. . . 775.0
. . . 763.0
. . . 800.0
. . . 748.0
. . . 763.0
. . . 796.0
. . . 792.0
. . . 732.0
. . . 752.0
. . . 787.0
. . . 763.0
. . . 748.0
. . . 740.0
. . . 757.0
. . . 804.0
. . . 744.0
. . . 787.0
. . . 736.0
. . . 773.0
. . . 843.0
. . . 831.0
. . . 790.0
. . . 755.0
. . . 773.0
. . . 824.0
. . . 769.0
. . . 816.0
. . . 820.0
. . . 831.0
. . . 820.0
. . . 827.0
. . . 831.0
. . . 810.0
. . . 863.0
. . . 822.0
. . . 800.0
. . . 748.0
. . . 853.0
. . . 779.0
. . . 798.0
. . . 779.0
. . . 796.0
. . . 812.0
. . . 820.0
. . . 818.0
. . . 843.0
. . . 808.0
. . . 802.0
. . . 837.0
. . . 754.0
. . . 781.0
. . . 857.0
. . . 787.0
. . . 742.0
. . . 892.0
. . . 787.0
. . . 820.0
. . . 777.0
. . . 837.0
. . . 822.0
. . . 717.0
. . . 810.0
. . . 826.0
. . . 824.0
. . . 839.0
. . . 800.0
. . . 806.0
. . . 827.0
. . . 781.0
. . . 898.0
. . . 841.0
. . . 792.0
. . . 839.0
. . . 798.0
. . . 882.0
. . . 732.0
. . . 802.0
. . . 831.0
. . . 715.0
. . . 779.0
. . . 808.0
. . . 806.0
. . . 861.0
. . . 800.0
. . . 691.0
. . . 787.0
. . . 785.0
. . . 785.0
. . . 818.0
. . . 880.0
. . . 761.0
. . . 730.0
0.001333 746.11700 833.94250 750.0
0.001170 745.73065 834.80603 855.0
0.001178 745.34430 835.69684 849.0
0.001211 744.95789 836.61560 826.0
0.001225 744.57153 837.56323 816.0
0.001267 744.18512 838.54059 789.0
0.001142 743.79877 839.54858 876.0
0.001256 743.41241 840.58820 796.0
0.001244 743.02606 841.66034 804.0
0.001326 742.63965 842.76605 754.0
0.001267 742.25330 843.90637 789.0
0.001318 741.86694 845.08246 759.0
0.001267 741.48053 846.29535 789.0
0.001348 741.09418 847.54633 742.0
0.001330 740.70782 848.83667 752.0
0.001170 740.32147 850.16754 855.0
0.001314 739.93506 851.54028 761.0
0.001325 739.54871 852.95648 755.0
0.001126 739.16235 854.41736 888.0
0.001178 738.77594 855.92462 849.0
0.001267 738.38959 857.47986 789.0
0.001294 738.00317 859.08459 773.0
0.001267 737.61682 860.74072 789.0
0.001198 737.23047 862.45001 835.0
0.001304 736.84412 864.21436 767.0
0.001253 736.45770 866.03577 798.0
0.001189 736.07135 867.91632 841.0
0.001183 735.68500 869.85822 845.0
0.001121 735.29858 871.86365 892.0
0.001238 734.91223 873.93518 808.0
0.001121 734.52582 876.07520 892.0
0.001277 734.13953 878.28650 783.0
0.001178 733.75311 880.57166 849.0
0.001172 733.36676 882.93378 853.0
0.001167 732.98035 885.37579 857.0
0.001238 732.59399 887.90106 808.0
0.001200 732.20764 890.51288 833.0
0.001200 731.82123 893.21484 833.0
0.001235 731.43488 896.01080 810.0
0.001159 731.04852 898.90472 863.0
0.001253 730.66217 901.90082 798.0
0.001072 730.27576 905.00336 933.0
0.001121 729.88940 908.21735 892.0
0.001111 729.50305 911.54755 900.0
0.001198 729.11664 914.99921 835.0
0.001129 728.73029 918.57819 886.0
0.001081 728.34387 922.29010 925.0
0.001206 727.95758 926.14160 829.0
0.001142 727.57117 930.13892 876.0
0.001134 727.18481 934.28955 882.0
0.001066 726.79840 938.60095 938.0
0.001033 726.41205 943.08124 968.0
0.001091 726.02570 947.73907 917.0
0.001111 725.63928 952.58362 900.0
0.000930 725.25293 957.62482 1075.0
0.001040 724.86658 962.87329 962.0
0.000988 724.48022 968.34039 1012.0
0.001042 724.09381 974.03827 960.0
0.000965 723.70746 979.98016 1036.0
0.001031 723.32104 986.18018 970.0
0.000958 722.93469 992.65363 1044.0
0.001066 722.54834 999.41711 938.0
0.000923 722.16199 1006.48853 1083.0
0.000890 721.77557 1013.88733 1123.0
0.000937 721.38922 1021.63470 1067.0
0.000916 721.00287 1029.75378 1092.0
0.000839 720.61646 1038.26953 1192.0
0.000869 720.23010 1047.21008 1151.0
0.000849 719.84375 1056.60535 1178.0
0.000766 719.45740 1066.48926 1306.0
0.000808 719.07098 1076.89868 1238.0
0.000778 718.68463 1087.87524 1285.0
0.000686 718.29828 1099.46570 1458.0
0.000678 717.91187 1111.72302 1476.0
0.000691 717.52551 1124.70862 1447.0
0.000628 717.13910 1138.49512 1593.0
0.000650 716.75275 1153.17029 1538.0
0.000618 716.36639 1168.84253 1618.0
0.000614 715.98004 1185.64966 1628.0
0.000605 715.59363 1203.77039 1653.0
0.000586 715.20728 1223.43884 1706.0
0.000581 714.82092 1244.96277 1721.0
0.000585 714.43451 1268.74634 1709.0
0.000545 714.04816 1295.31262 1836.0
0.000524 713.66174 1325.32898 1908.0
0.000517 713.27545 1359.62793 1933.0
0.000526 712.88904 1399.22302 1902.0
0.000495 712.50269 1445.31653 2021.0
0.000473 712.11627 1499.29041 2116.0
0.000447 711.72992 1562.68506 2239.0
0.000428 711.34357 1637.15088 2334.0
0.000409 710.95715 1724.37500 2444.0
0.000382 710.57080 1825.97290 2621.0
0.000396 710.18445 1943.35388 2523.0
0.000371 709.79810 2077.59619 2699.0
0.000357 709.41168 2229.40161 2798.0
0.0003364 709.02533 2399.17407 2973.0
0.0003373 708.63898 2587.12598 2965.0
0.0003192 708.25256 2793.22852 3133.0
0.0002796 707.86621 3017.00684 3577.0
0.0002843 707.47980 3257.50806 3518.0
0.0002728 707.09344 3513.65698 3666.0
0.0002628 706.70709 3784.71655 3805.0
0.0002497 706.32074 4070.28467 4005.0
0.0002461 705.93433 4369.84863 4063.0
0.0002304 705.54797 4682.60449 4340.0
0.0002172 705.16162 5007.93408 4605.0
0.0002149 704.77521 5345.91895 4653.0
0.0002010 704.38885 5697.08154 4975.0
0.0001913 704.00250 6061.63916 5228.0
0.0001788 703.61615 6439.40771 5592.0
0.0001716 703.22974 6830.55811 5826.0
0.0001657 702.84338 7236.08105 6036.0
0.0001563 702.45697 7657.14160 6396.0
0.0001501 702.07062 8094.26416 6663.0
0.0001405 701.68427 8547.67676 7118.0
0.0001339 701.29791 9018.32910 7469.0
0.0001251 700.91150 9507.92871 7993.0
0.0001203 700.52515 10017.88184 8310.0
0.0001138 700.13879 10548.86816 8791.0
0.0001079 699.75238 11101.87012 9264.0
0.0001049 699.36603 11678.93262 9537.0
0.0000984 698.97968 12282.35840 10158.0
0.0000934 698.59332 12913.72168 10703.0
0.0000888 698.20691 13574.51563 11267.0
0.0000830 697.82056 14267.37598 12050.0
0.0000782 697.43414 14995.67188 12788.0
0.0000742 697.04779 15762.31055 13481.0
0.0000689 696.66144 16570.07813 14521.0
0.0000651 696.27502 17423.04688 15366.0
0.0000603 695.88867 18326.44922 16573.0
0.0000573 695.50232 19285.51172 17445.0
0.0000540 695.11597 20305.91016 18509.0
0.0000501 694.72955 21395.27148 19942.0
0.0000474 694.34320 22563.10352 21079.0
0.0000440 693.95685 23819.99023 22710.0
0.0000408 693.57043 25178.58789 24488.0
0.0000388 693.18408 26654.99023 25779.0
0.0000362 692.79767 28268.21680 27662.0
0.0000332 692.41138 30039.59766 30105.0
0.0000306 692.02496 31993.26953 32654.0
0.0000285 691.63861 34154.98047 35088.0
0.0000265 691.25220 36548.79688 37771.0
0.0000245 690.86584 39193.67578 40750.0
0.0000227 690.47949 42098.58984 44108.0
0.0000211 690.09308 45255.30469 47426.0
0.0000197 689.70673 48630.95703 50707.0
0.0000184 689.32037 52160.98828 54367.0
0.0000174 688.93402 55742.62500 57601.0
0.0000165 688.54761 59231.22266 60621.0
0.0000157 688.16125 62440.27734 63769.0
0.0000151 687.77484 65146.01953 66279.0
0.0000147 687.38849 67098.63281 68068.0
0.0000145 687.00214 68043.13281 69147.0
0.0000144 686.61572 67754.17188 69239.0
0.0000147 686.22937 66085.46094 68181.0
0.0000152 685.84302 63021.16797 65697.0
0.0000163 685.45667 58702.98438 61458.0
0.0000176 685.07025 53412.28125 56916.0
0.0000197 684.68390 47514.53906 50707.0
0.0000227 684.29755 41391.66016 43982.0
0.0000270 683.91113 35384.49609 37013.0
0.0000326 683.52478 29757.74805 30640.0
0.0000393 683.13843 24688.83594 25452.0
0.0000487 682.75208 20273.85156 20514.0
0.0000594 682.36566 16541.60547 16822.0
0.0000736 681.97931 13469.87793 13588.0
0.0000907 681.59290 11001.29102 11024.0
0.0001057 681.20654 9057.72070 9457.0
0.0001199 680.82019 7552.55322 8343.0
0.0001415 680.43384 6400.21533 7066.0
0.0001614 680.04742 5522.73047 6194.0
0.0001814 679.66107 4853.42236 5512.0
0.0001997 679.27472 4338.22412 5008.0
0.0002220 678.88831 3935.24976 4505.0
0.0002433 678.50195 3613.29639 4110.0
0.0002692 678.11554 3349.87549 3715.0
0.0002890 677.72925 3129.19458 3460.0
0.0002962 677.34283 2940.35596 3376.0
0.0003355 676.95648 2775.89697 2981.0
0.000367 676.57007 2630.68188 2726.0
0.000381 676.18372 2501.11572 2623.0
0.000408 675.79736 2384.60718 2449.0
0.000428 675.41095 2279.22119 2338.0
0.000453 675.02460 2183.45557 2206.0
0.000463 674.63824 2096.10547 2161.0
0.000500 674.25189 2016.17529 2002.0
0.000526 673.86548 1942.82764 1900.0
0.000531 673.47913 1875.34656 1885.0
0.000542 673.09277 1813.11414 1846.0
0.000570 672.70636 1755.59277 1754.0
0.000602 672.32001 1702.31311 1661.0
0.000578 671.93359 1652.86304 1731.0
0.000628 671.54730 1606.87927 1593.0
0.000640 671.16089 1564.04077 1563.0
0.000698 670.77454 1524.06311 1433.0
0.000694 670.38812 1486.69299 1441.0
0.000730 670.00177 1451.70520 1369.0
0.000734 669.61542 1418.89771 1363.0
0.000724 669.22900 1388.08997 1382.0
0.000792 668.84265 1359.11975 1262.0
0.000790 668.45624 1331.84094 1266.0
0.000837 668.06995 1306.12158 1195.0
0.000864 667.68353 1281.84277 1157.0
0.000911 667.29718 1258.89636 1098.0
0.000903 666.91077 1237.18433 1108.0
0.001001 666.52441 1216.61792 999.0
0.000852 666.13806 1197.11560 1174.0
0.000954 665.75165 1178.60339 1048.0
0.000894 665.36530 1161.01367 1118.0
0.000977 664.97894 1144.28430 1024.0
0.000967 664.59259 1128.35864 1034.0
0.000948 664.20618 1113.18420 1055.0
0.000971 663.81982 1098.71326 1030.0
0.001057 663.43347 1084.90137 946.0
0.001026 663.04706 1071.70789 975.0
0.000991 662.66071 1059.09509 1009.0
0.001124 662.27435 1047.02820 890.0
0.001055 661.88800 1035.47498 948.0
0.001114 661.50159 1024.40540 898.0
0.001144 661.11523 1013.79187 874.0
0.001220 660.72882 1003.60852 820.0
0.001110 660.34247 993.83160 901.0
0.001152 659.95612 984.43854 868.0
0.001136 659.56976 975.40881 880.0
0.001126 659.18335 966.72272 888.0
0.001152 658.79700 958.36243 868.0
0.001214 658.41064 950.31091 824.0
0.001172 658.02423 942.55212 853.0
0.001337 657.63788 935.07159 748.0
0.001330 657.25146 927.85529 752.0
0.001170 656.86517 920.89008 855.0
0.001266 656.47876 914.16376 790.0
0.001178 656.09241 907.66492 849.0
0.001161 655.70599 901.38257 861.0
0.001186 655.31964 895.30676 843.0
0.001259 654.93329 889.42780 794.0
0.001217 654.54688 883.73651 822.0
0.001244 654.16052 878.22467 804.0
0.001186 653.77417 872.88403 843.0
0.001284 653.38782 867.70715 779.0
0.001348 653.00140 862.68665 742.0
0.001203 652.61505 857.81598 831.0
0.001456 652.22870 853.08856 687.0
0.001267 651.84229 848.49835 789.0
0.001389 651.45593 844.03967 720.0
0.001311 651.06952 839.70697 763.0
0.001290 650.68323 835.49524 775.0
0.001326 650.29681 831.39929 754.0
0.001427 649.91046 827.41473 701.0
0.001427 649.52405 823.53693 701.0
0.001209 649.13770 819.76178 827.0
0.001355 648.75134 816.08533 738.0
0.001344 648.36493 812.50366 744.0
0.001238 647.97858 809.01318 808.0
0.001192 647.59216 805.61041 839.0
0.001311 647.20587 802.29224 763.0
0.001314 646.81946 799.05524 761.0
0.001307 646.43311 795.89661 765.0
0.001325 646.04669 792.81335 755.0
0.001395 645.66034 789.80298 717.0
0.001381 645.27399 786.86267 724.0
0.001287 644.88757 783.98993 777.0
0.001502 644.50122 781.18256 666.0
0.001395 644.11487 778.43823 717.0
0.001307 643.72852 775.75464 765.0
0.001355 643.34210 773.12970 738.0
0.001250 642.95575 770.56165 800.0
0.001427 642.56940 768.04834 701.0
0.001321 642.18298 765.58807 757.0
0.001422 641.79663 763.17902 703.0
0.001355 641.41028 760.81958 738.0
0.001290 641.02393 758.50806 775.0
0.001266 640.63751 756.24292 790.0
0.001366 640.25116 754.02271 732.0
0.001451 639.86475 751.84595 689.0
0.001330 639.47839 749.71143 752.0
0.001266 639.09204 747.61761 790.0
0.001468 638.70569 745.56342 681.0
0.001385 638.31927 743.54749 722.0
0.001377 637.93292 741.56873 726.0
0.001414 637.54657 739.62604 707.0
0.001460 637.16016 737.71820 685.0
0.001340 636.95117 736.02173 746.0
0.001362 637.59973 735.21570 734.0
0.001267 638.24823 734.44147 789.0
0.001403 638.89673 733.69830 713.0
0.001253 639.54529 732.98535 798.0
0.001435 640.19379 732.30157 697.0
0.001321 640.84229 731.64612 757.0
0.001307 641.49084 731.01831 765.0
0.001351 642.13934 730.41742 740.0
0.001326 642.78790 729.84253 754.0
0.001344 643.43634 729.29297 744.0
0.001284 644.08490 728.76807 779.0
0.001497 644.73346 735.23346 668.0
0.001326 645.38196 734.84424 754.0
0.001385 646.03046 734.47949 722.0
0.001414 646.67896 737.59528 707.0
0.001340 647.32751 737.32147 746.0
0.001403 647.97601 737.07135 713.0
0.001203 648.62457 736.84430 831.0
0.001484 649.27307 736.63995 674.0
0.001344 649.92157 736.45789 744.0
0.001348 650.57013 736.29767 742.0
0.001403 651.21863 736.15869 713.0
0.001418 651.86713 736.04095 705.0
0.001464 652.51569 735.94373 683.0
0.001377 653.16418 735.86688 726.0
0.001414 653.81274 735.81000 707.0
0.001538 654.46118 735.77289 650.0
0.001422 655.10974 735.75500 703.0
0.001359 655.75830 735.75629 736.0
0.001389 656.40680 735.77643 720.0
0.001325 657.05530 735.81512 755.0
0.001377 657.70380 735.87219 726.0
0.001337 658.35236 735.94727 748.0
0.001506 659.00092 736.04028 664.0
0.001274 659.64935 694.83783 785.0
0.001460 660.29791 695.44531 685.0
0.001377 660.94641 696.06183 726.0
0.001418 661.59497 676.27850 705.0
0.001355 662.24341 677.14905 738.0
0.001418 662.89197 678.02490 705.0
0.001314 663.54053 678.90588 761.0
0.001250 664.18903 679.79242 800.0
0.001348 664.83759 680.68451 742.0
0.001256 665.48602 681.58234 796.0
0.001381 666.13458 682.48621 724.0
0.001307 666.78314 683.39624 765.0
0.001456 667.43164 684.31268 687.0
0.001337 668.08014 685.23560 748.0
0.001304 668.72864 686.16541 767.0
0.001431 669.37720 687.10223 699.0
0.001337 670.02576 688.04633 748.0
0.001304 670.67419 688.99786 767.0
0.001304 671.32275 689.95728 767.0
0.001344 671.97125 690.92468 744.0
0.001274 672.61981 691.90051 785.0
0.001307 673.26831 692.88483 765.0
0.001460 673.91681 693.87817 685.0
0.001337 674.56537 694.88074 748.0
0.001307 675.21387 695.89301 765.0
0.001475 675.86237 696.91510 678.0
0.001326 676.51093 697.94757 754.0
0.001290 677.15942 698.99078 775.0
0.001348 677.80798 700.04510 742.0
0.001229 678.45642 701.11096 814.0
0.001280 679.10498 702.18878 781.0
0.001377 679.75348 703.27917 726.0
0.001157 680.40204 704.38239 864.0
0.001271 681.05060 705.49921 787.0
0.001172 681.69904 706.62994 853.0
0.001183 682.34760 707.77539 845.0
0.001159 682.99609 708.93597 863.0
0.001139 683.64465 710.11243 878.0
0.001164 684.29315 711.30530 859.0
0.001178 684.94165 712.51550 849.0
0.001164 685.59021 713.74371 859.0
0.001344 686.23871 714.99066 744.0
0.001222 686.88721 716.25708 818.0
0.001192 687.53577 717.54401 839.0
0.001195 688.18427 718.85248 837.0
0.001253 688.83282 720.18323 798.0
0.001263 689.48126 721.53741 792.0
0.001235 690.12982 722.91614 810.0
0.001307 690.77838 724.32062 765.0
0.001161 691.42688 725.75201 861.0
0.001389 692.07538 727.21179 720.0
0.001290 692.72388 728.70123 775.0
0.001333 693.37244 730.22198 750.0
0.001344 694.02094 731.77551 744.0
0.001311 694.66943 733.36353 763.0
0.001311 695.31799 734.98798 763.0
0.001370 695.96649 736.65070 730.0
0.001410 696.61505 738.35400 709.0
0.001256 697.26355 740.09979 796.0
0.001359 697.91205 741.89069 736.0
0.001235 698.56061 743.72937 810.0
0.001290 699.20911 745.61847 775.0
0.001203 699.85767 747.56104 831.0
0.001381 700.50610 749.56030 724.0
0.001362 701.15466 751.61969 734.0
0.001267 701.80322 753.74316 789.0
0.001294 702.45172 755.93463 773.0
0.001456 703.10022 758.19867 687.0
0.001307 703.74872 760.54010 765.0
0.001403 704.39728 762.96417 713.0
0.001256 705.04584 765.47668 796.0
0.001256 705.69427 768.08374 796.0
0.001290 706.34283 770.79260 775.0
0.001274 706.99133 773.61047 785.0
0.001355 707.63989 776.54608 738.0
0.001287 708.28839 779.60840 777.0
0.001192 708.93689 782.80792 839.0
0.001399 709.58545 786.15613 715.0
0.001206 710.23395 789.66602 829.0
0.001247 710.88245 793.35229 802.0
0.001178 711.53094 797.23242 849.0
0.001142 712.17950 801.32654 876.0
0.001209 712.82806 805.65955 827.0
0.001167 713.47656 810.26202 857.0
0.001100 714.12506 815.17297 909.0
0.001048 714.77356 820.44373 954.0
0.001100 715.42212 826.14124 909.0
0.001066 716.07068 832.35455 938.0
0.001013 716.71912 839.20081 987.0
0.001024 717.36768 846.83325 977.0
0.001035 718.01617 855.44806 966.0
0.001074 718.66473 865.29242 931.0
0.001055 719.31323 876.66895 948.0
0.000967 719.96173 889.93988 1034.0
0.000991 720.61029 905.52557 1009.0
0.000919 721.25879 923.89948 1088.0
0.000923 721.90729 945.57587 1083.0
0.000880 722.55585 971.09003 1137.0
0.000855 723.20435 1000.96973 1170.0
0.000787 723.85291 1035.69812 1271.0
0.000833 724.50134 1075.68005 1201.0
0.000820 725.14990 1121.22839 1219.0
0.000734 725.79840 1172.58203 1363.0
0.000729 726.44696 1229.92627 1371.0
0.000761 727.09546 1293.36682 1314.0
0.000689 727.74396 1362.87219 1452.0
0.000647 728.39252 1438.28357 1546.0
0.000644 729.04102 1519.44519 1552.0
0.000625 729.68958 1606.31909 1599.0
0.000597 730.33807 1698.92639 1674.0
0.000532 730.98657 1797.20166 1879.0
0.000542 731.63513 1901.02332 1846.0
0.000499 732.28363 2010.44189 2003.0
0.000486 732.93213 2125.77417 2058.0
0.000450 733.58069 2247.38818 2222.0
0.000444 734.22919 2375.49756 2251.0
0.000417 734.87775 2510.33545 2399.0
0.000390 735.52618 2652.46387 2562.0
0.000392 736.17474 2802.71021 2551.0
0.0003489 736.82330 2961.80396 2866.0
0.0003267 737.47180 3130.35840 3061.0
0.0003230 738.12030 3346.35400 3096.0
0.0002935 738.76880 3537.45874 3407.0
0.0002820 739.41736 3741.90308 3546.0
0.0002539 740.06586 3979.52368 3939.0
0.0002484 740.71436 4215.77979 4026.0
0.0002316 741.36292 4471.50146 4317.0
0.0002079 742.01141 4749.88867 4811.0
0.0001939 742.65997 5054.39111 5158.0
0.0001836 743.30841 5389.05420 5448.0
0.0001661 743.95697 5758.70752 6022.0
0.0001570 744.60553 6168.37256 6371.0
0.0001458 745.25403 6622.57568 6861.0
0.0001352 745.90259 7124.98877 7397.0
0.0001238 746.55103 7677.51416 8080.0
0.0001167 747.19958 8278.72168 8569.0
0.0001065 747.84814 8922.50586 9389.0
0.0001010 748.49664 9596.94727 9897.0
0.0000947 749.14514 10283.07520 10557.0
0.0000909 749.79364 10954.17090 11007.0
0.0000864 750.44220 11575.96094 11577.0
0.0000851 751.09076 12107.59277 11745.0
0.0000789 751.73920 12503.83887 12671.0
0.0000781 752.38776 12719.17188 12804.0
0.0000767 753.03625 12714.22559 13032.0
0.0000779 753.68481 12464.40039 12829.0
0.0000811 754.33331 11967.92773 12336.0
0.0000839 754.98181 11248.86816 11926.0
0.0000911 755.63037 10352.85059 10977.0
0.0001020 756.27887 9338.49707 9803.0
0.0001141 756.92737 8268.58203 8766.0
0.0001332 757.57587 7202.34570 7506.0
0.0001558 758.22443 6189.20508 6417.0
0.0001782 758.87299 5265.02588 5611.0
0.0002293 759.52142 4451.45117 4361.0
0.0002611 760.16998 3757.47998 3830.0
0.0003140 760.81848 3182.08447 3185.0
0.000377 761.46704 2717.04199 2650.0
0.000423 762.11560 2349.61157 2364.0
0.000445 762.76404 2064.85083 2245.0
0.000512 763.41260 1847.47058 1953.0
0.000556 764.06110 1683.16272 1799.0
0.000570 764.70966 1559.41821 1754.0
0.000683 765.35815 1465.89246 1464.0
0.000672 766.00665 1394.43140 1489.0
0.000674 766.65521 1338.86694 1484.0
0.000705 767.30371 1294.69897 1419.0
0.000766 767.95221 1258.74011 1306.0
0.000786 768.60077 1230.57007 1273.0
0.000820 769.24927 1205.13123 1219.0
0.000816 769.89783 1183.16333 1225.0
0.000861 770.54626 1163.96265 1162.0
0.000889 771.19482 1147.92798 1125.0
0.000887 771.84332 1132.92761 1127.0
0.000896 772.49188 1119.57349 1116.0
0.000932 773.14038 1107.65466 1073.0
0.000967 773.78888 1097.00024 1034.0
0.000960 774.43744 1087.46899 1042.0
0.000840 775.08594 1078.94141 1190.0
0.000956 775.73444 1071.31433 1046.0
0.001042 776.38300 1064.49963 960.0
0.000995 777.03149 1058.42029 1005.0
0.000995 777.68005 1053.00903 1005.0
0.000956 778.32855 1048.20679 1046.0
0.001062 778.97705 1043.96204 942.0
0.001046 779.62561 1040.22864 956.0
0.000948 780.27411 1036.96680 1055.0
0.001035 780.92267 1034.14063 966.0
0.001042 781.57111 1031.71814 960.0
0.001050 782.21967 1029.67200 952.0
0.001044 782.86823 1027.97644 958.0
0.001007 783.51672 1026.60999 993.0
0.001026 784.16522 1025.55249 975.0
0.001021 784.81372 1024.78638 979.0
0.001015 785.46228 1024.29614 985.0
0.001027 786.11084 1024.06787 974.0
0.001009 786.75928 1024.08923 991.0
0.001124 787.40784 1024.34937 890.0
0.001015 788.05634 1024.83838 985.0
0.001067 788.70490 1025.54797 937.0
0.001079 789.35333 1026.47058 927.0
0.001119 790.00189 1027.59961 894.0
0.001129 790.65045 1028.92969 886.0
0.001062 791.29895 1030.45593 942.0
0.001072 791.94745 1032.17444 933.0
0.001017 792.59595 1034.08167 983.0
0.001139 793.24451 1036.17505 878.0
0.001003 793.89307 1038.45288 997.0
0.000999 794.54156 1040.91333 1001.0
0.001024 795.19006 1043.55591 977.0
0.001124 795.83856 1046.38025 890.0
0.001009 796.48712 1049.38635 991.0
0.001026 797.13568 1052.57556 975.0
0.001064 797.78412 1055.94873 940.0
0.001005 798.43268 1059.50769 995.0
0.001019 799.08118 1063.25476 981.0
0.000993 799.72974 1067.19299 1007.0
0.001021 800.37823 1071.32532 979.0
0.001015 801.02673 1075.65588 985.0
0.001019 801.67529 1080.18884 981.0
0.001003 802.32379 1084.92920 997.0
0.001035 802.97229 1089.88196 966.0
0.001107 803.62079 1095.05359 903.0
0.001091 804.26935 1100.45068 917.0
0.001116 804.91791 1106.07983 896.0
0.001050 805.56635 1111.94934 952.0
0.001015 806.21490 1118.06775 985.0
0.000977 806.86340 1124.44397 1024.0
0.001001 807.51196 1131.08813 999.0
0.001027 808.16046 1138.01099 974.0
0.000950 808.80896 1145.22400 1053.0
0.001009 809.45752 1152.73999 991.0
0.000925 810.10602 1160.57214 1081.0
0.000984 810.75458 1168.73535 1016.0
0.000927 811.40308 1177.24475 1079.0
0.000963 812.05157 1186.11768 1038.0
0.000980 812.70013 1195.37219 1020.0
0.000914 813.34863 1205.02795 1094.0
0.000937 813.99713 1215.10596 1067.0
0.000977 814.64569 1225.62952 1024.0
0.000881 815.29419 1236.62292 1135.0
0.000937 815.94275 1248.11292 1067.0
0.000914 816.59119 1260.12854 1094.0
0.000864 817.23975 1272.70081 1157.0
0.000822 817.88824 1285.86401 1217.0
0.000899 818.53680 1299.65479 1112.0
0.000856 819.18530 1314.11316 1168.0
0.000883 819.83380 1329.28308 1133.0
0.000829 820.58417 1345.31372 1207.0
0.000827 821.52960 1362.35034 1209.0
0.000835 822.47498 1380.25500 1197.0
0.000754 823.42047 1399.09021 1326.0
0.000737 824.36597 1418.92419 1357.0
0.000719 825.31140 1439.83337 1390.0
0.000733 826.25677 1461.90063 1365.0
0.000716 827.20227 1485.21985 1396.0
0.000693 828.14777 1509.89465 1443.0
0.000664 829.09320 1536.04175 1507.0
0.000697 830.03870 1563.79443 1435.0
0.000623 830.98407 1593.30615 1606.0
0.000653 831.92950 1624.75586 1532.0
0.000605 832.87500 1658.35864 1653.0
0.000588 833.82050 1694.37390 1702.0
0.000514 834.76587 1733.12549 1945.0
0.000527 835.71130 1775.02051 1896.0
0.000485 836.65680 1820.57788 2060.0
0.000494 837.60223 1870.46130 2025.0
0.000467 838.54767 1925.51904 2140.0
0.000453 839.49310 1986.82788 2208.0
0.000425 840.43860 2055.73682 2354.0
0.000402 841.38403 2133.91089 2490.0
0.000384 842.32941 2223.36621 2603.0
0.000357 843.27490 2326.49731 2800.0
0.0003475 844.22040 2446.08594 2878.0
0.0003102 845.16583 2585.28955 3224.0
0.0002999 846.11121 2747.60767 3335.0
0.0002815 847.05670 2936.80615 3553.0
0.0002534 848.00220 3156.79761 3947.0
0.0002502 848.94763 3411.45508 3997.0
0.0002289 849.89301 3704.36328 4369.0
0.0002187 850.83850 4038.56421 4572.0
0.0002017 851.78394 4416.43604 4959.0
0.0001881 852.72943 4839.89355 5315.0
0.0001836 853.67493 5310.89355 5448.0
0.0001652 854.62030 5831.79639 6055.0
0.0001577 855.56573 6408.84229 6341.0
0.0001461 856.51123 7035.94189 6844.0
0.0001350 857.45673 7716.74707 7405.0
0.0001222 858.40210 8450.11230 8181.0
0.0001161 859.34753 9237.59961 8614.0
0.0001061 860.29303 10077.55176 9424.0
0.0000983 861.23846 10976.13281 10169.0
0.0000924 862.18390 11937.55762 10824.0
0.0000835 863.12933 12964.20703 11976.0
0.0000788 864.07483 14057.58984 12691.0
0.0000715 865.02026 15221.56250 13982.0
0.0000645 865.96564 16464.76563 15493.0
0.0000603 866.91113 17799.38281 16591.0
0.0000555 867.85663 19237.39844 18004.0
0.0000516 868.80206 20788.90820 19365.0
0.0000471 869.74744 22465.09766 21219.0
0.0000424 870.69293 24282.98047 23573.0
0.0000390 871.63843 26266.04297 25642.0
0.0000364 872.58386 28439.20117 27500.0
0.0000328 873.52924 30823.45313 30487.0
0.0000302 874.47473 33435.83984 33144.0
0.0000276 875.42017 36292.50391 36258.0
0.0000255 876.36566 39406.41406 39202.0
0.0000233 877.31116 42771.34375 42922.0
0.0000217 878.25653 46377.08984 46125.0
0.0000202 879.20197 50169.73438 49535.0
0.0000186 880.14746 54076.94922 53695.0
0.0000175 881.09296 57993.58594 57029.0
0.0000164 882.03833 61786.98438 60909.0
0.0000155 882.98376 65279.43359 64597.0
0.0000147 883.92926 68268.68750 67989.0
0.0000143 884.87469 70534.94531 69790.0
0.0000140 885.82013 71856.95313 71483.0
0.0000139 886.76556 72042.36719 72015.0
0.0000141 887.71106 70968.91406 71041.0
0.0000143 888.65649 68620.92969 69793.0
0.0000150 889.60187 65102.58203 66816.0
0.0000160 890.54736 60619.94531 62449.0
0.0000176 891.49286 55443.42188 56941.0
0.0000196 892.43829 49869.75781 51145.0
0.0000222 893.38367 44190.58594 44953.0
0.0000256 894.32916 38664.99609 39137.0
0.0000299 895.27466 33497.67578 33425.0
0.0000352 896.22009 28828.08789 28411.0
0.0000416 897.16547 24731.79883 24061.0
0.0000493 898.11096 21229.67383 20284.0
0.0000564 899.05640 18300.04883 17720.0
0.0000655 900.00189 15890.94336 15273.0
0.0000731 900.94739 13931.42578 13678.0
0.0000786 901.89276 12341.66602 12728.0
0.0000887 902.83820 11041.76855 11275.0
0.0000956 903.78369 9959.21191 10463.0
0.0001046 904.72919 9034.22949 9556.0
0.0001110 905.67456 8222.21191 9011.0
0.0001226 906.62000 7492.97900 8154.0
0.0001395 907.56549 6828.19922 7169.0
0.0001456 908.51093 6218.43457 6867.0
0.0001631 909.45636 5660.28955 6131.0
0.0001839 910.40179 5153.61182 5438.0
0.0001980 911.34729 4699.07617 5051.0
0.0002126 912.29272 4296.62305 4704.0
0.0002362 913.23810 3944.79565 4233.0
0.0002531 914.18359 3640.69458 3951.0
0.0002762 915.12909 3380.24780 3620.0
0.0003007 916.07452 3158.60547 3326.0
0.0003297 917.01990 2970.56250 3033.0
0.0003286 917.96539 2810.93530 3043.0
0.0003459 918.91089 2674.86475 2891.0
0.000372 919.85632 2558.02026 2689.0
0.000375 920.80170 2456.70483 2664.0
0.000377 921.74719 2367.87793 2652.0
0.000418 922.69263 2289.11475 2393.0
0.000424 923.63812 2218.52637 2356.0
0.000437 924.58362 2154.66943 2288.0
0.000452 925.52899 2096.44604 2212.0
0.000491 926.47443 2043.02490 2035.0
0.000496 927.41992 1993.76648 2015.0
0.000507 928.36536 1948.17224 1974.0
0.000486 929.31079 1905.84241 2056.0
0.000509 930.25623 1866.45007 1963.0
0.000542 931.20172 1829.71985 1846.0
0.000514 932.14716 1795.41516 1945.0
0.000558 933.09253 1763.33057 1791.0
0.000574 934.03802 1733.28479 1741.0
0.000596 934.98352 1705.11658 1678.0
0.000566 935.92896 1678.68115 1766.0
0.000598 936.87433 1653.84851 1671.0
0.000574 937.81982 1630.50269 1741.0
0.000592 938.76532 1608.53772 1688.0
0.000648 939.71075 1587.85767 1544.0
0.000618 940.65613 1568.37561 1618.0
0.000619 941.60162 1550.01331 1616.0
0.000633 942.54706 1532.69861 1581.0
0.000645 943.49255 1516.36682 1550.0
0.000658 944.43793 1500.95801 1519.0
0.000710 945.38342 1486.41846 1408.0
0.000658 946.32886 1472.69836 1519.0
0.000629 947.27435 1459.75293 1589.0
0.000656 948.21985 1447.54114 1524.0
0.000655 949.16522 1436.02551 1527.0
0.000641 950.11066 1425.17224 1559.0
0.000676 951.05615 1414.95093 1479.0
0.000666 952.00159 1405.33325 1501.0
0.000672 952.94702 1396.29480 1488.0
0.000661 953.89246 1387.81250 1514.0
0.000693 954.83795 1379.86755 1443.0
0.000677 955.78339 1372.44189 1478.0
0.000663 956.72876 1365.52124 1508.0
0.000718 957.67426 1359.09290 1393.0
0.000655 958.61975 1353.14673 1526.0
0.000735 959.56519 1347.67554 1360.0
0.000689 960.51056 1342.67493 1451.0
0.000709 961.45605 1338.14368 1410.0
0.000715 962.40155 1334.08398 1399.0
0.000728 963.34698 1330.50354 1374.0
0.000706 964.29236 1327.41541 1417.0
0.000742 965.23785 1324.84070 1348.0
0.000704 966.18329 1322.81079 1420.0
0.000683 967.12878 1321.36975 1464.0
0.000696 968.07416 1320.57825 1436.0
0.000688 969.01965 1320.51929 1453.0
0.000695 969.96509 1321.29944 1438.0
0.000692 970.91058 1323.05664 1446.0
0.000684 971.85608 1325.96228 1462.0
0.000699 972.80145 1330.22607 1431.0
0.000677 973.74689 1336.09766 1478.0
0.000664 974.69238 1343.86731 1505.0
0.000689 975.63782 1353.86316 1451.0
0.000654 976.58325 1366.44702 1529.0
0.000635 977.52869 1382.00452 1574.0
0.000649 978.47418 1400.92981 1540.0
0.000631 979.41962 1423.60522 1584.0
0.000615 980.36499 1450.37866 1626.0
0.000609 981.31049 1481.54834 1641.0
0.000595 982.25598 1517.37061 1680.0
0.000614 983.20142 1558.09119 1628.0
0.000606 984.14679 1603.96912 1650.0
0.000548 985.09229 1655.24744 1826.0
0.000532 986.03778 1712.08069 1881.0
0.000522 986.98322 1774.50781 1916.0
0.000532 987.92859 1842.54175 1879.0
0.000514 988.87408 1916.33423 1946.0
0.000463 989.81952 1996.24182 2159.0
0.000444 990.76501 2082.70850 2251.0
0.000449 991.71039 2176.09180 2228.0
0.000406 992.65588 2276.69556 2461.0
0.000403 993.60132 2385.04175 2484.0
0.000364 994.54681 2502.09937 2748.0
0.000362 995.49225 2629.18164 2766.0
0.0003380 996.43768 2767.63062 2959.0
0.0003179 997.38312 2918.72168 3146.0
0.0003023 998.32861 3083.96265 3308.0
0.0002800 999.27405 3265.36987 3571.0
0.0002713 1000.21942 3465.22437 3686.0
0.0002579 1001.16492 3685.46509 3877.0
0.0002317 1002.11041 3927.32617 4316.0
0.0002221 1003.05585 4191.39111 4502.0
0.0002014 1004.00122 4477.43164 4966.0
0.0001962 1004.94672 4783.64258 5098.0
0.0001813 1005.89221 5105.80078 5517.0
0.0001718 1006.83765 5437.01270 5821.0
0.0001644 1007.78302 5767.75928 6081.0
0.0001566 1008.72852 6085.69141 6385.0
0.0001524 1009.67395 6375.50293 6563.0
0.0001465 1010.61945 6619.47900 6826.0
0.0001413 1011.56482 6798.69092 7079.0
0.0001422 1012.51031 6894.77002 7032.0
0.0001487 1013.45575 6892.59912 6725.0
0.0001516 1014.40125 6783.70752 6596.0
0.0001586 1015.34662 6568.96143 6304.0
0.0001655 1016.29211 6258.88330 6041.0
0.0001787 1017.23755 5871.41357 5596.0
0.0002013 1018.18304 5428.69531 4967.0
0.0002168 1019.12848 4954.45410 4613.0
0.0002469 1020.07391 4471.99219 4050.0
0.0002832 1021.01935 4002.24072 3531.0
0.0003299 1021.96484 3561.98438 3031.0
0.000367 1022.91028 3162.88330 2724.0
0.000406 1023.85565 2811.50317 2465.0
0.000464 1024.80115 2510.03540 2156.0
0.000494 1025.74658 2257.29346 2025.0
0.000563 1026.69214 2049.72217 1776.0
0.000615 1027.63745 1882.29663 1626.0
0.000625 1028.58289 1749.28479 1600.0
0.000634 1029.52844 1644.84253 1577.0
0.000661 1030.47388 1563.44812 1514.0
0.000693 1031.41931 1500.18091 1444.0
0.000701 1032.36475 1450.86304 1427.0
0.000743 1033.31018 1412.08948 1346.0
0.000772 1034.25574 1381.18750 1296.0
0.000746 1035.20105 1356.12231 1341.0
0.000760 1036.14648 1335.38757 1315.0
0.000784 1037.09204 1317.89282 1276.0
0.000813 1038.03748 1302.86023 1230.0
0.000839 1038.98291 1289.73999 1192.0
0.000791 1039.92834 1278.14319 1264.0
0.000782 1040.87378 1267.79114 1278.0
0.000832 1041.81921 1210.94006 1202.0
0.000844 1042.76477 1203.07886 1185.0
0.000796 1043.71021 1195.97925 1256.0
0.000803 1044.65564 1189.54736 1246.0
0.000840 1045.60095 1160.15918 1190.0
0.000850 1046.54639 1155.12024 1176.0
0.000830 1047.49194 1150.54688 1205.0
0.000826 1048.43738 1146.39148 1210.0
0.000832 1049.38281 1142.61279 1202.0
0.000876 1050.32837 1139.17419 1141.0
0.000901 1051.27380 1136.04346 1110.0
0.000893 1052.21924 1133.19250 1120.0
0.000849 1053.16455 1130.59607 1178.0
0.000873 1054.10999 1128.23193 1145.0
0.000873 1055.05554 1126.08008 1146.0
0.000861 1056.00098 1124.12244 1161.0
0.000821 1056.94641 1122.34290 1218.0
0.000839 1057.89185 1119.09827 1192.0
0.000884 1058.83740 1117.65295 1131.0
0.000852 1059.78284 1116.34631 1174.0
0.000882 1060.72815 1115.16797 1134.0
0.000876 1061.67358 1113.30127 1141.0
0.000868 1062.61902 1112.36108 1152.0
0.000894 1063.56458 1111.52283 1118.0
0.000842 1064.51001 1110.77905 1188.0
0.000876 1065.45544 1110.12329 1142.0
0.000903 1066.40100 1109.54968 1108.0
0.000909 1067.34644 1109.05249 1100.0
0.000885 1068.29187 1108.62671 1130.0
0.000893 1069.23718 1108.26746 1120.0
0.000824 1070.18262 1107.97095 1214.0
0.000870 1071.12817 1107.73315 1150.0
0.000853 1072.07361 1107.55005 1172.0
0.000904 1073.01904 1107.41858 1106.0
0.000860 1073.96460 1107.33582 1163.0
0.000873 1074.91003 1107.29834 1146.0
0.000828 1075.85547 1107.30383 1208.0
0.000868 1076.80078 1107.34973 1152.0
0.000883 1077.74622 1107.43384 1133.0
0.000881 1078.69177 1107.55420 1135.0
0.000871 1079.63721 1107.70837 1148.0
0.000906 1080.58264 1107.89490 1104.0
0.000886 1081.52808 1108.11182 1129.0
0.000840 1082.47363 1108.35767 1191.0
0.000879 1083.41907 1108.63074 1138.0
0.000947 1084.36438 1108.92969 1056.0
0.000864 1085.30981 1109.25330 1158.0
0.000880 1086.25525 1109.60034 1136.0
0.000890 1087.20081 1109.96973 1124.0
0.000929 1088.11951 1110.33337 1076.0
0.000934 1089.01306 1110.69202 1071.0
0.000921 1089.90649 1111.06958 1086.0
0.000917 1090.80005 1111.46558 1091.0
0.000879 1091.69348 1111.87891 1138.0
0.000926 1092.58679 1112.30859 1080.0
0.000960 1093.48035 1112.75452 1042.0
0.000885 1094.37378 1113.21521 1130.0
0.000889 1095.26733 1113.69055 1125.0
0.000888 1096.16077 1114.17957 1126.0
0.000855 1097.05432 1114.68201 1169.0
0.000859 1097.94775 1115.19690 1164.0
0.000838 1098.84131 1115.72400 1193.0
0.000951 1099.73462 1116.26245 1051.0
0.000903 1100.62805 1116.81201 1107.0
0.000910 1101.52161 1117.37244 1099.0
0.000867 1102.41504 1117.94299 1153.0
0.000864 1103.30859 1118.52344 1158.0
0.000911 1104.20203 1119.11316 1098.0
0.000874 1105.09558 1119.71191 1144.0
0.000878 1105.98901 1120.31934 1139.0
0.000894 1106.88245 1120.93506 1118.0
0.000873 1107.77588 1121.55872 1145.0
0.000935 1108.66943 1122.19031 1070.0
0.000875 1109.56287 1122.82922 1143.0
0.000885 1110.45642 1123.47534 1130.0
0.000859 1111.34985 1124.12817 1164.0
0.000873 1112.24341 1124.78772 1145.0
0.000883 1113.13684 1125.45361 1133.0
0.000847 1114.03040 1126.12573 1180.0
0.000933 1114.92371 1126.80359 1072.0
0.000897 1115.81714 1127.48718 1115.0
0.000845 1116.71069 1128.17651 1183.0
0.000934 1117.60413 1128.87109 1071.0
0.000831 1118.49768 1129.57080 1203.0
0.000855 1119.39111 1130.27527 1169.0
0.000935 1120.28467 1130.98486 1070.0
0.000925 1121.17810 1131.69897 1081.0
0.000930 1122.07141 1132.41736 1075.0
0.000889 1122.96497 1133.14038 1125.0
0.000890 1123.85840 1133.86743 1124.0
0.000908 1124.75195 1134.59863 1101.0
0.000912 1125.64539 1135.33362 1096.0
0.000898 1126.53894 1136.07251 1113.0
0.000930 1127.43237 1136.81506 1075.0
0.000936 1128.32593 1137.56116 1068.0
0.000911 1129.21924 1138.31067 1098.0
0.000912 1130.11267 1139.06348 1096.0
0.000873 1131.00623 1139.81970 1146.0
0.000897 1131.89966 1140.57886 1115.0
0.000904 1132.79321 1141.34143 1106.0
0.000903 1133.68665 1142.10657 1107.0
0.000919 1134.58020 1142.87488 1088.0
0.000907 1135.47375 1143.64587 1102.0
0.000900 1136.36719 1144.41943 1111.0
0.000893 1137.26050 1145.19556 1120.0
0.000910 1138.15405 1145.97437 1099.0
0.000873 1139.04749 1146.75562 1145.0
0.000847 1139.94104 1147.53931 1180.0
0.000860 1140.83447 1148.32532 1163.0
0.000932 1141.72803 1149.11365 1073.0
0.000885 1142.62146 1149.90405 1130.0
0.000862 1143.51501 1150.69678 1160.0
0.000883 1144.40833 1151.49133 1133.0
0.000877 1145.30176 1152.28796 1140.0
0.000860 1146.19531 1153.08679 1163.0
0.000925 1147.08875 1153.88745 1081.0
0.000846 1147.98230 1154.68994 1182.0
0.000892 1148.87573 1155.49414 1121.0
0.000923 1149.76929 1156.30029 1084.0
0.000886 1150.66272 1157.10815 1129.0
0.000873 1151.55603 1157.91736 1145.0
0.000885 1152.44958 1158.72852 1130.0
0.000844 1153.34302 1159.54126 1185.0
0.000907 1154.23657 1160.35547 1102.0
0.000931 1155.13000 1161.17114 1074.0
0.000858 1156.02356 1161.98853 1166.0
0.000891 1156.91699 1162.80713 1122.0
0.000876 1157.81055 1163.62720 1142.0
0.000909 1158.70398 1164.44873 1100.0
0.000860 1159.59741 1165.27148 1163.0
0.000872 1160.49084 1166.09534 1147.0
0.000893 1161.38440 1166.92090 1120.0
0.000859 1162.27783 1167.74731 1164.0
0.000902 1163.17139 1168.57520 1109.0
0.000904 1164.06482 1165.89526 1106.0
0.000911 1164.95837 1166.76672 1098.0
0.000924 1165.85181 1167.63855 1082.0
0.000870 1166.74512 1168.51050 1149.0
0.000861 1167.63867 1167.63867 1162.0
0.000906 1168.53210 1168.53210 1104.0
0.000883 1169.42566 1169.42566 1132.0
0.000890 1170.31909 1170.31909 1124.0
0.000889 1171.21265 1171.21265 1125.0
0.000910 1172.10608 1172.10608 1099.0
0.000910 1172.99963 1172.99963 1099.0
0.000905 1173.89294 1173.89294 1105.0
0.000897 1174.78638 1174.78638 1115.0
0.000930 1175.67993 1175.67993 1075.0
0.000917 1176.57336 1176.57336 1090.0
0.000880 1177.46692 1177.46692 1137.0
0.000841 1178.36035 1178.98633 1189.0
0.000875 1179.25391 1179.88757 1143.0
0.000828 1180.14734 1180.78894 1208.0
0.000867 1181.04089 1181.69055 1154.0
0.000886 1181.93420 1182.59204 1129.0
0.000880 1182.82776 1183.80591 1137.0
0.000900 1183.72119 1184.71167 1111.0
0.000914 1184.61475 1185.61780 1094.0
0.000893 1185.50818 1186.52405 1120.0
0.000845 1186.40173 1187.43079 1184.0
0.000864 1187.29517 1188.33752 1157.0
0.000897 1188.18872 1189.24475 1115.0
0.000910 1189.08203 1190.15186 1099.0
0.000858 1189.97546 1191.05945 1166.0
0.000852 1190.86902 1191.96741 1174.0
0.000882 1191.76245 1192.87549 1134.0
0.000875 1192.65601 1193.78418 1143.0
0.000822 1193.54944 1194.69299 1216.0
0.000868 1194.44299 1195.60217 1152.0
0.000881 1195.33643 1196.51147 1135.0
0.000845 1196.22974 1197.42114 1184.0
0.000887 1197.12329 1198.33130 1128.0
0.000870 1198.01672 1199.24170 1149.0
0.000833 1198.91028 1200.15259 1200.0
0.000906 1199.80371 1201.06384 1104.0
0.000853 1200.69727 1201.97546 1172.0
0.000899 1201.59070 1202.88745 1112.0
0.000912 1202.48425 1203.79993 1097.0
0.000817 1203.37769 1204.71265 1224.0
0.000865 1204.27112 1205.62585 1156.0
0.000833 1205.16455 1206.53943 1201.0
0.000850 1206.05811 1207.45374 1176.0
0.000855 1206.95154 1208.36829 1170.0
0.000864 1207.84509 1209.28345 1157.0
0.000863 1208.73853 1210.19897 1159.0
0.000853 1209.63208 1211.11511 1173.0
0.000818 1210.52551 1212.03174 1222.0
0.000856 1211.41882 1212.94885 1168.0
0.000840 1212.31238 1213.86658 1191.0
0.000885 1213.20581 1214.78479 1130.0
0.000833 1214.09937 1215.70386 1201.0
0.000845 1214.99280 1216.62341 1184.0
0.000886 1215.88635 1217.54370 1129.0
0.000843 1216.77979 1218.46448 1186.0
0.000864 1217.67334 1219.38611 1157.0
0.000864 1218.56665 1220.30811 1157.0
0.000863 1219.46008 1221.23108 1159.0
0.000856 1220.35364 1222.15491 1168.0
0.000845 1221.24707 1223.07947 1183.0
0.000878 1222.14063 1224.00476 1139.0
0.000874 1223.03406 1224.93103 1144.0
0.000846 1223.92761 1225.85815 1182.0
0.000850 1224.82104 1226.78601 1176.0
0.000841 1225.71460 1227.71497 1189.0
0.000848 1226.60791 1228.64478 1179.0
0.000807 1227.50146 1229.57568 1239.0
0.000829 1228.39490 1230.50745 1206.0
0.000856 1229.28845 1231.44067 1168.0
0.000832 1230.18188 1232.37463 1202.0
0.000827 1231.07544 1233.31006 1209.0
0.000870 1231.96887 1234.24646 1149.0
0.000878 1232.86243 1235.18433 1139.0
0.000871 1233.75574 1236.12317 1148.0
0.000805 1234.64917 1237.06360 1243.0
0.000842 1235.54272 1238.00549 1188.0
0.000866 1236.43616 1238.94873 1155.0
0.000889 1237.32971 1239.89368 1125.0
0.000848 1238.22314 1240.84009 1179.0
0.000888 1239.11670 1241.78821 1126.0
0.000849 1240.01013 1242.73792 1178.0
0.000828 1240.90344 1243.68945 1208.0
0.000861 1241.79700 1244.64307 1161.0
0.000823 1242.69043 1245.59851 1215.0
0.000798 1243.58398 1246.55627 1253.0
0.000821 1244.47742 1247.51587 1218.0
0.000842 1245.37097 1248.47791 1188.0
0.000820 1246.26440 1249.44226 1220.0
0.000806 1247.15796 1250.40906 1240.0
0.000816 1248.05139 1251.37830 1225.0
0.000826 1248.94470 1252.35034 1210.0
0.000841 1249.83826 1253.32532 1189.0
0.000818 1250.73169 1254.30310 1222.0
0.000825 1251.62524 1255.28418 1212.0
0.000789 1252.51868 1256.26843 1268.0
0.000859 1253.41223 1257.25623 1164.0
0.000763 1254.30566 1258.24744 1311.0
0.000779 1255.19922 1259.24255 1284.0
0.000824 1256.09253 1260.24170 1214.0
0.000869 1256.98608 1261.24512 1151.0
0.000844 1257.87952 1262.25293 1185.0
0.000829 1258.77307 1263.26563 1206.0
0.000834 1259.66650 1264.28296 1199.0
0.000846 1260.56006 1265.30579 1182.0
0.000823 1261.45349 1266.33411 1215.0
0.000858 1262.34705 1267.36841 1165.0
0.000808 1263.24036 1268.40869 1237.0
0.000809 1264.13379 1269.45581 1236.0
0.000809 1265.02734 1270.50977 1236.0
0.000821 1265.92078 1271.57141 1218.0
0.000782 1266.81433 1272.64099 1279.0
0.000817 1267.70776 1273.71875 1224.0
0.000847 1268.60132 1274.80579 1181.0
0.000812 1269.49475 1275.90222 1232.0
0.000791 1270.38831 1277.00916 1265.0
0.000825 1271.28162 1278.12671 1212.0
0.000798 1272.17505 1279.25623 1253.0
0.000758 1273.06860 1280.39844 1320.0
0.000811 1273.96204 1281.55408 1233.0
0.000803 1274.85559 1282.72424 1245.0
0.000796 1275.74902 1283.91016 1257.0
0.000775 1276.64258 1285.11292 1291.0
0.000803 1277.53601 1286.33411 1246.0
0.000774 1278.42944 1287.57483 1292.0
0.000779 1279.32288 1288.83704 1283.0
0.000804 1280.21643 1290.12268 1244.0
0.000779 1281.10986 1291.43359 1284.0
0.000778 1282.00342 1292.77222 1285.0
0.000798 1282.89685 1294.14124 1253.0
0.000785 1283.79041 1295.54370 1274.0
0.000781 1284.68384 1296.98328 1280.0
0.000805 1285.57715 1298.46411 1242.0
0.000757 1286.47070 1299.99207 1321.0
0.000786 1287.36414 1301.57312 1273.0
0.000768 1288.25769 1303.21606 1302.0
0.000765 1289.15112 1304.93152 1307.0
0.000801 1290.04468 1306.73376 1249.0
0.000798 1290.93811 1308.64087 1253.0
0.000737 1291.83167 1310.67700 1356.0
0.000775 1292.72510 1312.87244 1290.0
0.000769 1293.61841 1315.26611 1300.0
0.000781 1294.51196 1317.90662 1281.0
0.000739 1295.40540 1320.85327 1353.0
0.000774 1296.29895 1324.17749 1292.0
0.000780 1297.19238 1327.96277 1282.0
0.000756 1298.08594 1332.30591 1322.0
0.000749 1298.97937 1337.31506 1336.0
0.000769 1299.87292 1343.10913 1301.0
0.000726 1300.76624 1349.81384 1378.0
0.000736 1301.65979 1357.55896 1358.0
0.000710 1302.55322 1366.47205 1408.0
0.000694 1303.44678 1376.67676 1440.0
0.000714 1304.34021 1388.29114 1401.0
0.000709 1305.23376 1401.43457 1411.0
0.000676 1306.12720 1423.15405 1479.0
0.000671 1307.02075 1439.83447 1490.0
0.000693 1307.91406 1458.41748 1443.0
0.000668 1308.80750 1479.01990 1498.0
0.000648 1309.70105 1501.78040 1544.0
0.000648 1310.59448 1530.32642 1543.0
0.000663 1311.48804 1558.09045 1509.0
0.000618 1312.38147 1588.73767 1619.0
0.000620 1313.27502 1622.56165 1612.0
0.000616 1314.16846 1659.89087 1623.0
0.000600 1315.06201 1701.11475 1668.0
0.000573 1315.95532 1746.64075 1744.0
0.000544 1316.84875 1796.79492 1839.0
0.000535 1317.74231 1851.74060 1868.0
0.000532 1318.63574 1911.44299 1880.0
0.000515 1319.52930 1975.60864 1941.0
0.000503 1320.42273 2043.55371 1989.0
0.000478 1321.31628 2114.08521 2092.0
0.000492 1322.20972 2185.45923 2032.0
0.000453 1323.10303 2255.38867 2207.0
0.000450 1323.99658 2321.05347 2220.0
0.000444 1324.89001 2379.15894 2251.0
0.000427 1325.78357 2426.10962 2344.0
0.000430 1326.67712 2458.31323 2326.0
0.000421 1327.57056 2472.63989 2377.0
0.000422 1328.46411 2467.00171 2370.0
0.000445 1329.35754 2440.88525 2245.0
0.000445 1330.25085 2395.53809 2246.0
0.000451 1331.14441 2333.65015 2218.0
0.000473 1332.03784 2258.74731 2115.0
0.000482 1332.93140 2174.69727 2075.0
0.000485 1333.82483 2085.46655 2060.0
0.000546 1334.71838 1994.97375 1833.0
0.000530 1335.61182 1906.84131 1888.0
0.000583 1336.50537 1824.08264 1716.0
0.000563 1337.39880 1748.87134 1776.0
0.000578 1338.29211 1682.49182 1729.0
0.000637 1339.18567 1625.43433 1569.0
0.000652 1340.07910 1577.55981 1534.0
0.000693 1341.21924 1538.52454 1443.0
0.000696 1342.47229 1507.31458 1437.0
0.000678 1343.72546 1482.78613 1476.0
0.000690 1344.97852 1463.86536 1450.0
0.000679 1346.23169 1449.51978 1472.0
0.000688 1347.48462 1438.81128 1453.0
0.000699 1348.73767 1430.93030 1431.0
0.000723 1349.99084 1425.20447 1383.0
0.000657 1351.24390 1421.09692 1523.0
0.000715 1352.49707 1418.19299 1398.0
0.000667 1353.75012 1416.18127 1499.0
0.000696 1355.00330 1414.83423 1436.0
0.000712 1356.25647 1413.98889 1405.0
0.000690 1357.50928 1413.52991 1450.0
0.000740 1358.76245 1413.37720 1351.0
0.000701 1360.01550 1413.47424 1426.0
0.000681 1361.26868 1413.78137 1469.0
0.000689 1362.52173 1414.26953 1451.0
0.000708 1363.77490 1414.91797 1412.0
0.000676 1365.02795 1415.71021 1479.0
0.000708 1366.28113 1416.63403 1413.0
0.000687 1367.53430 1417.67932 1456.0
0.000726 1368.78711 1418.83752 1378.0
0.000715 1370.04028 1420.10315 1399.0
0.000724 1371.29333 1421.47009 1381.0
0.000686 1372.54651 1422.93420 1457.0
0.000706 1373.79956 1424.49219 1417.0
0.000692 1375.05273 1426.14172 1446.0
0.000682 1376.30591 1427.88086 1466.0
0.000666 1377.55896 1429.70801 1501.0
0.000695 1378.81189 1431.62305 1439.0
0.000664 1380.06494 1433.62598 1505.0
0.000706 1381.31812 1435.71765 1417.0
0.000702 1382.57117 1437.89880 1425.0
0.000677 1383.82434 1440.17175 1477.0
0.000677 1385.07751 1442.53833 1478.0
0.000665 1386.33057 1445.00146 1504.0
0.000649 1387.58374 1447.56482 1540.0
0.000698 1388.83655 1450.23181 1432.0
0.000688 1390.08972 1453.00793 1453.0
0.000680 1391.34277 1455.89795 1470.0
0.000672 1392.59595 1458.90808 1488.0
0.000704 1393.84900 1462.04517 1420.0
0.000684 1395.10217 1465.31714 1462.0
0.000649 1396.35535 1468.73206 1541.0
0.000656 1397.60840 1472.30005 1525.0
0.000651 1398.86157 1476.03186 1536.0
0.000683 1400.11438 1479.93921 1464.0
0.000674 1401.36755 1484.03650 1483.0
0.000675 1402.62061 1488.33838 1481.0
0.000691 1403.87378 1492.86267 1447.0
0.000643 1405.12695 1497.62866 1555.0
0.000671 1406.38000 1502.65881 1490.0
0.000661 1407.63318 1507.97986 1512.0
0.000631 1408.88623 1513.62231 1586.0
0.000628 1410.13916 1519.62366 1592.0
0.000622 1411.39221 1526.03076 1609.0
0.000635 1412.64539 1541.21118 1575.0
0.000627 1413.89856 1548.68579 1596.0
0.000574 1415.15161 1556.80005 1743.0
0.000581 1416.40479 1565.68567 1720.0
0.000577 1417.65784 1575.51636 1733.0
0.000593 1418.91101 1586.52271 1686.0
0.000562 1420.16382 1603.15295 1779.0
0.000550 1421.41699 1617.53076 1818.0
0.000560 1422.67004 1634.26233 1787.0
0.000536 1423.92322 1653.95703 1867.0
0.000514 1425.17639 1677.35413 1945.0
0.000516 1426.42944 1705.33167 1938.0
0.000486 1427.68262 1738.90955 2059.0
0.000499 1428.93567 1779.24097 2005.0
0.000459 1430.18884 1827.59900 2177.0
0.000461 1431.44165 1885.34766 2170.0
0.000431 1432.69482 1953.90454 2322.0
0.000410 1433.94800 2034.70007 2437.0
0.000403 1435.20105 2129.14893 2480.0
0.000376 1436.45422 2238.65308 2660.0
0.000365 1437.70728 2364.63452 2737.0
0.0003429 1438.96045 2508.55396 2916.0
0.0003215 1440.21350 2671.90332 3110.0
0.0003018 1441.46643 2856.23828 3314.0
0.0002775 1442.71960 3063.33032 3604.0
0.0002630 1443.97266 3295.35522 3803.0
0.0002399 1445.22583 3554.94531 4169.0
0.0002252 1446.47888 3845.10718 4441.0
0.0002045 1447.73206 4169.20459 4890.0
0.0001929 1448.98511 4530.98486 5184.0
0.0001804 1450.23828 4934.37646 5544.0
0.0001690 1451.49109 5382.91504 5917.0
0.0001531 1452.74426 5879.08154 6532.0
0.0001430 1453.99744 6423.60693 6994.0
0.0001324 1455.25049 7014.58057 7552.0
0.0001212 1456.50366 7646.37549 8253.0
0.0001140 1457.75671 8308.71289 8774.0
0.0001045 1459.00989 8986.03906 9567.0
0.0000990 1460.26294 9657.23047 10101.0
0.0000958 1461.51611 10295.73535 10439.0
0.0000926 1462.76904 10870.35059 10804.0
0.0000898 1464.02209 11346.79102 11142.0
0.0000880 1465.27527 11690.36133 11358.0
0.0000856 1466.52832 11870.04688 11688.0
0.0000874 1467.78149 11863.87012 11441.0
0.0000893 1469.03455 11664.14258 11198.0
0.0000921 1470.28772 11279.79102 10854.0
0.0000975 1471.54089 10733.92188 10252.0
0.0001035 1472.79370 10058.16797 9664.0
0.0001132 1474.04688 9287.59375 8834.0
0.0001205 1475.29993 8458.24902 8296.0
0.0001388 1476.55310 7606.27979 7204.0
0.0001556 1477.80615 6766.28418 6426.0
0.0001779 1479.05933 5968.46826 5622.0
0.0001953 1480.31238 5235.94287 5120.0
0.0002215 1481.56555 4583.52539 4515.0
0.0002541 1482.81848 4018.15112 3936.0
0.0002826 1484.07153 3540.24072 3539.0
0.0003201 1485.32471 3145.35840 3124.0
0.0003428 1486.57776 2825.81787 2917.0
0.000385 1487.83093 2572.07471 2596.0
0.000403 1489.08398 2373.87769 2482.0
0.000418 1490.33716 2221.14575 2390.0
0.000450 1491.59033 2104.58862 2222.0
0.000466 1492.84338 2016.08154 2145.0
0.000458 1494.09631 1948.83228 2183.0
0.000486 1495.34937 1897.38501 2057.0
0.000501 1496.60254 1857.51208 1996.0
0.000518 1497.85559 1826.04187 1931.0
0.000550 1499.10876 1800.66321 1819.0
0.000520 1500.36194 1779.73059 1922.0
0.000528 1501.61499 1762.09424 1893.0
0.000546 1502.86816 1746.96008 1831.0
0.000540 1504.12097 1733.77966 1851.0
0.000518 1505.37415 1722.17212 1929.0
0.000557 1506.62720 1711.86597 1795.0
0.000554 1507.88037 1702.66260 1804.0
0.000553 1509.13342 1694.41162 1807.0
0.000553 1510.38660 1686.99451 1809.0
0.000559 1511.63977 1680.31445 1789.0
0.000561 1512.89282 1674.29114 1781.0
0.000565 1514.14575 1668.85583 1770.0
0.000569 1515.39880 1663.94946 1756.0
0.000575 1516.65198 1659.52112 1740.0
0.000580 1517.90503 1655.52466 1724.0
0.000590 1519.15820 1651.92078 1695.0
0.000597 1520.41138 1648.67407 1675.0
0.000583 1521.66443 1645.75305 1714.0
0.000608 1522.91760 1643.12988 1645.0
0.000602 1524.17065 1640.78015 1660.0
0.000602 1525.42358 1638.68066 1662.0
0.000587 1526.67664 1636.81226 1703.0
0.000603 1527.92981 1635.15698 1658.0
0.000610 1529.18298 1633.10718 1640.0
0.000596 1530.43604 1631.83740 1677.0
0.000603 1531.68921 1630.73657 1659.0
0.000605 1532.94226 1629.79248 1654.0
0.000606 1534.19543 1628.69763 1650.0
0.000609 1535.44824 1628.03894 1642.0
0.000600 1536.70142 1630.63159 1667.0
0.000629 1537.95447 1630.25769 1589.0
0.000602 1539.20764 1629.99622 1661.0
0.000637 1540.46082 1629.83997 1569.0
0.000640 1541.71387 1629.78296 1563.0
0.000621 1542.96704 1631.36072 1610.0
0.000623 1544.22009 1631.50427 1605.0
0.000612 1545.47302 1631.73181 1634.0
0.000610 1546.72607 1632.03882 1639.0
0.000638 1547.97925 1632.42151 1567.0
0.000619 1549.23242 1632.87610 1616.0
0.000596 1550.48547 1633.39868 1679.0
0.000624 1551.73865 1633.98706 1603.0
0.000653 1552.99170 1634.63745 1531.0
0.000609 1554.24487 1635.34790 1643.0
0.000629 1555.49792 1636.11548 1591.0
0.000626 1556.75085 1636.93811 1597.0
0.000629 1558.00391 1637.81384 1590.0
0.000592 1559.25708 1638.74097 1690.0
0.000620 1560.51025 1639.71753 1614.0
0.000613 1561.76331 1640.74219 1631.0
0.000619 1563.01648 1641.81323 1615.0
0.000601 1564.26953 1642.92932 1664.0
0.000587 1565.52271 1644.08923 1704.0
0.000616 1566.77551 1645.29224 1623.0
0.000584 1568.02869 1646.53699 1711.0
0.000606 1569.28186 1647.82312 1651.0
0.000622 1570.53491 1649.14929 1609.0
0.000655 1571.78809 1650.51489 1527.0
0.000634 1573.04114 1651.91956 1578.0
0.000600 1574.29431 1653.36267 1666.0
0.000614 1575.54736 1654.84375 1629.0
0.000614 1576.80029 1656.36206 1629.0
0.000606 1578.05347 1657.91785 1650.0
0.000624 1579.30652 1659.51050 1603.0
0.000616 1580.55969 1661.14038 1624.0
0.000607 1581.81274 1662.80664 1647.0
0.000618 1583.06592 1664.50989 1619.0
0.000613 1584.31897 1666.24963 1631.0
0.000605 1585.57214 1668.02625 1652.0
0.000606 1586.82520 1669.83948 1649.0
0.000625 1588.07813 1671.69006 1599.0
0.000592 1589.33130 1673.57800 1689.0
0.000594 1590.58435 1675.50342 1683.0
0.000603 1591.83752 1677.46741 1659.0
0.000618 1593.09058 1679.46912 1619.0
0.000615 1594.34375 1681.51038 1627.0
0.000598 1595.59680 1683.59082 1673.0
0.000644 1596.84998 1685.71167 1552.0
0.000572 1598.10291 1687.87280 1749.0
0.000602 1599.35596 1690.07593 1660.0
0.000561 1600.60913 1692.32117 1783.0
0.000607 1601.86218 1694.60974 1647.0
0.000599 1603.11536 1696.94238 1669.0
0.000613 1604.36841 1699.32007 1630.0
0.000594 1605.62158 1701.74426 1683.0
0.000600 1606.87463 1704.21545 1667.0
0.000593 1608.12756 1706.73535 1685.0
0.000614 1609.38074 1709.30530 1629.0
0.000571 1610.63379 1711.92651 1752.0
0.000587 1611.88696 1714.60071 1703.0
0.000600 1613.14001 1717.32886 1666.0
0.000590 1614.39319 1720.11353 1696.0
0.000584 1615.64624 1722.95569 1711.0
0.000583 1616.89941 1725.85767 1714.0
0.000584 1618.15259 1728.82141 1711.0
0.000574 1619.40540 1731.84863 1742.0
0.000615 1620.65857 1734.94226 1625.0
0.000606 1621.91162 1738.10425 1651.0
0.000597 1623.16479 1741.33728 1675.0
0.000590 1624.41785 1744.64380 1694.0
0.000591 1625.67102 1748.02649 1693.0
0.000567 1626.92419 1751.48889 1765.0
0.000568 1628.17725 1755.03369 1760.0
0.000583 1629.43018 1758.66418 1714.0
0.000575 1630.68323 1762.38440 1739.0
0.000569 1631.93640 1766.19775 1758.0
0.000567 1633.18945 1770.10828 1763.0
0.000558 1634.44263 1774.12000 1792.0
0.000591 1635.69568 1778.23767 1692.0
0.000563 1636.94885 1782.46619 1775.0
0.000573 1638.20203 1780.26074 1745.0
0.000548 1639.45483 1784.81836 1826.0
0.000550 1640.70801 1789.50085 1817.0
0.000562 1641.96106 1794.31445 1780.0
0.000593 1643.21423 1799.26538 1686.0
0.000581 1644.46729 1804.36060 1720.0
0.000566 1645.72046 1806.39233 1768.0
0.000561 1646.97363 1811.84448 1784.0
0.000548 1648.22668 1817.46338 1825.0
0.000548 1649.47986 1823.25867 1826.0
0.000545 1650.73267 1829.23914 1835.0
0.000537 1651.98584 1835.41614 1861.0
0.000556 1653.23889 1841.79980 1797.0
0.000554 1654.49207 1848.40271 1805.0
0.000571 1655.74512 1855.23682 1752.0
0.000558 1656.99829 1862.31592 1793.0
0.000552 1658.25146 1869.65491 1811.0
0.000569 1659.50452 1877.26917 1756.0
0.000567 1660.75745 1885.17542 1763.0
0.000538 1662.01050 1893.39233 1858.0
0.000547 1663.26367 1905.69360 1827.0
0.000519 1664.51672 1914.62097 1927.0
0.000534 1665.76990 1923.92358 1874.0
0.000538 1667.02307 1933.62561 1859.0
0.000557 1668.27612 1943.75452 1796.0
0.000519 1669.52930 1954.33984 1925.0
0.000523 1670.78210 1967.27979 1913.0
0.000510 1672.03528 1978.89111 1961.0
0.000525 1673.28833 1991.06360 1903.0
0.000530 1674.54150 2003.83984 1886.0
0.000524 1675.79468 2017.26538 1907.0
0.000513 1677.04773 2031.39063 1949.0
0.000503 1678.30090 2046.27161 1987.0
0.000509 1679.55396 2061.97046 1963.0
0.000519 1680.80713 2078.55640 1926.0
0.000486 1682.05994 2096.10718 2059.0
0.000500 1683.31311 2114.71069 1999.0
0.000503 1684.56616 2134.46655 1987.0
0.000483 1685.81934 2155.49097 2070.0
0.000472 1687.07251 2177.91748 2119.0
0.000470 1688.32556 2201.90137 2127.0
0.000463 1689.57874 2227.62720 2158.0
0.000470 1690.83179 2255.31348 2126.0
0.000453 1692.08472 2285.22046 2207.0
0.000452 1693.33777 2317.66187 2212.0
0.000436 1694.59094 2353.01294 2293.0
0.000436 1695.51306 2391.39331 2295.0
0.000410 1696.37988 2433.61963 2440.0
0.000410 1697.24683 2480.39307 2437.0
0.000400 1698.11377 2532.48145 2497.0
0.000388 1698.98071 2590.79028 2580.0
0.000375 1699.84741 2656.38159 2667.0
0.000359 1700.71436 2730.49170 2787.0
0.0003433 1701.58118 2814.54370 2913.0
0.0003244 1702.44812 2910.16650 3083.0
0.0003180 1703.31506 3019.20752 3145.0
0.0003102 1704.18188 3143.73828 3224.0
0.0002915 1705.04883 3286.06519 3431.0
0.0002785 1705.91577 3448.72388 3591.0
0.0002685 1706.78259 3634.46143 3724.0
0.0002530 1707.64941 3846.20239 3952.0
0.0002391 1708.51624 4086.98071 4182.0
0.0002180 1709.38318 4359.83838 4588.0
0.0002027 1710.25012 4667.69873 4933.0
0.0001946 1711.11694 5013.24121 5138.0
0.0001802 1711.98389 5398.82520 5550.0
0.0001683 1712.85083 5826.53271 5943.0
0.0001576 1713.71765 6298.33057 6344.0
0.0001421 1714.58447 6816.30566 7037.0
0.0001336 1715.45142 7382.83496 7484.0
0.0001259 1716.31824 8000.56152 7944.0
0.0001136 1717.18518 8672.08691 8803.0
0.0001071 1718.05212 9399.34082 9338.0
0.0000979 1718.91895 10182.66016 10214.0
0.0000904 1719.78589 11019.61328 11060.0
0.0000843 1720.65283 11903.76172 11866.0
0.0000806 1721.51953 12823.83594 12405.0
0.0000727 1722.38647 13763.76855 13759.0
0.0000692 1723.25330 14703.66309 14447.0
0.0000649 1724.12024 15621.09668 15417.0
0.0000608 1724.98718 16491.95508 16438.0
0.0000589 1725.85400 17290.32813 16981.0
0.0000556 1726.72095 17990.01367 17971.0
0.0000542 1727.58789 18556.21875 18443.0
0.0000531 1728.45471 18959.50977 18837.0
0.0000523 1729.32153 19171.31250 19112.0
0.0000525 1730.18835 19171.26953 19062.0
0.0000520 1731.05530 18952.16797 19244.0
0.0000533 1731.92224 18522.99414 18756.0
0.0000552 1732.78918 17902.67383 18127.0
0.0000577 1733.65601 17121.29102 17320.0
0.0000616 1734.52295 16211.11133 16237.0
0.0000656 1735.38989 15204.97070 15233.0
0.0000703 1736.25659 14135.73828 14225.0
0.0000764 1737.12354 13036.20508 13093.0
0.0000838 1737.99036 11938.02930 11934.0
0.0000913 1738.85730 10869.71680 10953.0
0.0001031 1739.72424 9854.62402 9696.0
0.0001141 1740.59106 8909.81641 8762.0
0.0001271 1741.45801 8046.04785 7866.0
0.0001416 1742.32495 7268.49707 7062.0
0.0001549 1743.19165 6577.85840 6454.0
0.0001674 1744.05859 5971.47168 5975.0
0.0001835 1744.92542 5444.32764 5451.0
0.0002044 1745.79236 4989.91113 4893.0
0.0002200 1746.65930 4600.88916 4545.0
0.0002389 1747.52625 4269.63281 4185.0
0.0002496 1748.39307 3988.62158 4006.0
0.0002672 1749.26001 3750.72876 3742.0
0.0002852 1750.12695 3549.40967 3506.0
0.0002951 1750.99365 3378.80786 3389.0
0.0003124 1751.86060 3233.80176 3201.0
0.0003232 1752.72742 3109.99341 3094.0
0.0003279 1753.59436 3003.67090 3050.0
0.0003342 1754.46130 2911.74487 2992.0
0.000360 1755.32813 2831.67480 2775.0
0.000357 1756.19507 2761.39087 2801.0
0.000379 1757.06201 2699.22095 2638.0
0.000376 1757.92871 2643.82007 2659.0
0.000393 1758.79565 2594.10938 2543.0
0.000389 1759.66248 2549.22510 2570.0
0.000409 1760.52942 2508.47266 2447.0
0.000405 1761.39636 2471.29321 2467.0
0.000401 1762.26318 2437.23022 2494.0
0.000399 1763.13013 2405.91162 2504.0
0.000433 1763.99707 2377.02979 2311.0
0.000424 1764.86377 2350.32495 2359.0
0.000427 1765.73071 2325.57886 2341.0
0.000432 1766.59766 2302.60498 2315.0
0.000432 1767.46448 2281.23975 2317.0
0.000424 1768.33142 2261.34302 2356.0
0.000430 1769.19836 2242.78833 2327.0
0.000447 1770.06519 2225.46655 2237.0
0.000450 1770.93213 2209.27759 2220.0
0.000446 1771.79907 2194.13354 2242.0
0.000469 1772.66577 2179.95410 2132.0
0.000449 1773.53271 2166.66821 2225.0
0.000473 1774.39954 2154.21094 2113.0
0.000466 1775.26648 2142.52124 2144.0
0.000472 1776.13342 2131.54736 2120.0
0.000470 1777.00024 2121.23975 2128.0
0.000478 1777.86719 2111.55371 2091.0
0.000482 1778.73413 2102.44824 2075.0
0.000480 1779.60083 2093.88623 2084.0
0.000484 1780.46777 2085.83325 2066.0
0.000487 1781.33472 2078.25879 2053.0
0.000472 1782.20154 2071.13306 2120.0
0.000479 1783.06848 2064.43042 2088.0
0.000469 1783.93542 2058.12646 2132.0
0.000475 1784.80225 2052.19897 2107.0
0.000486 1785.66919 2046.62756 2056.0
0.000487 1786.53589 2041.39270 2054.0
0.000495 1787.40283 2036.47803 2020.0
0.000504 1788.26978 2031.86731 1983.0
0.000471 1789.13660 2027.54578 2123.0
0.000477 1790.00354 2023.50012 2097.0
0.000486 1790.87048 2019.71790 2059.0
0.000494 1791.73730 2016.18762 2026.0
0.000503 1792.60425 2012.89954 1990.0
0.000477 1793.47119 2009.84375 2097.0
0.000483 1794.33789 2007.01196 2070.0
0.000489 1795.20483 2004.39648 2043.0
0.000501 1796.07166 2001.99084 1995.0
0.000506 1796.93860 1999.78821 1976.0
0.000493 1797.80554 1997.78320 2030.0
0.000493 1798.67249 1995.97156 2030.0
0.000521 1799.53931 1994.34924 1918.0
0.000508 1800.40625 1992.91309 1968.0
0.000512 1801.27295 1991.66003 1952.0
0.000509 1802.13989 1990.58887 1963.0
0.000510 1803.00684 1989.69824 1959.0
0.000503 1803.87366 1988.98816 1988.0
0.000496 1804.74060 1988.45898 2015.0
0.000494 1805.60754 1988.11194 2025.0
0.000503 1806.47437 1987.95007 1988.0
0.000499 1807.34131 1987.97595 2006.0
0.000513 1808.20801 1988.19543 1948.0
0.000502 1809.07495 1994.49597 1994.0
0.000526 1809.94189 1995.19495 1901.0
0.000498 1810.80872 1996.11438 2008.0
0.000501 1811.67566 1997.26770 1995.0
0.000519 1812.54260 1998.67432 1927.0
0.000514 1813.40942 2000.35925 1945.0
0.000495 1814.27637 2005.26746 2022.0
0.000500 1815.14331 2007.65454 2002.0
0.000492 1816.01001 2010.45728 2032.0
0.000497 1816.87695 2013.75378 2013.0
0.000500 1817.74390 2017.64673 1999.0
0.000497 1818.61072 2022.26917 2012.0
0.000496 1819.47766 2027.79053 2018.0
0.000478 1820.34460 2034.42285 2092.0
0.000467 1821.21143 2042.42737 2141.0
0.000473 1822.07837 2052.12061 2116.0
0.000465 1822.94507 2063.87695 2152.0
0.000474 1823.81201 2091.78198 2111.0
0.000463 1824.67896 2109.16455 2159.0
0.000465 1825.54578 2130.11792 2149.0
0.000462 1826.41272 2155.26733 2165.0
0.000440 1827.27966 2185.29663 2272.0
0.000427 1828.14648 2220.93994 2342.0
0.000425 1829.01343 2262.98047 2351.0
0.000392 1829.88013 2319.08350 2550.0
0.000412 1830.74707 2376.58325 2425.0
0.000395 1831.61401 2443.23169 2534.0
0.000374 1832.48096 2520.07837 2672.0
0.000359 1833.34778 2608.19897 2785.0
0.000352 1834.21472 2708.66235 2842.0
0.0003322 1835.08167 2822.49438 3010.0
0.0003203 1835.94849 2950.58105 3122.0
0.0003071 1836.81543 3093.49170 3256.0
0.0002922 1837.68213 3251.27808 3422.0
0.0002791 1838.54907 3423.28564 3583.0
0.0002646 1839.41602 3607.96240 3780.0
0.0002476 1840.28284 3804.33276 4039.0
0.0002446 1841.14978 4005.14111 4089.0
0.0002329 1842.01672 4206.81396 4293.0
0.0002196 1842.88354 4402.81934 4553.0
0.0002165 1843.75049 4585.48730 4620.0
0.0002037 1844.61719 4746.31201 4908.0
0.0002013 1845.48413 4876.46680 4968.0
0.0001992 1846.35107 4968.43311 5020.0
0.0001945 1847.21802 5013.77930 5142.0
0.0001985 1848.08484 5009.43018 5039.0
0.0002044 1848.95178 4955.26221 4892.0
0.0002101 1849.81873 4854.92822 4760.0
0.0002183 1850.68555 4714.85498 4580.0
0.0002214 1851.55237 4542.78516 4516.0
0.0002341 1852.41919 4346.73584 4271.0
0.0002443 1853.28613 4134.65674 4093.0
0.0002685 1854.15308 3914.50537 3725.0
0.0002861 1855.01990 3694.20068 3495.0
0.0002929 1855.88684 3481.15796 3414.0
0.0003220 1856.75378 3281.63672 3106.0
0.0003426 1857.62061 3100.24463 2919.0
0.000353 1858.48755 2944.62744 2832.0
0.000381 1859.35425 2806.37109 2627.0
0.000390 1860.22119 2690.10522 2565.0
0.000403 1861.08813 2594.71948 2481.0
0.000412 1861.95496 2518.44922 2428.0
0.000435 1862.82190 2459.14941 2299.0
0.000424 1863.68884 2416.90894 2359.0
0.000433 1864.55579 2384.71606 2309.0
0.000445 1865.42261 2362.80981 2247.0
0.000431 1866.28943 2349.32520 2321.0
0.000438 1867.15625 2342.69458 2281.0
0.000440 1868.02319 2341.66455 2274.0
0.000447 1868.89014 2345.28662 2239.0
0.000441 1869.75696 2352.89844 2269.0
0.000438 1870.62390 2364.08350 2282.0
0.000446 1871.49084 2378.64331 2243.0
0.000430 1872.35767 2396.56226 2326.0
0.000414 1873.22449 2417.98389 2415.0
0.000430 1874.09131 2443.18530 2327.0
0.000413 1874.95825 2472.56567 2420.0
0.000434 1875.82520 2506.63354 2304.0
0.000405 1876.69214 2546.00781 2468.0
0.000392 1877.55896 2591.40796 2548.0
0.000379 1878.42590 2643.65625 2638.0
0.000371 1879.29285 2703.67578 2696.0
0.000358 1880.15967 2772.48438 2792.0
0.000364 1881.02649 2886.33398 2749.0
0.0003434 1881.89331 2976.35767 2912.0
0.0003317 1882.76025 3078.63525 3015.0
0.0003165 1883.62720 3194.34033 3160.0
0.0002939 1884.49402 3324.56494 3403.0
0.0002927 1885.36096 3470.24756 3416.0
0.0002779 1886.22791 3632.10938 3599.0
0.0002629 1887.09473 3828.15967 3804.0
0.0002579 1887.96155 4023.75366 3878.0
0.0002357 1888.82837 4236.43262 4243.0
0.0002315 1889.69531 4466.29199 4320.0
0.0002119 1890.56226 4713.35791 4719.0
0.0002035 1891.42920 4977.40381 4914.0
0.0001875 1892.29602 5257.57861 5334.0
0.0001830 1893.16296 5551.96094 5465.0
0.0001752 1894.02991 5857.19531 5707.0
0.0001639 1894.89661 6168.32715 6100.0
0.0001558 1895.76355 6478.94775 6417.0
0.0001487 1896.63037 6781.59082 6727.0
0.0001433 1897.49731 7068.27979 6978.0
0.0001373 1898.36426 7330.95166 7282.0
0.0001323 1899.23108 7561.58301 7556.0
0.0001281 1900.09802 7752.06055 7804.0
0.0001260 1900.96497 7894.17480 7939.0
0.0001266 1901.83179 7980.18164 7897.0
0.0001269 1902.69861 8004.07129 7881.0
0.0001235 1903.56543 7963.05469 8096.0
0.0001244 1904.43237 7858.45117 8037.0
0.0001280 1905.29932 7695.43066 7812.0
0.0001305 1906.16614 7481.75830 7662.0
0.0001377 1907.03308 7226.30664 7264.0
0.0001450 1907.90002 6938.06348 6897.0
0.0001503 1908.76697 6625.81934 6652.0
0.0001587 1909.63367 6298.27490 6302.0
0.0001661 1910.50061 5964.05664 6021.0
0.0001813 1911.36743 5631.44922 5516.0
0.0001892 1912.23438 5307.91064 5285.0
0.0002036 1913.10132 4999.61426 4912.0
0.0002199 1913.96814 4711.18945 4548.0
0.0002324 1914.83508 4445.71973 4303.0
0.0002424 1915.70203 4204.89893 4126.0
0.0002606 1916.56873 3989.27417 3837.0
0.0002785 1917.43567 3798.51904 3591.0
0.0002859 1918.30249 3631.66992 3498.0
0.0003046 1919.16943 3487.33374 3283.0
0.0003098 1920.03638 3363.85693 3228.0
0.0003206 1920.90320 3259.46509 3119.0
0.0003375 1921.77014 3172.37231 2963.0
0.0003454 1922.63708 3100.87451 2895.0
0.0003320 1923.50403 3043.42212 3012.0
0.000358 1924.37073 2998.67480 2790.0
0.000353 1925.23767 2965.55322 2833.0
0.000356 1926.10449 2943.26440 2812.0
0.000352 1926.97144 2931.33447 2840.0
0.0003487 1927.83838 2929.62305 2868.0
0.0003407 1928.70520 2938.33447 2935.0
0.0003407 1929.57214 2958.02393 2935.0
0.0003248 1930.43909 2989.59985 3079.0
0.0003195 1931.30579 3034.32373 3130.0
0.0003184 1932.17273 3093.80225 3141.0
0.0003078 1933.03955 3169.97437 3249.0
0.0002891 1933.90649 3265.08984 3459.0
0.0002801 1934.77344 3381.67871 3570.0
0.0002729 1935.64026 3522.51318 3664.0
0.0002539 1936.50720 3690.58130 3938.0
0.0002450 1937.37415 3889.07886 4082.0
0.0002249 1938.24084 4125.12793 4446.0
0.0002082 1939.10779 4394.91162 4804.0
0.0001959 1939.93384 4705.58301 5104.0
0.0001811 1939.36841 5058.85205 5522.0
0.0001706 1938.80298 5458.29346 5862.0
0.0001595 1938.23755 5904.91064 6269.0
0.0001499 1937.67224 6398.33691 6670.0
0.0001362 1937.10681 6938.34424 7341.0
0.0001279 1936.54138 7516.74902 7816.0
0.0001189 1935.97607 8127.64502 8411.0
0.0001124 1935.41064 8759.89355 8895.0
0.0001055 1934.84521 9397.92480 9479.0
0.0000988 1934.27991 10023.76465 10119.0
0.0000950 1933.71448 10616.17383 10525.0
0.0000890 1933.14905 11151.34180 11242.0
0.0000868 1932.58362 11603.97754 11521.0
0.0000849 1932.01819 11949.32910 11784.0
0.0000837 1931.45288 12166.27539 11950.0
0.0000824 1930.88757 12240.29492 12137.0
0.0000839 1930.32214 12167.41309 11924.0
0.0000847 1929.75671 11954.71680 11805.0
0.0000888 1929.19128 11610.57129 11260.0
0.0000925 1928.62585 11173.58496 10810.0
0.0000963 1928.06042 10659.71777 10379.0
0.0001035 1927.49512 10093.12207 9666.0
0.0001094 1926.92981 9497.79102 9137.0
0.0001165 1926.36438 8898.08984 8582.0
0.0001232 1925.79895 8312.69531 8114.0
0.0001310 1925.23352 7776.50488 7631.0
0.0001362 1924.66809 7303.84033 7342.0
0.0001459 1924.10278 6910.51709 6852.0
0.0001499 1923.53735 6607.57324 6673.0
0.0001555 1922.97192 6401.58691 6429.0
0.0001537 1922.40649 6295.30859 6506.0
0.0001525 1921.84119 6288.33252 6557.0
0.0001477 1921.27576 6377.56689 6770.0
0.0001435 1920.71045 6557.43945 6969.0
0.0001382 1920.14502 6819.92676 7236.0
0.0001304 1919.57959 7154.49805 7670.0
0.0001245 1919.01416 7548.00439 8035.0
0.0001169 1918.44873 7984.56445 8551.0
0.0001117 1917.88330 8445.56641 8953.0
0.0001061 1917.31799 8909.89063 9423.0
0.0001009 1916.75269 9354.33789 9909.0
0.0000969 1916.18726 9754.36523 10317.0
0.0000938 1915.62183 10085.34668 10658.0
0.0000930 1915.05640 10324.42773 10751.0
0.0000917 1914.49097 10453.08984 10907.0
0.0000913 1913.92566 10460.07617 10949.0
0.0000931 1913.36023 10343.61816 10740.0
0.0000952 1912.79492 10111.52344 10506.0
0.0000979 1912.22949 9778.80762 10212.0
0.0001029 1911.66406 9364.10938 9717.0
0.0001092 1911.09863 8886.83594 9156.0
0.0001151 1910.53320 8366.08789 8685.0
0.0001253 1909.96790 7820.83545 7984.0
0.0001342 1909.40247 7270.19043 7450.0
0.0001439 1908.83704 6732.79004 6948.0
0.0001555 1908.27161 6225.36426 6432.0
0.0001728 1907.70630 5761.30273 5788.0
0.0001823 1907.14087 5349.91309 5485.0
0.0001923 1906.57556 4996.49805 5199.0
0.0002099 1906.01013 4702.97852 4764.0
0.0002207 1905.44470 4468.68262 4532.0
0.0002264 1904.87927 4291.15869 4416.0
0.0002325 1904.31384 4166.89453 4302.0
0.0002397 1903.74841 4091.94141 4172.0
0.0002333 1903.18323 4062.44312 4286.0
0.0002337 1902.61780 4075.04468 4279.0
0.0002294 1902.05237 4127.20654 4360.0
0.0002181 1901.48694 4217.41260 4586.0
0.0002146 1900.92151 4345.28369 4659.0
0.0002113 1900.35608 4511.60986 4733.0
0.0001909 1899.79077 4718.31592 5238.0
0.0001867 1899.22534 4968.37207 5355.0
0.0001759 1898.66003 5265.64453 5684.0
0.0001681 1898.09460 5614.69434 5948.0
0.0001571 1897.52917 6020.50391 6366.0
0.0001430 1896.96375 6488.12695 6994.0
0.0001367 1896.39844 7022.28857 7315.0
0.0001254 1895.83301 7626.98096 7973.0
0.0001152 1895.26758 8305.18555 8684.0
0.0001059 1894.70215 9058.85156 9447.0
0.0000991 1894.13672 9889.15234 10091.0
0.0000898 1893.57141 10796.78711 11140.0
0.0000843 1893.00598 11781.89355 11864.0
0.0000778 1892.44067 12843.04102 12848.0
0.0000719 1891.87524 13975.36035 13900.0
0.0000671 1891.30981 15168.28320 14906.0
0.0000615 1890.74438 16403.82813 16249.0
0.0000575 1890.17896 17656.19336 17403.0
0.0000542 1889.61365 18893.15234 18442.0
0.0000505 1889.04834 20078.76953 19798.0
0.0000486 1888.48291 21176.45703 20564.0
0.0000456 1887.91748 22150.65234 21928.0
0.0000442 1887.35205 22966.62891 22636.0
0.0000429 1886.78662 23589.60156 23320.0
0.0000414 1886.22119 23985.90625 24147.0
0.0000415 1885.65588 24127.88672 24073.0
0.0000418 1885.09045 24001.08203 23943.0
0.0000419 1884.52515 23609.44531 23866.0
0.0000432 1883.95972 22975.01563 23142.0
0.0000444 1883.39429 22131.93359 22540.0
0.0000465 1882.82886 21118.58398 21506.0
0.0000488 1882.26355 19972.25391 20489.0
0.0000520 1881.69812 18727.89648 19234.0
0.0000561 1881.13269 17419.61914 17840.0
0.0000609 1880.56726 16081.98438 16418.0
0.0000664 1880.00183 14749.45313 15051.0
0.0000725 1879.43652 13454.00195 13795.0
0.0000806 1878.87122 12222.54590 12410.0
0.0000885 1878.30579 11075.28418 11301.0
0.0000980 1877.74036 10025.37109 10204.0
0.0001088 1877.17493 9079.57715 9189.0
0.0001206 1876.60950 8239.43359 8293.0
0.0001321 1876.04407 7502.45459 7570.0
0.0001475 1875.47876 6863.28711 6781.0
0.0001598 1874.91345 6314.65527 6259.0
0.0001720 1874.34802 5848.13525 5815.0
0.0001838 1873.78259 5454.77930 5442.0
0.0001970 1873.21716 5125.59521 5075.0
0.0002046 1872.65173 4851.91016 4888.0
0.0002178 1872.08643 4625.63818 4591.0
0.0002351 1871.52100 4439.44824 4253.0
0.0002480 1870.95557 4286.86475 4033.0
0.0002470 1870.39026 4162.30078 4049.0
0.0002514 1869.82483 4061.04272 3978.0
0.0002675 1869.25940 3979.19458 3738.0
0.0002671 1868.69397 3913.60645 3744.0
0.0002767 1868.12866 3861.78345 3614.0
0.0002822 1867.56323 3821.78784 3544.0
0.0002820 1866.99780 3792.15283 3546.0
0.0002775 1866.43237 3771.79199 3603.0
0.0002856 1865.86694 3759.92725 3501.0
0.0002878 1865.30164 3756.01953 3475.0
0.0002909 1864.73633 3759.70313 3438.0
0.0002868 1864.17090 3770.73315 3487.0
0.0002829 1863.60547 3788.92871 3535.0
0.0002846 1863.04004 3814.12866 3514.0
0.0002862 1862.47461 3846.13721 3494.0
0.0002803 1861.90918 3884.67627 3568.0
0.0002735 1861.34387 3929.34863 3656.0
0.0002762 1860.77856 3979.60205 3621.0
0.0002697 1860.21313 4034.71484 3708.0
0.0002719 1859.64771 4093.78906 3678.0
0.0002595 1859.08228 4155.77441 3853.0
0.0002578 1858.51685 4219.50488 3879.0
0.0002508 1857.95154 4283.75977 3988.0
0.0002544 1857.38611 4347.37012 3931.0
0.0002486 1856.82068 4409.35547 4022.0
0.0002402 1856.25537 4469.09961 4163.0
0.0002382 1855.68994 4526.53223 4198.0
0.0002347 1855.12451 4582.22461 4260.0
0.0002283 1854.55920 4637.35596 4381.0
0.0002367 1853.99377 4693.54736 4224.0
0.0002320 1853.42834 4752.66309 4310.0
0.0002289 1852.86292 4816.70166 4368.0
0.0002207 1852.29749 4887.79346 4531.0
0.0002151 1851.73206 4968.25098 4648.0
0.0002134 1851.16675 5060.62939 4686.0
0.0002049 1850.60144 5167.73242 4880.0
0.0001950 1850.03601 5292.58008 5128.0
0.0001852 1849.47058 5438.39160 5401.0
0.0001827 1848.90515 5608.62500 5473.0
0.0001770 1848.33972 5807.05664 5651.0
0.0001656 1847.77441 6037.90771 6037.0
0.0001604 1847.20898 6305.97949 6235.0
0.0001497 1846.64368 6616.78369 6680.0
0.0001386 1846.07825 6976.67139 7214.0
0.0001267 1845.51282 7392.95020 7891.0
0.0001203 1844.94739 7873.97510 8316.0
0.0001118 1844.38196 8429.22559 8948.0
0.0001030 1843.81665 9069.35449 9712.0
0.0000967 1843.25122 9806.19434 10346.0
0.0000882 1842.68579 10652.75195 11344.0
0.0000801 1842.12048 11623.13379 12484.0
0.0000733 1841.55505 12732.42578 13643.0
0.0000682 1840.98962 13996.43555 14672.0
0.0000610 1840.42432 15431.23340 16392.0
0.0000554 1839.85889 17052.38477 18037.0
0.0000513 1839.29346 18873.86328 19482.0
0.0000462 1838.72803 20906.73438 21655.0
0.0000415 1838.16260 23157.93750 24105.0
0.0000383 1837.59729 25629.57031 26111.0
0.0000348 1837.03198 28318.93555 28700.0
0.0000318 1836.46655 31219.20117 31437.0
0.0000290 1835.90112 34319.73828 34503.0
0.0000263 1835.33569 37605.03125 37966.0
0.0000243 1834.77026 41051.42578 41195.0
0.0000225 1834.20483 44622.46875 44441.0
0.0000209 1833.63953 48264.41406 47839.0
0.0000196 1833.07410 51904.46875 50955.0
0.0000184 1832.50879 55452.92578 54463.0
0.0000173 1831.94336 58809.26563 57953.0
0.0000163 1831.37793 61869.85938 61288.0
0.0000157 1830.81250 64533.53906 63674.0
0.0000152 1830.24719 66703.53125 65944.0
0.0000148 1829.68176 68288.10938 67773.0
0.0000145 1829.11633 69205.00000 68845.0
0.0000144 1828.55090 69392.82031 69400.0
0.0000145 1827.98560 68826.00000 68852.0
0.0000148 1827.42017 67524.61719 67556.0
0.0000152 1826.85474 65551.97656 65856.0
0.0000158 1826.28943 63000.48438 63186.0
0.0000164 1825.72400 59973.39844 60801.0
0.0000174 1825.15857 56572.04688 57341.0
0.0000187 1824.59314 52892.50391 53604.0
0.0000203 1824.02771 49026.76953 49196.0
0.0000218 1823.46240 45068.55469 45932.0
0.0000241 1822.89709 41110.83203 41457.0
0.0000265 1822.33167 37241.05859 37717.0
0.0000298 1821.76624 33534.79297 33546.0
0.0000332 1821.20081 30050.94727 30114.0
0.0000372 1820.63538 26830.14453 26849.0
0.0000422 1820.06995 23895.97852 23697.0
0.0000475 1819.50464 21256.74414 21044.0
0.0000529 1818.93921 18909.82813 18916.0
0.0000606 1818.37390 16845.23242 16492.0
0.0000679 1817.80847 15042.75684 14727.0
0.0000761 1817.24304 13482.55664 13143.0
0.0000831 1816.67761 12137.55664 12037.0
0.0000917 1816.11230 10991.02930 10908.0
0.0001020 1815.54688 10015.35840 9804.0
0.0001085 1814.98145 9187.72461 9213.0
0.0001232 1814.41602 8486.92578 8114.0
0.0001310 1813.85071 7894.44141 7631.0
0.0001401 1813.28528 7384.00732 7138.0
0.0001487 1812.71997 6957.20410 6725.0
0.0001578 1812.15454 6593.52148 6337.0
0.0001665 1811.58911 6282.38037 6007.0
0.0001739 1811.02368 6015.08203 5749.0
0.0001824 1810.45825 5784.59717 5481.0
0.0001944 1809.89282 5585.33984 5143.0
0.0001979 1809.32751 5414.87158 5053.0
0.0002026 1808.76221 5266.09619 4935.0
0.0002077 1808.19678 5138.45068 4814.0
0.0002149 1807.63135 5030.19629 4653.0
0.0002098 1807.06592 4940.18018 4767.0
0.0002238 1806.50049 4867.71631 4469.0
0.0002229 1805.93518 4812.50732 4487.0
0.0002195 1805.36975 4775.50879 4555.0
0.0002204 1804.80432 4755.10107 4537.0
0.0002236 1804.23901 4752.66260 4472.0
0.0002216 1803.67358 4768.77002 4512.0
0.0002206 1803.10815 4804.05811 4533.0
0.0002190 1802.54272 4859.15430 4566.0
0.0002153 1801.97742 4934.58154 4644.0
0.0002158 1801.41199 5030.64355 4634.0
0.0002067 1800.84656 5147.30615 4838.0
0.0002048 1800.28113 5284.06104 4883.0
0.0001925 1799.71582 5439.83203 5195.0
0.0001908 1799.15039 5612.93408 5240.0
0.0001815 1798.58508 5801.15576 5509.0
0.0001757 1798.01965 6001.93066 5693.0
0.0001704 1797.45422 6212.59277 5870.0
0.0001649 1796.88879 6430.53906 6064.0
0.0001546 1796.32336 6653.18555 6468.0
0.0001485 1795.75793 6877.63770 6734.0
0.0001436 1795.19263 7100.14307 6963.0
0.0001440 1794.62732 7315.53857 6944.0
0.0001383 1794.06189 7516.90723 7232.0
0.0001297 1793.49646 7695.70313 7712.0
0.0001303 1792.93103 7842.41650 7676.0
0.0001260 1792.36560 7947.78516 7937.0
0.0001273 1791.80029 8004.25781 7857.0
0.0001243 1791.23486 8007.31006 8045.0
0.0001278 1790.66943 7956.06299 7823.0
0.0001265 1790.10413 7852.99219 7903.0
0.0001279 1789.53870 7702.84766 7818.0
0.0001322 1788.97327 7511.39648 7565.0
0.0001354 1788.40796 7284.50439 7387.0
0.0001391 1787.84253 7027.89111 7188.0
0.0001469 1787.27710 6747.35742 6808.0
0.0001522 1786.71167 6449.14063 6572.0
0.0001597 1786.14624 6140.00732 6261.0
0.0001686 1785.58093 5826.96729 5932.0
0.0001792 1785.01550 5516.74951 5579.0
0.0001916 1784.45020 5215.56494 5219.0
0.0002044 1783.88477 4927.62207 4892.0
0.0002109 1783.31934 4656.69580 4741.0
0.0002248 1782.75391 4405.05811 4449.0
0.0002403 1782.18848 4173.92236 4162.0
0.0002528 1781.62317 3963.64355 3955.0
0.0002679 1781.05774 3773.91553 3733.0
0.0002819 1780.49243 3604.08447 3547.0
0.0002974 1779.82141 3452.62988 3362.0
0.0003026 1778.72803 3318.01025 3305.0
0.0003143 1777.63464 3199.15625 3182.0
0.0003197 1776.54126 3094.51880 3128.0
0.0003369 1775.44775 3002.55420 2968.0
0.0003445 1774.35437 2921.76782 2903.0
0.000363 1773.26099 2850.74829 2757.0
0.000376 1772.16785 2788.19360 2657.0
0.000373 1771.07434 2732.92114 2683.0
0.000376 1769.98096 2683.87793 2658.0
0.000391 1768.88757 2640.13940 2559.0
0.000396 1767.79419 2600.90674 2525.0
0.000407 1766.70081 2565.49536 2456.0
0.000400 1765.60730 2533.44702 2501.0
0.000413 1764.51392 2504.04248 2422.0
0.000427 1763.42078 2476.99707 2340.0
0.000433 1762.32727 2451.97900 2311.0
0.000430 1761.23389 2428.71558 2326.0
0.000437 1760.14050 2406.98413 2290.0
0.000416 1759.04712 2386.59961 2405.0
0.000424 1757.95374 2367.40991 2360.0
0.000435 1756.86023 2349.35059 2301.0
0.000423 1755.76685 2332.19653 2364.0
0.000457 1754.67346 2315.91870 2190.0
0.000457 1753.58032 2300.44067 2190.0
0.000432 1752.48682 2285.69946 2317.0
0.000457 1751.39343 2271.63696 2188.0
0.000461 1750.30005 2258.20361 2170.0
0.000470 1749.20667 2245.35522 2129.0
0.000452 1748.11328 2233.05444 2214.0
0.000460 1747.01978 2221.26245 2173.0
0.000444 1745.92639 2209.95093 2254.0
0.000468 1744.83325 2199.09009 2138.0
0.000463 1743.73975 2188.65210 2158.0
0.000458 1742.64636 2178.61426 2184.0
0.000481 1741.55298 2168.95410 2078.0
0.000459 1740.45959 2159.65234 2181.0
0.000464 1739.36621 2150.68848 2157.0
0.000459 1738.27271 2142.04785 2179.0
0.000463 1737.17932 2120.24268 2158.0
0.000459 1736.08618 2112.31787 2180.0
0.000454 1734.99280 2104.67041 2204.0
0.000452 1733.89929 2097.28833 2210.0
0.000454 1732.80591 2090.15967 2203.0
0.000461 1731.71252 2083.27612 2168.0
0.000471 1730.61914 2077.10522 2125.0
0.000429 1729.52576 2064.00366 2331.0
0.000471 1728.43225 2057.86035 2123.0
0.000442 1727.33887 2051.92749 2262.0
0.000450 1726.24573 2046.19812 2222.0
0.000447 1725.15234 2040.66638 2239.0
0.000475 1724.05884 2035.32690 2107.0
0.000443 1722.96545 2030.17590 2256.0
0.000455 1721.87207 2025.44690 2199.0
0.000453 1720.77869 2020.66187 2207.0
0.000446 1719.68530 2016.05396 2241.0
0.000452 1718.59180 2011.62048 2214.0
0.000440 1717.49866 2007.36035 2272.0
0.000452 1716.40527 2003.27161 2210.0
0.000452 1715.31177 1999.35352 2214.0
0.000454 1714.21838 1995.60596 2204.0
0.000453 1713.12500 1992.02954 2207.0
0.000473 1712.03162 1988.62537 2114.0
0.000468 1710.93823 1985.39490 2137.0
0.000451 1709.84473 1982.34033 2218.0
0.000463 1708.75159 1979.46582 2161.0
0.000464 1707.65820 1976.77429 2155.0
0.000474 1706.56482 1974.27136 2109.0
0.000473 1705.47131 1971.96313 2115.0
0.000486 1704.37793 1969.85645 2056.0
0.000480 1703.28455 1967.96008 2084.0
0.000482 1702.19116 1966.28406 2075.0
0.000482 1701.09778 1964.84094 2076.0
0.000495 1700.00427 1963.64453 2021.0
0.000501 1698.91113 1962.71301 1996.0
0.000519 1697.81775 1962.06860 1926.0
0.000503 1696.72424 1961.73657 1988.0
0.000514 1695.63086 1961.75293 1947.0
0.000512 1694.53748 1962.16101 1955.0
0.000493 1693.44409 1963.01843 2028.0
0.000495 1692.35071 1964.40027 2019.0
0.000508 1691.25720 1966.40515 1968.0
0.000502 1690.16406 1969.16187 1991.0
0.000509 1689.07068 1972.83789 1963.0
0.000505 1687.97729 1977.65149 1981.0
0.000511 1686.88379 1983.88171 1956.0
0.000473 1685.79041 1991.88245 2114.0
0.000481 1684.69702 2002.09875 2079.0
0.000482 1683.60364 2015.08008 2073.0
0.000466 1682.51025 2031.49988 2144.0
0.000459 1681.41699 2052.16943 2179.0
0.000440 1680.32361 2078.05518 2271.0
0.000454 1679.23022 2110.29175 2203.0
0.000453 1678.13672 2150.18823 2209.0
0.000416 1677.04333 2199.23022 2402.0
0.000407 1675.94995 2259.06763 2458.0
0.000387 1674.85657 2331.48364 2582.0
0.000383 1673.76318 2418.34985 2608.0
0.000379 1672.66968 2521.55713 2642.0
0.000353 1671.57654 2642.92944 2829.0
0.0003180 1670.48315 2784.10498 3145.0
0.0003296 1669.38977 2946.38892 3034.0
0.0002950 1668.29626 3130.55273 3390.0
0.0002811 1667.20288 3336.62036 3557.0
0.0002622 1666.10950 3563.67725 3814.0
0.0002464 1665.01611 3809.71362 4059.0
0.0002289 1663.92273 4071.48486 4369.0
0.0002182 1662.82947 4344.37109 4584.0
0.0002079 1661.73608 4622.29248 4811.0
0.0001989 1660.64270 4897.75684 5027.0
0.0001841 1659.54932 5162.03955 5432.0
0.0001770 1658.45581 5405.50781 5651.0
0.0001714 1657.36243 5618.10889 5834.0
0.0001678 1656.26904 5790.08545 5959.0
0.0001670 1655.17566 5912.90381 5989.0
0.0001642 1654.08240 5980.32129 6089.0
0.0001653 1652.98901 5989.33252 6048.0
0.0001651 1651.89563 5940.58496 6057.0
0.0001674 1650.80225 5837.97510 5973.0
0.0001752 1649.70874 5687.59863 5708.0
0.0001828 1648.61536 5496.62891 5470.0
0.0001917 1647.52197 5272.55664 5216.0
0.0002013 1646.42859 5022.90820 4968.0
0.0002146 1645.33521 4755.27930 4660.0
0.0002253 1644.24194 4477.40283 4438.0
0.0002364 1643.14856 4197.00537 4231.0
0.0002503 1642.05518 3921.40552 3995.0
0.0002736 1640.96179 3657.03101 3655.0
0.0002928 1639.86829 3409.06030 3415.0
0.0003191 1638.77490 3181.34937 3134.0
0.0003473 1637.68152 2976.12280 2879.0
0.000353 1636.58813 2794.58521 2836.0
0.000391 1635.49487 2636.79370 2559.0
0.000402 1634.40149 2501.94946 2489.0
0.000433 1633.30811 2388.63135 2312.0
0.000441 1632.21472 2295.00049 2270.0
0.000457 1631.12122 2218.99243 2187.0
0.000474 1630.02783 2158.50195 2111.0
0.000456 1628.93445 2111.34570 2193.0
0.000477 1627.84106 2075.58252 2097.0
0.000486 1626.74780 2049.40723 2059.0
0.000491 1625.65442 2031.20862 2037.0
0.000498 1624.56104 2019.57202 2008.0
0.000514 1623.46765 2013.26074 1944.0
0.000509 1622.37427 2011.18958 1964.0
0.000505 1621.28076 2012.39160 1979.0
0.000488 1620.18738 2015.98914 2048.0
0.000489 1619.09399 2021.16760 2046.0
0.000493 1618.00061 2027.15955 2030.0
0.000496 1616.90735 2033.23877 2018.0
0.000498 1615.81396 2038.72473 2007.0
0.000493 1614.72058 2043.00623 2027.0
0.000469 1613.62720 2045.57703 2133.0
0.000489 1612.53369 2046.08533 2044.0
0.000486 1611.44031 2044.38013 2057.0
0.000478 1610.34692 2040.53064 2091.0
0.000512 1609.25354 2034.79883 1954.0
0.000480 1608.16028 2027.57544 2083.0
0.000494 1607.06689 2019.30957 2024.0
0.000512 1605.97351 2010.46704 1955.0
0.000495 1604.88013 2001.51611 2022.0
0.000471 1603.78674 1992.94568 2125.0
0.000495 1602.69324 1985.28015 2020.0
0.000498 1601.59985 1979.08704 2008.0
0.000509 1600.50647 1974.96484 1963.0
0.000499 1599.41321 1973.51648 2004.0
0.000492 1598.31982 1975.33276 2034.0
0.000506 1597.22644 1980.98914 1978.0
0.000504 1596.13306 1991.04968 1985.0
0.000469 1595.03967 2006.08057 2133.0
0.000490 1593.94617 2026.65649 2042.0
0.000478 1592.85278 2053.37085 2092.0
0.000462 1591.75940 2086.82837 2164.0
0.000470 1590.66602 2127.64819 2129.0
0.000471 1589.57275 2176.44189 2124.0
0.000446 1588.47937 2233.80835 2240.0
0.000442 1587.38599 2300.30176 2263.0
0.000428 1586.29260 2376.40479 2337.0
0.000403 1585.19922 2462.46606 2480.0
0.000417 1584.10571 2558.63184 2396.0
0.000373 1583.01233 2664.76782 2683.0
0.000382 1581.91895 2780.39038 2619.0
0.0003493 1580.82581 2904.62012 2863.0
0.0003487 1579.73230 3036.15698 2868.0
0.0003249 1578.63892 3173.27100 3078.0
0.0003033 1577.54553 3313.82959 3297.0
0.0003019 1576.45215 3455.39575 3312.0
0.0002932 1575.35876 3595.40771 3411.0
0.0002786 1574.26526 3731.37646 3590.0
0.0002729 1573.17188 3861.02271 3664.0
0.0002612 1572.07874 3982.25049 3829.0
0.0002458 1570.98523 4092.94971 4069.0
0.0002501 1569.89185 4190.70703 3998.0
0.0002395 1568.79846 4272.58203 4175.0
0.0002374 1567.70508 4335.13525 4212.0
0.0002286 1566.61169 4374.83545 4374.0
0.0002272 1565.51819 4388.76563 4401.0
0.0002249 1564.42480 4375.37695 4447.0
0.0002315 1563.33142 4334.95850 4320.0
0.0002348 1562.23828 4269.56641 4259.0
0.0002262 1561.14478 4182.46777 4421.0
0.0002395 1560.05139 4077.36597 4175.0
0.0002468 1558.95801 3957.75635 4052.0
0.0002554 1557.86462 3825.00513 3916.0
0.0002618 1556.77112 3685.05566 3819.0
0.0002719 1555.67773 3538.77783 3678.0
0.0002835 1554.58435 3388.84473 3527.0
0.0003021 1553.49121 3238.11377 3310.0
0.0003184 1552.39771 3089.47021 3141.0
0.0003252 1551.30432 2945.58154 3075.0
0.000354 1550.21094 2765.95581 2824.0
0.000361 1549.11755 2637.98486 2768.0
0.000378 1548.02417 2519.74902 2643.0
0.000392 1546.93066 2411.81836 2550.0
0.000401 1545.83728 2314.32959 2491.0
0.000437 1544.74414 2227.08936 2288.0
0.000444 1543.65063 2149.66064 2250.0
0.000455 1542.55725 2081.43970 2196.0
0.000491 1541.46387 2021.71545 2038.0
0.000497 1540.37048 1969.71741 2013.0
0.000504 1539.27710 1924.65417 1983.0
0.000511 1538.18359 1885.73975 1958.0
0.000568 1537.09021 1852.21912 1760.0
0.000539 1535.99683 1823.38208 1857.0
0.000544 1534.90369 1798.57495 1837.0
0.000559 1533.81018 1777.20728 1788.0
0.000573 1532.71680 1759.61719 1744.0
0.000558 1531.62341 1743.63501 1793.0
0.000601 1530.53003 1729.71887 1663.0
0.000569 1529.43665 1717.53650 1759.0
0.000573 1528.34314 1706.80933 1746.0
0.000587 1527.24976 1697.30823 1704.0
0.000605 1526.15662 1688.84607 1654.0
0.000595 1525.06311 1681.27246 1681.0
0.000618 1523.96973 1674.89612 1617.0
0.000590 1522.87634 1668.77222 1696.0
0.000585 1521.78296 1663.25220 1708.0
0.000597 1520.68958 1658.28247 1674.0
0.000611 1519.59607 1653.82556 1637.0
0.000608 1518.50269 1649.85791 1646.0
0.000615 1517.40955 1646.36938 1625.0
0.000627 1516.31616 1643.36145 1596.0
0.000601 1515.22266 1637.20837 1663.0
0.000627 1514.12927 1635.24829 1594.0
0.000599 1513.03589 1633.85547 1670.0
0.000606 1511.94250 1633.08813 1651.0
0.000610 1510.84912 1633.02319 1639.0
0.000613 1509.75562 1633.75684 1630.0
0.000599 1508.66223 1635.40637 1669.0
0.000628 1507.56909 1636.24451 1593.0
0.000609 1506.47559 1640.18518 1642.0
0.000609 1505.38220 1645.53638 1642.0
0.000616 1504.28882 1652.51111 1624.0
0.000607 1503.19543 1661.34473 1647.0
0.000595 1502.10205 1672.29028 1682.0
0.000597 1501.00854 1685.61121 1676.0
0.000582 1499.91516 1701.57031 1717.0
0.000588 1498.82202 1720.41650 1701.0
0.000565 1497.72864 1742.36414 1770.0
0.000561 1496.63513 1767.57410 1782.0
0.000543 1495.54175 1796.13367 1840.0
0.000559 1494.44836 1828.04138 1788.0
0.000562 1493.35498 1863.19788 1780.0
0.000518 1492.26160 1901.40491 1931.0
0.000519 1491.16809 1942.35876 1925.0
0.000521 1490.07495 1985.63135 1919.0
0.000508 1488.98157 2030.62476 1968.0
0.000485 1487.88818 2076.52563 2062.0
0.000478 1486.79468 2122.26953 2093.0
0.000460 1485.70129 2166.55762 2174.0
0.000463 1484.60791 2207.92749 2159.0
0.000445 1483.51453 2244.86572 2248.0
0.000450 1482.42114 2275.92188 2220.0
0.000447 1481.32764 2299.80029 2237.0
0.000442 1480.23450 2315.44043 2262.0
0.000433 1479.14111 2322.10645 2312.0
0.000431 1478.04761 2319.49487 2321.0
0.000450 1476.95422 2307.79614 2220.0
0.000453 1475.86084 2287.66650 2208.0
0.000439 1474.76746 2260.09204 2277.0
0.000447 1473.67407 2226.21191 2238.0
0.000456 1472.58057 2187.16846 2191.0
0.000456 1471.48743 2144.03394 2193.0
0.000468 1470.79785 2098.22729 2137.0
0.000501 1470.79175 2051.04126 1995.0
0.000522 1470.78577 2002.84229 1915.0
0.000535 1470.77966 1954.70398 1869.0
0.000540 1470.77356 1907.65405 1852.0
0.000553 1470.76758 1862.59241 1807.0
0.000568 1470.76147 1820.22754 1760.0
0.000556 1470.75549 1781.05457 1797.0
0.000572 1470.74939 1745.36353 1747.0
0.000577 1470.74341 1713.26965 1733.0
0.000592 1470.73730 1684.74719 1690.0
0.000637 1470.73132 1659.66541 1571.0
0.000629 1470.72522 1637.81763 1590.0
0.000648 1470.71924 1618.94897 1543.0
0.000633 1470.71313 1602.77429 1580.0
0.000641 1470.70715 1588.99707 1559.0
0.000640 1470.70105 1577.32129 1563.0
0.000614 1470.69507 1567.46155 1629.0
0.000630 1470.68896 1561.22620 1587.0
0.000663 1470.68298 1554.24353 1509.0
0.000649 1470.67688 1548.35303 1541.0
0.000629 1470.67078 1543.36633 1591.0
0.000661 1470.66479 1539.12305 1513.0
0.000665 1470.65869 1535.48694 1504.0
0.000650 1470.65271 1532.34631 1538.0
0.000661 1470.64661 1529.60986 1513.0
0.000657 1470.64063 1528.23169 1521.0
0.000655 1470.63452 1526.10742 1527.0
0.000664 1470.62854 1524.20947 1507.0
0.000662 1470.62244 1522.50122 1511.0
0.000670 1470.61646 1520.53784 1493.0
0.000642 1470.61035 1519.13464 1557.0
0.000661 1470.60437 1517.85388 1514.0
0.000638 1470.59827 1516.68030 1568.0
0.000662 1470.59229 1515.60327 1511.0
0.000635 1470.58618 1514.61353 1574.0
0.000653 1470.58008 1513.70337 1532.0
0.000638 1470.57410 1512.65869 1567.0
0.000667 1470.56799 1511.89209 1500.0
0.000660 1470.56201 1511.18958 1515.0
0.000661 1470.55591 1510.54602 1513.0
0.000624 1470.54993 1509.95874 1603.0
0.000689 1470.54382 1509.42407 1451.0
0.000670 1470.53784 1508.94043 1492.0
0.000672 1470.53174 1508.50427 1487.0
0.000646 1470.52576 1508.11462 1549.0
0.000684 1470.51965 1507.76965 1461.0
0.000659 1470.51367 1507.46777 1517.0
0.000688 1470.50757 1507.20715 1453.0
0.000658 1470.50159 1506.98865 1519.0
0.000661 1470.49548 1506.80957 1513.0
0.000686 1470.48938 1506.67053 1458.0
0.000677 1470.48340 1506.57092 1478.0
0.000644 1470.47729 1506.51038 1554.0
0.000697 1470.47131 1506.48950 1434.0
0.000681 1470.46521 1506.50867 1468.0
0.000681 1470.45923 1506.56799 1469.0
0.000702 1470.45313 1506.66809 1425.0
0.000700 1470.44714 1506.81030 1428.0
0.000677 1470.44104 1506.99561 1477.0
0.000649 1470.43506 1507.22571 1540.0
0.000675 1470.42896 1507.50220 1482.0
0.000684 1470.42297 1507.82703 1463.0
0.000674 1470.41687 1508.20239 1484.0
0.000673 1470.41089 1508.63159 1485.0
0.000644 1470.40479 1509.11755 1554.0
0.000676 1470.39880 1509.66394 1479.0
0.000660 1470.39270 1510.27490 1516.0
0.000720 1470.38660 1510.95605 1389.0
0.000664 1470.38062 1511.71313 1507.0
0.000668 1470.37451 1512.55359 1498.0
0.000698 1470.36853 1513.48730 1433.0
0.000682 1470.36243 1514.52441 1467.0
0.000695 1470.35645 1515.68005 1438.0
0.000678 1470.35034 1516.97266 1476.0
0.000646 1470.34436 1519.98145 1549.0
0.000707 1470.33826 1521.64221 1414.0
0.000663 1470.33228 1523.53442 1509.0
0.000669 1470.32617 1525.71008 1494.0
0.000684 1470.32019 1528.23547 1463.0
0.000689 1470.31409 1531.19580 1451.0
0.000658 1470.30811 1534.69922 1520.0
0.000668 1470.30200 1538.88159 1496.0
0.000662 1470.29590 1544.35327 1511.0
0.000637 1470.28992 1550.77527 1570.0
0.000623 1470.28381 1558.17493 1604.0
0.000654 1470.27783 1567.17883 1530.0
0.000624 1470.27173 1578.13879 1603.0
0.000601 1470.26575 1591.45996 1663.0
0.000618 1470.25964 1607.59924 1619.0
0.000606 1470.25366 1627.06091 1651.0
0.000589 1470.24756 1650.38501 1699.0
0.000580 1470.24158 1678.12720 1724.0
0.000561 1470.23547 1710.83203 1782.0
0.000544 1470.22949 1748.99878 1839.0
0.000566 1470.22339 1793.03711 1767.0
0.000488 1470.21741 1843.22668 2051.0
0.000490 1470.21130 1899.67432 2040.0
0.000487 1470.20520 1962.27490 2055.0
0.000476 1470.19922 2030.66956 2102.0
0.000451 1470.19312 2104.18970 2216.0
0.000436 1470.18713 2181.80078 2293.0
0.000440 1470.18103 2262.07251 2275.0
0.000406 1470.17505 2343.18774 2462.0
0.000389 1470.16895 2423.00049 2569.0
0.000386 1470.16296 2499.11353 2594.0
0.000365 1470.15686 2568.94775 2736.0
0.000358 1470.15088 2629.84009 2794.0
0.0003494 1470.14478 2679.19800 2862.0
0.0003465 1470.13879 2714.76099 2886.0
0.0003397 1470.13269 2734.90015 2944.0
0.0003452 1470.12671 2738.88892 2897.0
0.0003414 1470.12061 2727.01611 2929.0
0.0003407 1470.11462 2700.48486 2935.0
0.000364 1470.10852 2661.10718 2750.0
0.000378 1470.10242 2610.92261 2644.0
0.000380 1470.09644 2551.91675 2632.0
0.000386 1470.09033 2485.91748 2589.0
0.000395 1470.08435 2414.64258 2530.0
0.000419 1470.07825 2339.81641 2386.0
0.000457 1470.07227 2263.24170 2187.0
0.000461 1470.06616 2186.78491 2169.0
0.000478 1470.06018 2112.26733 2091.0
0.000509 1470.05408 2041.31262 1964.0
0.000512 1470.04810 1975.22778 1952.0
0.000505 1470.04199 1914.94397 1980.0
0.000580 1470.03601 1861.02722 1723.0
0.000596 1470.02991 1813.72205 1678.0
0.000580 1470.02393 1773.01221 1724.0
0.000596 1470.01782 1738.68164 1679.0
0.000622 1470.01172 1710.36438 1607.0
0.000614 1470.00574 1687.59277 1629.0
0.000635 1469.99963 1669.83179 1576.0
0.000622 1469.99365 1656.51318 1608.0
0.000666 1469.98755 1647.05603 1502.0
0.000635 1469.98157 1640.89050 1576.0
0.000642 1469.97546 1637.47021 1557.0
0.000685 1469.96948 1636.28589 1459.0
0.000658 1469.96338 1636.87012 1519.0
0.000644 1469.95740 1638.80579 1553.0
0.000668 1469.95129 1641.72180 1498.0
0.000668 1469.94531 1645.28796 1497.0
0.000651 1469.93921 1649.20337 1536.0
0.000648 1469.93323 1653.18066 1544.0
0.000643 1469.92712 1656.93884 1556.0
0.000641 1469.92102 1660.19910 1561.0
0.000684 1469.91504 1662.70178 1462.0
0.000655 1469.90894 1664.22668 1527.0
0.000659 1469.90295 1664.62244 1517.0
0.000645 1469.89685 1663.82336 1550.0
0.000657 1469.89087 1661.84839 1521.0
0.000641 1469.88477 1658.78711 1561.0
0.000638 1469.87878 1654.76538 1568.0
0.000635 1469.87268 1649.92041 1575.0
0.000645 1469.86670 1644.37964 1551.0
0.000680 1469.86060 1638.25854 1471.0
0.000668 1469.85461 1631.66614 1498.0
0.000657 1469.84851 1624.71606 1521.0
0.000678 1469.84253 1617.53418 1476.0
0.000651 1469.83643 1610.25720 1535.0
0.000675 1469.83044 1603.02576 1481.0
0.000667 1469.82434 1596.55200 1500.0
0.000662 1469.81824 1589.80249 1511.0
0.000660 1469.81226 1583.44153 1515.0
0.000672 1469.80615 1577.53809 1488.0
0.000677 1469.80017 1573.59888 1477.0
0.000623 1469.79407 1568.73938 1605.0
0.000649 1469.78809 1564.41565 1540.0
0.000681 1469.78198 1560.62183 1468.0
0.000674 1469.77600 1557.62878 1483.0
0.000658 1469.76990 1554.84729 1519.0
0.000665 1469.76392 1552.53418 1503.0
0.000668 1469.75781 1550.65979 1496.0
0.000641 1469.75183 1549.19434 1559.0
0.000684 1469.74573 1548.83801 1463.0
0.000672 1469.73975 1548.11292 1489.0
0.000649 1469.73364 1546.32568 1540.0
0.000655 1469.72754 1546.24304 1526.0
0.000644 1469.72156 1546.44849 1553.0
0.000657 1469.71545 1546.92847 1523.0
0.000647 1469.70947 1547.67737 1545.0
0.000633 1469.70337 1548.69592 1580.0
0.000639 1469.69739 1549.99585 1566.0
0.000629 1469.69128 1550.03027 1590.0
0.000637 1469.68530 1551.98486 1570.0
0.000625 1469.67920 1554.33545 1601.0
0.000644 1469.67322 1557.15991 1554.0
0.000612 1469.66711 1560.56360 1634.0
0.000664 1469.66113 1564.68762 1505.0
0.000629 1469.65503 1569.71252 1590.0
0.000649 1469.64905 1575.86804 1542.0
0.000625 1469.64294 1583.43787 1601.0
0.000596 1469.63684 1592.76917 1678.0
0.000594 1469.63086 1604.27612 1683.0
0.000581 1469.62476 1618.44250 1722.0
0.000597 1469.61877 1635.82019 1676.0
0.000605 1469.61267 1657.02014 1652.0
0.000575 1469.60669 1682.69897 1738.0
0.000582 1469.60059 1713.52881 1719.0
0.000546 1469.59460 1750.16345 1832.0
0.000509 1469.58850 1793.18762 1965.0
0.000544 1469.58252 1843.05811 1837.0
0.000508 1469.57642 1900.04138 1968.0
0.000496 1469.57043 1964.14099 2017.0
0.000478 1469.56433 2035.03418 2090.0
0.000465 1469.55835 2112.01563 2151.0
0.000455 1469.55225 2193.95947 2200.0
0.000432 1469.54626 2279.30884 2314.0
0.000425 1469.54016 2366.08545 2353.0
0.000394 1469.53406 2451.94458 2535.0
0.000389 1469.52808 2534.25513 2571.0
0.000368 1469.52197 2610.22266 2718.0
0.000376 1469.51599 2677.06274 2663.0
0.000355 1469.50989 2732.21875 2815.0
0.0003498 1469.50391 2773.64258 2859.0
0.000355 1469.49780 2800.08496 2819.0
0.0003413 1469.49182 2811.32690 2930.0
0.0003454 1469.48572 2808.22803 2895.0
0.0003464 1469.47974 2792.55591 2887.0
0.0003467 1469.47363 2766.18408 2884.0
0.000357 1469.46765 2732.64478 2804.0
0.000357 1469.46155 2694.05273 2803.0
0.000366 1469.45557 2652.92847 2734.0
0.000362 1469.44946 2611.76416 2763.0
0.000383 1469.44336 2573.10962 2609.0
0.000369 1469.43738 2539.61987 2707.0
0.000374 1469.43127 2513.78296 2674.0
0.000369 1469.42529 2498.74023 2711.0
0.000373 1469.41919 2496.69189 2683.0
0.000368 1469.41321 2509.71558 2718.0
0.000374 1469.40710 2539.43018 2675.0
0.000375 1469.40112 2586.94971 2669.0
0.000368 1469.39502 2652.85327 2716.0
0.0003429 1469.38904 2737.16064 2916.0
0.0003319 1469.38293 2839.32349 3013.0
0.0003235 1469.37695 2958.23193 3091.0
0.0003002 1469.37085 3092.23511 3331.0
0.0002966 1469.36487 3239.17090 3372.0
0.0002883 1469.35876 3396.36646 3469.0
0.0002636 1469.35278 3560.59985 3793.0
0.0002581 1469.34668 3728.03003 3874.0
0.0002472 1469.34058 3894.15430 4046.0
0.0002375 1469.33459 4053.87329 4210.0
0.0002309 1469.32849 4201.69629 4331.0
0.0002260 1469.32251 4333.15430 4424.0
0.0002162 1469.31641 4440.97949 4626.0
0.0002069 1469.31042 4521.86133 4833.0
0.0002045 1469.30432 4572.62402 4890.0
0.0002062 1469.29834 4591.60205 4850.0
0.0002056 1469.29224 4578.78906 4863.0
0.0002103 1469.28625 4535.73926 4755.0
0.0002162 1469.28015 4465.18164 4626.0
0.0002153 1469.27417 4370.49268 4644.0
0.0002291 1469.26807 4255.74414 4365.0
0.0002243 1469.26208 4123.28760 4459.0
0.0002428 1469.25598 3976.84033 4118.0
0.0002545 1469.24988 3819.49268 3929.0
0.0002610 1469.24390 3654.39844 3832.0
0.0002807 1469.23779 3484.88745 3563.0
0.0002914 1469.23181 3314.46411 3432.0
0.0003104 1469.22571 3146.44360 3222.0
0.0003383 1469.21973 2983.95850 2956.0
0.0003429 1469.21362 2829.56958 2916.0
0.000377 1469.20764 2685.20215 2652.0
0.000368 1469.20154 2552.13379 2717.0
0.000398 1469.19556 2431.05762 2514.0
0.000422 1469.18945 2322.18286 2370.0
0.000453 1469.18347 2225.33740 2206.0
0.000472 1469.17737 2140.08936 2118.0
0.000511 1469.17139 2065.74512 1956.0
0.000480 1469.16528 2001.54749 2082.0
0.000506 1469.15930 1946.65454 1975.0
0.000517 1469.15320 1900.20593 1936.0
0.000539 1469.14709 1861.36755 1857.0
0.000548 1469.14111 1829.36108 1824.0
0.000559 1469.13501 1803.49402 1788.0
0.000567 1469.12903 1783.17737 1763.0
0.000580 1469.12292 1767.93933 1724.0
0.000593 1469.11694 1757.43347 1685.0
0.000589 1469.11084 1751.43860 1697.0
0.000585 1469.10486 1749.85376 1710.0
0.000555 1469.09875 1752.68726 1801.0
0.000574 1469.09277 1760.03613 1742.0
0.000590 1468.51880 1771.49329 1696.0
0.000567 1467.46704 1787.33923 1763.0
0.000568 1466.41492 1808.23352 1760.0
0.000559 1465.36316 1834.30322 1788.0
0.000541 1464.31152 1865.57446 1848.0
0.000535 1463.25940 1901.92603 1870.0
0.000514 1462.20764 1943.04871 1946.0
0.000470 1461.15552 1988.40454 2128.0
0.000484 1460.10376 2037.20740 2066.0
0.000453 1459.05164 2088.41040 2208.0
0.000466 1457.99988 2140.71558 2148.0
0.000445 1456.94775 2192.59814 2245.0
0.000421 1455.89600 2242.34790 2375.0
0.000413 1454.84424 2288.13940 2419.0
0.000407 1453.79211 2328.12646 2458.0
0.000380 1452.74048 2360.57666 2635.0
0.000387 1451.68823 2384.03711 2581.0
0.000399 1450.63660 2397.52319 2509.0
0.000381 1449.58447 2400.66870 2626.0
0.000378 1448.53271 2393.77637 2648.0
0.000394 1447.48096 2377.72754 2539.0
0.000408 1446.42883 2353.77539 2448.0
0.000407 1445.37708 2323.31763 2458.0
0.000409 1444.32495 2287.73242 2446.0
0.000450 1443.27319 2248.30786 2221.0
0.000449 1442.22107 2206.26172 2229.0
0.000460 1441.16931 2162.80664 2172.0
0.000465 1440.11719 2119.21167 2149.0
0.000477 1439.06543 2076.81152 2098.0
0.000484 1438.01379 2036.95959 2067.0
0.000491 1436.96167 2000.94019 2037.0
0.000510 1435.90991 1969.89038 1960.0
0.000513 1434.85779 1944.75110 1949.0
0.000542 1433.80603 1926.25940 1844.0
0.000543 1432.75391 1914.97400 1843.0
0.000529 1431.70215 1911.24768 1889.0
0.000533 1430.65002 1915.32886 1875.0
0.000528 1429.59827 1927.32800 1895.0
0.000538 1428.54651 1947.24182 1860.0
0.000543 1427.49438 1974.95813 1840.0
0.000518 1426.44263 2010.25964 1929.0
0.000510 1425.39050 2052.81201 1959.0
0.000524 1424.33887 2102.16235 1909.0
0.000500 1423.28674 2157.70166 2001.0
0.000468 1422.23499 2218.70044 2139.0
0.000485 1421.18323 2284.28149 2060.0
0.000459 1420.13110 2353.45752 2177.0
0.000448 1419.07935 2425.16211 2234.0
0.000447 1418.02722 2498.28174 2237.0
0.000436 1416.97546 2571.67749 2294.0
0.000421 1415.92334 2644.15601 2374.0
0.000400 1414.87158 2714.43018 2498.0
0.000385 1413.81946 2781.08154 2600.0
0.000386 1412.76770 2842.74316 2594.0
0.000382 1411.71606 2897.70752 2621.0
0.000374 1410.66394 2944.97900 2677.0
0.000360 1409.61218 2984.04785 2778.0
0.000358 1408.56006 3015.23047 2797.0
0.000355 1407.50830 3039.73291 2819.0
0.0003470 1406.45618 3059.49121 2882.0
0.000351 1405.40442 3076.86890 2847.0
0.0003490 1404.35229 3094.31567 2865.0
0.0003392 1403.30054 3114.10449 2948.0
0.0003411 1402.24878 3138.24609 2932.0
0.0003393 1401.19666 3168.19971 2947.0
0.0003359 1400.14490 3205.30737 2977.0
0.0003198 1399.09277 3250.55273 3127.0
0.0003207 1398.04114 3304.61084 3118.0
0.0003097 1396.98889 3367.76489 3229.0
0.0003033 1395.93726 3439.79517 3297.0
0.0002966 1394.88550 3519.84375 3372.0
0.0002927 1393.83337 3606.28809 3416.0
0.0002792 1392.78162 3696.63159 3582.0
0.0002731 1391.72949 3787.47632 3661.0
0.0002580 1390.67773 3874.64111 3876.0
0.0002493 1389.62561 3953.43164 4011.0
0.0002466 1388.57385 4019.05298 4055.0
0.0002483 1387.52173 4067.04663 4027.0
0.0002482 1386.46997 4093.73413 4029.0
0.0002465 1385.41833 4096.61328 4056.0
0.0002420 1384.36621 4074.65454 4132.0
0.0002428 1383.31445 4028.38647 4119.0
0.0002528 1382.26233 3959.64771 3956.0
0.0002583 1381.21057 3871.10205 3872.0
0.0002664 1380.15845 3765.71167 3754.0
0.0002678 1379.10669 3646.36108 3734.0
0.0002855 1378.05457 3515.70117 3503.0
0.0002964 1377.00281 3376.19263 3374.0
0.0003057 1375.95105 3230.25171 3271.0
0.0003183 1374.89893 3080.42920 3142.0
0.0003317 1373.84717 2929.47339 3015.0
0.0003406 1372.79504 2781.50024 2936.0
0.000370 1371.74341 2636.75903 2702.0
0.000386 1370.69116 2498.90063 2590.0
0.000395 1369.63953 2369.81299 2531.0
0.000427 1368.58777 2250.80200 2343.0
0.000454 1367.53564 2142.61963 2204.0
0.000472 1366.48389 2045.54333 2118.0
0.000503 1365.43176 1959.46106 1987.0
0.000541 1364.38000 1883.96655 1847.0
0.000540 1363.32788 1819.05640 1852.0
0.000582 1362.27612 1762.71277 1719.0
0.000607 1361.22400 1714.68311 1648.0
0.000579 1360.17224 1674.05200 1728.0
0.000627 1359.12061 1639.90063 1596.0
0.000631 1358.06836 1611.33875 1586.0
0.000623 1357.01672 1587.53174 1606.0
0.000647 1355.96460 1567.71680 1545.0
0.000680 1354.91284 1551.21667 1470.0
0.000654 1353.86072 1537.44226 1530.0
0.000666 1352.80896 1525.89417 1502.0
0.000678 1351.75684 1516.15698 1476.0
0.000647 1350.70508 1507.89417 1545.0
0.000691 1349.65332 1502.38000 1448.0
0.000660 1348.60120 1496.32849 1515.0
0.000679 1347.54944 1491.11499 1472.0
0.000695 1346.49731 1486.62244 1439.0
0.000693 1345.44568 1482.76953 1442.0
0.000711 1344.39343 1479.50171 1407.0
0.000682 1343.34180 1476.79102 1467.0
0.000683 1342.29004 1474.62793 1465.0
0.000725 1341.23792 1473.02124 1380.0
0.000693 1340.18616 1472.00085 1443.0
0.000693 1339.13403 1472.37854 1444.0
0.000696 1338.08228 1472.68323 1436.0
0.000700 1337.03015 1473.75928 1428.0
0.000657 1335.97839 1475.70728 1521.0
0.000676 1334.92627 1478.64966 1480.0
0.000693 1333.87451 1482.73193 1442.0
0.000657 1332.82288 1488.12610 1522.0
0.000629 1331.77063 1495.03210 1589.0
0.000641 1330.71899 1503.68262 1561.0
0.000679 1329.66687 1514.34119 1472.0
0.000638 1328.61511 1527.31067 1568.0
0.000613 1327.56299 1542.92847 1630.0
0.000622 1326.51123 1561.57043 1608.0
0.000595 1325.45911 1583.64441 1680.0
0.000578 1324.40735 1609.58398 1729.0
0.000574 1323.35559 1639.84326 1742.0
0.000569 1322.30347 1674.87610 1757.0
0.000534 1321.25171 1715.12256 1871.0
0.000542 1320.19958 1760.97668 1845.0
0.000510 1319.14783 1812.76196 1960.0
0.000498 1318.09570 1870.69055 2009.0
0.000509 1317.04407 1934.83325 1966.0
0.000497 1315.99231 2005.07178 2011.0
0.000466 1314.94019 2081.06226 2146.0
0.000438 1313.88843 2162.20386 2284.0
0.000446 1312.83630 2247.60620 2242.0
0.000413 1311.78455 2336.07397 2421.0
0.000398 1310.73242 2426.07178 2515.0
0.000377 1309.68066 2515.70142 2654.0
0.000364 1308.62854 2602.69043 2747.0
0.000358 1307.57678 2684.44800 2795.0
0.0003396 1306.52515 2758.19482 2945.0
0.0003465 1305.47290 2821.16846 2886.0
0.0003341 1304.42126 2870.86865 2993.0
0.0003280 1303.36914 2905.32666 3049.0
0.0003309 1302.31738 2923.22949 3022.0
0.0003328 1301.26526 2924.23218 3005.0
0.0003405 1300.21350 2908.87793 2937.0
0.0003368 1299.16138 2878.46729 2969.0
0.0003436 1298.10962 2838.21118 2910.0
0.000351 1297.05786 2783.14771 2850.0
0.0003467 1296.00574 2718.42993 2884.0
0.000370 1294.95398 2645.86841 2700.0
0.000365 1293.90186 2566.89111 2736.0
0.000398 1292.85010 2482.92334 2511.0
0.000423 1291.79797 2395.48389 2363.0
0.000422 1290.74634 2306.19116 2367.0
0.000458 1289.69458 2216.75269 2184.0
0.000482 1288.64246 2130.55664 2076.0
0.000490 1287.59070 2045.39050 2042.0
0.000494 1286.53857 1964.87598 2025.0
0.000511 1285.48682 1889.60803 1956.0
0.000521 1284.43469 1820.19971 1921.0
0.000562 1283.38293 1756.98035 1778.0
0.000576 1282.33081 1700.03821 1735.0
0.000601 1281.27905 1649.26733 1664.0
0.000636 1280.22729 1604.41333 1573.0
0.000638 1279.17517 1565.11047 1567.0
0.000657 1278.12354 1530.92090 1522.0
0.000709 1277.07141 1501.36108 1411.0
0.000662 1276.01965 1475.93396 1511.0
0.000692 1274.96753 1454.14441 1445.0
0.000697 1273.91577 1435.52026 1435.0
0.000698 1272.86365 1419.61865 1432.0
0.000737 1271.81189 1406.03662 1356.0
0.000736 1270.76013 1394.41113 1359.0
0.000718 1269.70801 1384.42236 1393.0
0.000749 1268.65625 1375.79565 1335.0
0.000716 1267.60413 1366.23828 1396.0
0.000755 1266.55237 1359.68530 1325.0
0.000725 1265.50024 1353.89709 1379.0
0.000745 1264.44861 1348.74060 1342.0
0.000755 1263.39685 1344.10547 1324.0
0.000815 1262.34473 1339.90271 1227.0
0.000765 1261.29297 1336.06104 1307.0
0.000769 1260.24084 1332.52124 1300.0
0.000790 1259.18909 1329.23865 1266.0
0.000719 1258.13696 1325.15308 1391.0
0.000757 1257.08521 1322.28369 1321.0
0.000765 1256.03308 1319.57568 1308.0
0.000787 1254.98132 1317.00989 1270.0
0.000758 1253.92969 1314.56873 1320.0
0.000805 1252.87744 1312.23816 1242.0
0.000748 1251.82581 1310.00806 1337.0
0.000790 1250.77368 1307.86804 1266.0
0.000788 1249.72192 1305.81055 1269.0
0.000778 1248.66980 1303.82800 1286.0
0.000745 1247.61804 1301.91577 1342.0
0.000779 1246.56592 1300.06763 1284.0
0.000784 1245.51416 1298.28003 1275.0
0.000760 1244.46240 1296.54846 1315.0
0.000761 1243.41028 1294.86975 1314.0
0.000774 1242.35852 1293.24011 1292.0
0.000818 1241.30640 1291.65698 1222.0
0.000736 1240.25476 1290.11853 1358.0
0.000787 1239.20251 1288.62109 1271.0
0.000796 1238.15088 1287.16418 1257.0
0.000765 1237.09912 1285.74438 1308.0
0.000807 1236.04700 1284.36023 1239.0
0.000774 1234.99524 1283.01135 1292.0
0.000773 1233.94312 1281.69434 1293.0
0.000806 1232.89136 1280.40955 1240.0
0.000796 1231.83923 1279.15454 1257.0
0.000775 1230.78748 1277.92932 1290.0
0.000830 1229.73535 1276.73157 1205.0
0.000806 1228.68359 1275.56226 1241.0
0.000801 1227.63196 1274.41882 1249.0
0.000779 1226.57971 1273.30115 1284.0
0.000792 1225.52808 1272.20898 1263.0
0.000780 1224.47595 1271.14075 1282.0
0.000784 1223.42419 1270.09656 1275.0
0.000770 1222.37207 1269.07629 1299.0
0.000771 1221.32031 1268.07971 1297.0
0.000754 1220.26819 1267.10486 1326.0
0.000775 1219.21643 1266.15320 1291.0
0.000771 1218.16467 1265.22388 1297.0
0.000782 1217.11255 1264.31628 1278.0
0.000777 1216.06079 1263.43079 1287.0
0.000766 1215.00867 1262.56677 1305.0
0.000810 1213.95691 1261.72510 1234.0
0.000775 1212.90479 1260.90417 1290.0
0.000775 1211.85315 1260.10596 1290.0
0.000786 1210.80139 1259.32935 1273.0
0.000772 1209.74927 1258.57410 1296.0
0.000779 1208.69751 1257.84167 1284.0
0.000769 1207.64539 1257.13074 1301.0
0.000771 1206.59363 1256.44312 1297.0
0.000794 1205.54150 1255.77759 1260.0
0.000782 1204.48975 1255.13525 1278.0
0.000795 1203.43762 1254.51575 1258.0
0.000811 1202.38586 1253.92065 1233.0
0.000794 1201.33411 1253.34949 1260.0
0.000837 1200.28198 1252.80298 1195.0
0.000842 1199.23035 1252.28186 1187.0
0.000775 1198.17822 1251.78552 1290.0
0.000812 1197.12646 1251.31653 1231.0
0.000786 1196.07434 1250.87329 1273.0
0.000781 1195.02258 1250.45886 1281.0
0.000803 1193.97046 1250.07166 1245.0
0.000801 1192.91870 1249.71448 1249.0
0.000814 1191.86694 1249.38721 1229.0
0.000775 1190.81482 1249.09021 1290.0
0.000791 1189.76306 1248.82556 1264.0
0.000802 1188.71094 1248.59363 1247.0
0.000833 1187.65918 1248.39600 1201.0
0.000767 1186.60706 1248.23340 1303.0
0.000787 1185.55542 1248.10767 1270.0
0.000778 1184.50366 1248.01990 1286.0
0.000812 1183.45154 1247.97095 1231.0
0.000775 1182.39978 1247.96313 1291.0
0.000821 1181.34766 1247.99731 1218.0
0.000763 1180.29590 1248.07568 1311.0
0.000758 1179.24377 1248.19983 1320.0
0.000798 1178.19202 1248.37244 1253.0
0.000790 1177.13989 1248.59424 1266.0
0.000796 1176.08813 1248.86865 1257.0
0.000786 1175.03638 1249.19800 1273.0
0.000808 1173.98425 1249.58411 1238.0
0.000760 1172.93262 1250.02966 1315.0
0.000785 1171.88049 1250.53748 1274.0
0.000750 1171.70276 1251.98535 1333.0
0.000803 1171.87488 1253.85217 1245.0
0.000772 1172.04688 1255.79126 1296.0
0.000791 1172.21887 1257.80579 1264.0
0.000784 1172.39087 1259.90051 1275.0
0.000801 1172.56287 1262.07959 1248.0
0.000772 1172.73486 1264.34729 1295.0
0.000786 1172.90686 1266.70850 1272.0
0.000799 1173.07898 1269.16895 1252.0
0.000772 1173.25098 1271.73389 1296.0
0.000801 1173.42297 1274.40955 1248.0
0.000790 1173.59497 1277.20215 1266.0
0.000767 1173.76697 1280.11877 1303.0
0.000752 1173.93896 1283.16772 1330.0
0.000803 1174.11096 1286.35632 1245.0
0.000778 1174.28296 1289.69409 1286.0
0.000787 1174.45496 1293.19031 1271.0
0.000781 1174.62708 1296.85535 1280.0
0.000779 1174.79907 1300.70081 1283.0
0.000779 1174.97107 1304.73914 1283.0
0.000749 1175.14307 1308.98303 1336.0
0.000740 1175.31506 1313.44788 1352.0
0.000737 1175.48706 1318.15015 1356.0
0.000761 1175.65906 1323.10657 1314.0
0.000723 1175.83118 1328.33752 1383.0
0.000750 1176.00317 1333.86450 1333.0
0.000719 1176.17517 1339.71191 1391.0
0.000723 1176.34717 1345.90698 1384.0
0.000772 1176.51917 1352.48047 1295.0
0.000732 1176.69116 1359.46777 1367.0
0.000739 1176.86316 1366.91064 1353.0
0.000728 1177.03516 1374.85620 1373.0
0.000737 1177.20715 1383.36133 1357.0
0.000736 1177.37927 1392.49438 1359.0
0.000702 1177.55127 1402.33508 1425.0
0.000712 1177.72327 1412.02087 1404.0
0.000718 1177.89526 1423.61230 1393.0
0.000681 1178.06726 1436.28064 1468.0
0.000697 1178.23926 1450.21680 1434.0
0.000659 1178.41125 1465.65369 1517.0
0.000658 1178.58337 1482.87903 1520.0
0.000637 1178.75537 1502.25073 1570.0
0.000657 1178.92737 1524.20984 1523.0
0.000616 1179.09937 1549.29785 1623.0
0.000617 1179.27136 1576.15466 1620.0
0.000585 1179.44336 1609.63818 1708.0
0.000567 1179.61536 1648.67126 1764.0
0.000564 1179.78735 1694.38684 1774.0
0.000541 1179.95935 1749.20410 1847.0
0.000553 1180.13147 1812.51001 1808.0
0.000496 1180.30347 1887.13501 2018.0
0.000481 1180.47546 1975.05347 2080.0
0.000451 1180.64746 2078.43750 2218.0
0.000426 1180.81946 2199.62622 2345.0
0.000400 1180.99146 2341.07617 2500.0
0.000394 1181.16345 2505.28564 2541.0
0.000370 1181.33557 2694.68896 2703.0
0.0003305 1181.50757 2911.52954 3026.0
0.0003168 1181.67957 3158.23242 3157.0
0.0002959 1181.85156 3435.07056 3380.0
0.0002720 1182.02356 3743.17310 3677.0
0.0002499 1182.19556 4082.18335 4001.0
0.0002227 1182.36755 4450.60156 4491.0
0.0002097 1182.53955 4845.64551 4768.0
0.0001893 1182.71155 5263.17285 5282.0
0.0001737 1182.88367 5697.66113 5756.0
0.0001643 1183.05566 6142.21289 6087.0
0.0001518 1183.22766 6588.57178 6586.0
0.0001402 1183.39966 7027.12158 7134.0
0.0001340 1183.57166 7445.90234 7462.0
0.0001235 1183.74365 7835.14014 8096.0
0.0001200 1183.91565 8181.50488 8330.0
0.0001149 1184.08777 8473.31934 8702.0
0.0001123 1184.25977 8700.58203 8907.0
0.0001067 1184.43176 8855.95898 9376.0
0.0001074 1184.60376 8935.45410 9312.0
0.0001079 1184.77576 8938.68750 9264.0
0.0001107 1184.94775 8868.70508 9036.0
0.0001129 1185.11987 8730.71582 8855.0
0.0001158 1185.29175 8533.33008 8632.0
0.0001205 1185.46375 8283.99512 8296.0
0.0001241 1185.63586 7990.52148 8061.0
0.0001332 1185.80786 7660.20117 7509.0
0.0001406 1185.97986 7299.90723 7114.0
0.0001492 1186.15186 6916.37646 6703.0
0.0001620 1186.32385 6516.49170 6173.0
0.0001692 1186.49585 6107.43066 5909.0
0.0001774 1186.66785 5696.60547 5638.0
0.0001923 1186.83997 5292.00146 5201.0
0.0002094 1187.01184 4899.27539 4775.0
0.0002227 1187.18396 4524.97949 4490.0
0.0002516 1187.35596 4173.81836 3975.0
0.0002745 1187.52795 3849.14673 3643.0
0.0002982 1187.69995 3553.02808 3354.0
0.0003135 1187.87207 3286.39648 3190.0
0.0003388 1188.04395 3049.25439 2952.0
0.000386 1188.21594 2840.87524 2592.0
0.000392 1188.38806 2659.97754 2554.0
0.000415 1188.56006 2505.31494 2412.0
0.000433 1188.73206 2374.10400 2308.0
0.000454 1188.90405 2264.69580 2202.0
0.000474 1189.07605 2174.99048 2110.0
0.000488 1189.24805 2102.94824 2051.0
0.000471 1189.42017 2046.66406 2124.0
0.000484 1189.59216 2004.42908 2066.0
0.000491 1189.76404 1974.76526 2035.0
0.000519 1189.93616 1956.44739 1925.0
0.000506 1190.10815 1948.50012 1975.0
0.000508 1190.28015 1950.18701 1969.0
0.000493 1190.45215 1961.04822 2030.0
0.000504 1190.62427 1980.62061 1983.0
0.000489 1190.79614 2008.78076 2045.0
0.000476 1190.96814 2045.45728 2102.0
0.000486 1191.14026 2090.65796 2058.0
0.000457 1191.31226 2144.42627 2188.0
0.000465 1191.48425 2206.79272 2150.0
0.000455 1191.65625 2277.73169 2196.0
0.000438 1191.82825 2357.10425 2281.0
0.000424 1192.00024 2444.60669 2359.0
0.000403 1192.17236 2539.72144 2481.0
0.000394 1192.34436 2641.67212 2539.0
0.000383 1192.51624 2749.39258 2612.0
0.000353 1192.68835 2861.52002 2830.0
0.0003498 1192.86035 2978.95239 2859.0
0.0003444 1193.03235 3094.68701 2904.0
0.0003274 1193.20435 3209.08496 3054.0
0.0003259 1193.37646 3319.78247 3068.0
0.0003092 1193.54834 3424.23193 3234.0
0.0002977 1193.72046 3519.73218 3359.0
0.0002880 1193.89246 3603.50415 3472.0
0.0002803 1194.06445 3672.83521 3567.0
0.0002898 1194.23645 3725.32202 3451.0
0.0002742 1194.40845 3759.15601 3647.0
0.0002856 1194.58044 3774.64136 3501.0
0.0002753 1194.75244 3769.26172 3633.0
0.0002761 1194.92456 3745.17188 3622.0
0.0002907 1195.09656 3703.94604 3440.0
0.0002939 1195.26843 3647.51489 3402.0
0.0003010 1195.44055 3577.85669 3322.0
0.0003012 1195.61255 3496.78687 3320.0
0.0003147 1195.78455 3405.89795 3178.0
0.0003207 1195.95654 3306.61133 3118.0
0.0003409 1196.12866 3200.31519 2933.0
0.0003408 1196.30054 3088.49878 2934.0
0.000351 1196.47266 2972.82080 2848.0
0.000381 1196.64465 2855.09741 2626.0
0.000380 1196.81665 2737.20264 2632.0
0.000425 1196.98865 2620.94165 2352.0
0.000422 1197.16064 2507.93408 2367.0
0.000455 1197.33264 2399.52344 2199.0
0.000458 1197.50464 2296.74463 2184.0
0.000485 1197.67676 2200.32813 2060.0
0.000488 1197.84875 2110.72070 2050.0
0.000498 1198.02075 2028.13428 2007.0
0.000535 1198.19275 1952.58459 1870.0
0.000550 1198.36475 1883.93616 1818.0
0.000551 1198.53674 1821.93774 1814.0
0.000567 1198.70874 1766.25403 1763.0
0.000594 1198.88086 1716.49023 1683.0
0.000629 1199.05273 1672.21533 1589.0
0.000635 1199.22485 1633.77246 1576.0
0.000635 1199.39685 1599.12622 1575.0
0.000642 1199.56885 1568.60840 1558.0
0.000661 1199.74084 1541.78333 1514.0
0.000671 1199.91284 1518.23535 1490.0
0.000688 1200.08484 1497.57703 1454.0
0.000690 1200.25684 1479.45129 1450.0
0.000696 1200.42896 1463.53320 1436.0
0.000733 1200.60095 1449.53101 1365.0
0.000709 1200.77295 1437.18628 1410.0
0.000672 1200.94495 1426.66553 1489.0
0.000694 1201.11694 1416.98975 1441.0
0.000690 1201.28894 1408.37683 1450.0
0.000721 1201.46094 1400.68274 1387.0
0.000769 1201.63293 1393.78394 1300.0
0.000716 1201.80493 1387.57849 1396.0
0.000743 1201.97705 1381.97937 1346.0
0.000748 1202.14905 1376.91418 1337.0
0.000751 1202.32104 1372.32483 1331.0
0.000758 1202.49304 1368.16174 1320.0
0.000744 1202.66504 1364.38379 1344.0
0.000736 1202.83704 1360.95825 1358.0
0.000736 1203.00903 1357.85815 1358.0
0.000744 1203.18115 1355.05969 1344.0
0.000758 1203.35315 1352.54517 1319.0
0.000735 1203.52515 1350.29944 1361.0
0.000750 1203.69714 1348.31055 1334.0
0.000749 1203.86914 1346.56995 1336.0
0.000767 1204.04114 1345.07019 1304.0
0.000755 1204.21313 1343.80786 1324.0
0.000770 1204.38513 1342.78198 1299.0
0.000734 1204.55713 1342.41077 1363.0
0.000772 1204.72925 1341.87134 1296.0
0.000755 1204.90125 1341.58691 1325.0
0.000777 1205.07324 1341.57507 1287.0
0.000734 1205.24524 1341.86292 1363.0
0.000771 1205.41724 1342.48608 1297.0
0.000737 1205.58923 1343.49768 1357.0
0.000740 1205.76123 1344.96790 1351.0
0.000719 1205.93335 1346.99097 1390.0
0.000760 1206.10535 1349.69177 1316.0
0.000745 1206.27734 1353.43726 1342.0
0.000719 1206.44934 1358.01917 1391.0
0.000741 1206.62134 1363.89648 1349.0
0.000709 1206.79333 1371.37830 1411.0
0.000699 1206.96533 1380.83325 1430.0
0.000708 1207.13733 1392.69336 1412.0
0.000689 1207.30933 1407.44702 1451.0
0.000662 1207.48145 1425.63586 1510.0
0.000643 1207.65344 1447.83447 1556.0
0.000646 1207.82544 1474.63501 1548.0
0.000669 1207.99744 1506.61133 1495.0
0.000633 1208.16943 1544.28613 1581.0
0.000619 1208.34143 1588.08716 1616.0
0.000602 1208.51343 1638.30017 1661.0
0.000575 1208.68555 1695.02795 1739.0
0.000538 1208.85742 1758.14929 1859.0
0.000527 1209.02954 1827.29272 1897.0
0.000514 1209.20154 1901.82446 1944.0
0.000494 1209.37354 1980.85535 2024.0
0.000462 1209.54553 2063.26685 2166.0
0.000428 1209.71753 2147.75952 2338.0
0.000434 1209.88953 2232.91650 2302.0
0.000407 1210.06152 2317.28564 2457.0
0.000401 1210.23364 2399.48511 2493.0
0.000370 1210.40564 2478.31836 2705.0
0.000362 1210.57764 2552.91992 2763.0
0.0003434 1210.74963 2622.88940 2912.0
0.0003428 1210.92163 2688.39600 2917.0
0.0003251 1211.09363 2750.18652 3076.0
0.0003399 1211.26563 2809.72705 2942.0
0.0003278 1211.43774 2867.98462 3051.0
0.0003220 1211.60962 2926.65991 3106.0
0.0003135 1211.78174 2986.97192 3190.0
0.0003020 1211.95374 3049.76172 3311.0
0.0003069 1212.12573 3115.44800 3258.0
0.0002992 1212.29773 3184.07104 3342.0
0.0002896 1212.46973 3255.37891 3453.0
0.0002849 1212.64172 3328.93848 3510.0
0.0002771 1212.81372 3404.21729 3609.0
0.0002774 1212.98584 3480.76514 3605.0
0.0002669 1213.15784 3557.78467 3747.0
0.0002634 1213.32983 3634.97241 3796.0
0.0002630 1213.50183 3712.18848 3803.0
0.0002532 1213.67383 3789.77002 3949.0
0.0002509 1213.84583 3868.69751 3985.0
0.0002513 1214.01782 3950.67334 3979.0
0.0002432 1214.18994 4038.02563 4112.0
0.0002376 1214.36182 4133.41064 4208.0
0.0002386 1214.53394 4239.34570 4191.0
0.0002375 1214.70593 4357.69482 4210.0
0.0002226 1214.87793 4489.22998 4493.0
0.0002190 1215.04993 4633.39014 4567.0
0.0002139 1215.22205 4788.20215 4674.0
0.0002053 1215.39392 4950.37598 4870.0
0.0001991 1215.56592 5115.49512 5022.0
0.0001898 1215.73804 5278.26807 5269.0
0.0001837 1215.91003 5432.78271 5445.0
0.0001801 1216.08203 5572.76318 5551.0
0.0001716 1216.25403 5691.83447 5827.0
0.0001680 1216.42603 5783.86279 5952.0
0.0001638 1216.59802 5843.40430 6106.0
0.0001641 1216.77002 5866.29004 6095.0
0.0001649 1216.94214 5850.18018 6066.0
0.0001655 1217.11401 5794.91357 6041.0
0.0001643 1217.28613 5702.46191 6087.0
0.0001741 1217.45813 5576.48193 5744.0
0.0001749 1217.63013 5421.60205 5716.0
0.0001846 1217.80212 5242.71191 5418.0
0.0001959 1217.97424 5044.45166 5104.0
0.0002053 1218.14612 4830.96533 4871.0
0.0002122 1218.31812 4605.92529 4712.0
0.0002244 1218.49023 4372.73291 4457.0
0.0002317 1218.66223 4134.78369 4316.0
0.0002474 1218.83423 3895.69702 4042.0
0.0002509 1219.00623 3659.38062 3986.0
0.0002680 1219.17822 3429.91724 3732.0
0.0002893 1219.35022 3211.33691 3457.0
0.0003006 1219.52234 3007.35205 3327.0
0.0003275 1219.69434 2821.18042 3053.0
0.0003440 1219.86621 2655.43750 2907.0
0.000366 1220.03833 2512.11401 2734.0
0.000385 1220.21033 2392.57251 2596.0
0.000406 1219.85059 2297.03906 2464.0
0.000426 1219.42224 2226.14136 2347.0
0.000441 1218.99377 2179.52515 2268.0
0.000439 1218.56555 2156.19678 2278.0
0.000454 1218.13721 2154.59839 2203.0
0.000440 1217.70886 2172.63623 2275.0
0.000464 1217.28052 2207.71997 2156.0
0.000442 1216.85205 2256.81860 2263.0
0.000425 1216.42383 2316.53271 2354.0
0.000434 1215.99536 2383.18921 2302.0
0.000410 1215.56714 2452.95142 2438.0
0.000388 1215.13867 2521.93750 2578.0
0.000391 1214.71033 2586.37305 2560.0
0.000368 1214.28210 2642.74976 2714.0
0.000375 1213.85364 2688.01489 2667.0
0.000360 1213.42542 2719.78174 2775.0
0.000368 1212.99695 2736.51563 2717.0
0.000359 1212.56860 2737.64355 2789.0
0.000367 1212.14026 2723.52661 2724.0
0.000380 1211.71191 2695.28613 2630.0
0.000382 1211.28345 2654.65991 2620.0
0.000374 1210.85522 2603.17041 2674.0
0.000397 1210.42688 2542.72705 2516.0
0.000402 1209.99854 2474.95752 2488.0
0.000420 1209.57019 2401.31738 2382.0
0.000434 1209.14172 2323.13940 2306.0
0.000445 1208.71350 2241.70239 2246.0
0.000464 1208.28503 2158.31641 2157.0
0.000487 1207.85681 2074.34595 2053.0
0.000502 1207.42847 1991.18994 1992.0
0.000521 1207.00000 1910.26672 1919.0
0.000529 1206.57178 1832.65649 1892.0
0.000536 1206.14331 1759.44153 1867.0
0.000542 1205.71509 1691.40149 1845.0
0.000614 1205.28662 1629.07751 1629.0
0.000631 1204.85828 1572.78186 1586.0
0.000649 1204.42981 1522.62561 1542.0
0.000668 1204.00159 1478.53687 1498.0
0.000692 1203.57336 1440.29224 1446.0
0.000711 1203.14490 1407.54211 1407.0
0.000694 1202.71655 1379.84229 1441.0
0.000746 1202.28809 1356.68567 1341.0
0.000713 1201.85986 1337.53040 1402.0
0.000743 1201.43140 1321.82825 1346.0
0.000768 1201.00317 1309.04932 1302.0
0.000772 1200.57471 1298.69775 1296.0
0.000785 1200.14636 1290.32886 1274.0
0.000799 1199.71814 1283.55237 1251.0
0.000792 1199.28967 1278.03564 1262.0
0.000788 1198.86145 1273.50574 1269.0
0.000777 1198.43298 1269.73926 1287.0
0.000816 1198.00464 1266.56213 1225.0
0.000796 1197.57629 1263.83875 1256.0
0.000804 1197.14795 1261.46716 1244.0
0.000842 1196.71973 1259.37061 1188.0
0.000858 1196.29126 1257.49292 1166.0
0.000802 1195.86292 1255.79480 1247.0
0.000847 1195.43457 1254.24646 1181.0
0.000811 1195.00623 1252.82849 1233.0
0.000765 1194.57776 1251.52612 1307.0
0.000805 1194.14954 1250.33020 1242.0
0.000826 1193.72107 1249.23315 1211.0
0.000864 1193.29285 1248.23193 1158.0
0.000835 1192.86450 1247.32434 1197.0
0.000840 1192.43604 1246.50977 1190.0
0.000841 1192.00781 1245.79358 1189.0
0.000834 1191.57935 1245.17163 1199.0
0.000828 1191.15112 1244.65393 1208.0
0.000779 1190.72266 1244.24841 1284.0
0.000832 1190.29431 1243.96753 1202.0
0.000770 1189.86597 1243.82739 1298.0
0.000838 1189.43762 1243.85120 1194.0
0.000873 1189.00940 1244.06812 1145.0
0.000831 1188.58093 1244.51831 1204.0
0.000812 1188.15259 1245.25195 1231.0
0.000818 1187.72424 1246.33325 1222.0
0.000807 1187.29590 1247.84595 1239.0
0.000839 1186.86743 1249.88708 1192.0
0.000817 1186.43921 1252.58105 1224.0
0.000814 1186.01086 1256.07544 1229.0
0.000793 1185.58252 1260.54370 1261.0
0.000794 1185.15417 1266.18494 1260.0
0.000810 1184.72571 1273.22400 1235.0
0.000807 1184.29749 1281.90918 1239.0
0.000805 1183.86902 1292.50476 1242.0
0.000800 1183.44080 1305.31433 1250.0
0.000763 1183.01233 1320.55176 1311.0
0.000766 1182.58398 1338.50305 1305.0
0.000741 1182.15576 1359.39050 1349.0
0.000720 1181.72729 1383.25305 1388.0
0.000733 1181.29907 1410.45630 1364.0
0.000702 1180.87061 1440.87073 1425.0
0.000710 1180.44226 1474.38403 1409.0
0.000678 1180.01379 1510.75171 1476.0
0.000669 1179.58557 1549.58386 1494.0
0.000644 1179.15710 1590.33813 1552.0
0.000639 1178.72888 1632.34106 1564.0
0.000601 1178.30054 1674.73230 1663.0
0.000599 1177.87207 1715.12573 1669.0
0.000589 1177.44385 1755.34192 1698.0
0.000554 1177.01538 1792.78162 1806.0
0.000537 1176.58716 1826.27222 1862.0
0.000519 1176.15869 1854.69312 1928.0
0.000554 1175.73035 1877.07874 1804.0
0.000548 1175.30212 1892.71448 1825.0
0.000524 1174.87366 1901.22034 1909.0
0.000542 1174.44543 1902.58923 1846.0
0.000515 1174.01697 1897.16199 1941.0
0.000543 1173.58862 1885.54541 1842.0
0.000546 1173.16028 1868.48792 1830.0
0.000541 1172.73193 1846.75903 1847.0
0.000558 1172.30347 1821.06580 1793.0
0.000556 1171.87524 1792.02271 1798.0
0.000562 1171.44690 1761.40979 1779.0
0.000573 1171.01855 1727.23291 1746.0
0.000617 1170.59021 1691.22668 1622.0
0.000597 1170.16174 1653.93201 1676.0
0.000617 1169.73352 1615.94934 1620.0
0.000601 1169.30505 1577.91687 1665.0
0.000651 1168.87683 1540.47473 1535.0
0.000660 1168.44836 1504.21118 1516.0
0.000659 1168.02002 1469.62634 1518.0
0.000702 1167.59180 1437.11377 1425.0
0.000700 1167.16333 1406.94861 1428.0
0.000722 1166.73511 1379.92639 1385.0
0.000745 1166.30664 1354.89014 1343.0
0.000756 1165.87830 1332.45801 1323.0
0.000771 1165.44995 1312.56885 1297.0
0.000791 1165.02161 1295.11365 1265.0
0.000763 1164.59338 1279.94421 1310.0
0.000819 1164.16492 1266.88477 1221.0
0.000801 1163.73657 1255.74304 1249.0
0.000803 1163.30811 1246.31812 1246.0
0.000818 1162.87988 1238.40796 1223.0
0.000850 1162.45142 1231.81677 1177.0
0.000835 1162.02319 1226.36060 1198.0
0.000863 1161.59473 1221.87048 1159.0
0.000816 1161.16638 1218.19739 1225.0
0.000846 1160.73816 1215.21094 1182.0
0.000798 1160.30969 1212.80164 1253.0
0.000851 1159.88147 1210.88110 1175.0
0.000826 1159.45300 1209.38013 1210.0
0.000816 1159.02466 1208.24805 1226.0
0.000835 1158.59631 1207.45142 1197.0
0.000853 1158.16797 1206.97388 1173.0
0.000794 1157.73950 1206.81323 1259.0
0.000829 1157.31128 1206.98169 1206.0
0.000860 1156.88293 1207.50537 1163.0
0.000832 1156.45459 1208.42334 1202.0
0.000820 1156.02625 1208.25073 1220.0
0.000833 1155.59778 1210.13416 1200.0
0.000832 1155.16956 1212.60278 1202.0
0.000805 1154.74109 1215.74194 1242.0
0.000824 1154.31287 1219.64490 1214.0
0.000858 1153.88452 1224.41406 1166.0
0.000842 1153.45605 1230.15308 1187.0
0.000803 1153.02783 1236.96765 1246.0
0.000848 1152.59937 1244.95862 1179.0
0.000856 1152.17114 1251.94824 1168.0
0.000810 1151.74268 1262.56445 1235.0
0.000806 1151.31433 1274.57776 1240.0
0.000806 1150.88599 1288.01367 1241.0
0.000787 1150.45764 1302.85730 1271.0
0.000833 1150.02942 1319.05237 1201.0
0.000784 1149.60095 1336.48669 1276.0
0.000795 1149.17261 1354.99097 1258.0
0.000749 1148.74426 1375.14355 1336.0
0.000745 1148.31592 1395.03333 1343.0
0.000747 1147.88745 1415.11230 1339.0
0.000734 1147.45923 1434.97961 1362.0
0.000735 1147.03076 1454.19434 1361.0
0.000730 1146.60254 1472.28735 1370.0
0.000751 1146.17419 1488.77563 1332.0
0.000733 1145.74573 1503.17285 1365.0
0.000728 1145.31750 1515.02136 1373.0
0.000673 1144.88904 1523.92944 1485.0
0.000701 1144.46082 1529.62268 1426.0
0.000675 1144.03235 1532.38599 1481.0
0.000702 1143.60400 1531.47070 1424.0
0.000735 1143.17578 1527.48132 1360.0
0.000716 1142.74731 1520.72595 1396.0
0.000716 1142.31909 1511.55835 1397.0
0.000715 1141.89063 1500.32532 1398.0
0.000721 1141.46228 1487.33508 1387.0
0.000759 1141.03381 1472.84265 1318.0
0.000702 1140.60559 1457.06226 1425.0
0.000720 1140.17712 1440.18604 1389.0
0.000719 1139.74890 1422.41846 1390.0
0.000745 1139.32056 1403.99475 1342.0
0.000761 1138.89209 1385.18738 1314.0
0.000785 1138.46387 1366.29663 1274.0
0.000787 1138.03540 1347.62451 1270.0
0.000774 1137.60718 1329.45288 1292.0
0.000752 1137.17871 1312.02271 1329.0
0.000796 1136.75037 1295.52576 1256.0
0.000775 1136.32202 1280.10059 1290.0
0.000846 1135.89368 1265.83862 1182.0
0.000845 1135.46545 1252.79163 1183.0
0.000858 1135.03699 1240.97595 1166.0
0.000791 1134.60864 1230.38367 1265.0
0.000770 1134.18030 1220.98767 1298.0
0.000797 1133.75195 1212.74634 1254.0
0.000837 1133.32349 1205.60950 1195.0
0.000833 1132.89526 1199.52173 1201.0
0.000796 1132.46692 1194.42456 1256.0
0.000830 1132.03857 1190.26001 1205.0
0.000827 1131.61023 1186.97205 1209.0
0.000876 1131.18176 1184.50513 1141.0
0.000861 1130.75354 1182.80823 1161.0
0.000822 1130.32507 1181.82947 1216.0
0.000803 1129.89685 1181.51868 1245.0
0.000842 1129.46838 1181.82068 1187.0
0.000865 1129.04004 1182.67944 1156.0
0.000803 1128.61182 1184.03125 1245.0
0.000835 1128.18335 1185.80420 1198.0
0.000831 1127.75513 1187.91821 1204.0
0.000836 1127.32666 1190.28369 1196.0
0.000804 1126.89832 1192.80310 1244.0
0.000893 1126.46997 1195.37146 1120.0
0.000805 1126.04163 1197.88123 1242.0
0.000809 1125.61316 1200.22229 1236.0
0.000823 1125.18494 1202.29211 1215.0
0.000804 1124.75659 1203.99597 1244.0
0.000784 1124.32825 1205.25769 1275.0
0.000767 1123.89990 1206.02332 1303.0
0.000853 1123.47144 1206.26794 1173.0
0.000797 1123.04321 1205.99414 1255.0
0.000766 1122.61475 1205.22876 1306.0
0.000790 1122.18652 1204.01721 1266.0
0.000801 1121.75818 1202.41125 1248.0
0.000774 1121.32971 1200.46497 1292.0
0.000777 1120.90149 1198.23145 1287.0
0.000792 1120.47302 1195.75720 1262.0
0.000801 1120.04480 1193.08606 1248.0
0.000842 1119.61633 1190.26050 1188.0
0.000779 1119.18799 1187.32483 1284.0
0.000813 1118.75964 1184.32336 1230.0
0.000824 1118.33130 1181.30688 1213.0
0.000826 1117.90308 1178.32434 1211.0
0.000809 1117.47461 1175.42395 1236.0
0.000818 1117.04626 1172.65137 1223.0
0.000837 1116.61780 1170.04382 1195.0
0.000897 1116.18958 1167.63550 1115.0
0.000853 1115.76111 1165.45020 1172.0
0.000862 1115.33289 1163.50940 1160.0
0.000840 1114.90442 1161.82666 1190.0
0.000823 1114.47607 1160.41333 1215.0
0.000901 1114.04785 1159.27563 1110.0
0.000839 1113.61938 1158.41687 1192.0
0.000853 1113.19116 1157.83875 1173.0
0.000816 1112.76270 1157.54089 1225.0
0.000794 1112.33435 1157.52527 1259.0
0.000831 1111.90601 1157.79358 1203.0
0.000835 1111.47766 1158.35205 1198.0
0.000826 1111.04944 1159.20972 1210.0
0.000888 1110.62097 1160.38147 1126.0
0.000791 1110.19263 1161.88757 1265.0
0.000833 1109.76428 1163.75232 1200.0
0.000845 1109.33594 1166.00842 1183.0
0.000852 1108.90747 1168.69263 1174.0
0.000819 1108.47925 1171.84644 1221.0
0.000861 1108.05078 1175.51453 1162.0
0.000829 1107.62256 1179.74561 1206.0
0.000812 1107.19421 1184.58789 1232.0
0.000808 1106.76575 1190.08997 1238.0
0.000840 1106.33752 1196.29749 1191.0
0.000813 1105.90906 1203.24963 1230.0
0.000782 1105.48083 1210.97961 1279.0
0.000797 1105.05237 1219.51062 1254.0
0.000784 1104.62402 1228.85205 1275.0
0.000813 1104.19568 1241.90076 1230.0
0.000769 1103.76733 1252.86060 1300.0
0.000755 1103.33911 1264.56738 1325.0
0.000743 1102.91064 1276.96082 1345.0
0.000743 1102.48230 1289.96655 1346.0
0.000766 1102.05396 1303.49243 1306.0
0.000752 1101.62561 1317.43860 1329.0
0.000755 1101.19714 1331.70410 1325.0
0.000714 1100.76892 1346.19788 1400.0
0.000706 1100.34058 1360.84473 1417.0
0.000696 1099.91223 1375.61829 1437.0
0.000665 1099.48389 1391.96667 1504.0
0.000727 1099.08691 1407.15063 1376.0
0.000683 1099.20959 1423.26794 1465.0
0.000681 1099.33228 1440.10461 1469.0
0.000678 1099.45496 1458.09668 1475.0
0.000680 1099.57764 1477.81348 1470.0
0.000655 1099.70020 1499.93054 1526.0
0.000646 1099.82288 1525.20276 1547.0
0.000664 1099.94556 1552.91370 1505.0
0.000644 1100.06824 1586.85803 1554.0
0.000627 1100.19092 1626.24072 1596.0
0.000591 1100.31348 1671.69153 1691.0
0.000614 1100.43616 1723.71667 1628.0
0.000601 1100.55884 1782.66370 1665.0
0.000559 1100.68152 1848.69287 1789.0
0.000559 1100.80408 1921.73999 1788.0
0.000528 1100.92676 2001.48108 1894.0
0.000517 1101.04944 2087.29468 1935.0
0.000498 1101.17212 2177.81519 2010.0
0.000486 1101.29480 2272.57837 2058.0
0.000462 1101.41736 2369.70581 2165.0
0.000442 1101.54004 2466.84204 2265.0
0.000426 1101.66272 2561.89526 2345.0
0.000412 1101.78528 2652.34888 2429.0
0.000404 1101.90796 2735.54321 2477.0
0.000371 1102.03064 2808.82300 2694.0
0.000367 1102.15332 2869.73120 2725.0
0.000375 1102.27600 2916.23706 2666.0
0.000370 1102.39868 2946.98364 2703.0
0.000368 1102.52124 2961.32544 2721.0
0.000371 1102.64392 2959.52319 2698.0
0.000369 1102.76660 2942.53516 2712.0
0.000381 1102.88916 2911.82593 2626.0
0.000384 1103.01184 2869.88232 2601.0
0.000373 1103.13452 2816.81177 2680.0
0.000390 1103.25720 2754.90820 2562.0
0.000412 1103.37988 2685.44800 2428.0
0.000416 1103.50256 2609.51221 2401.0
0.000430 1103.62512 2528.08130 2324.0
0.000426 1103.74780 2442.15088 2349.0
0.000457 1103.87048 2352.94751 2189.0
0.000478 1103.99316 2261.49854 2094.0
0.000492 1104.11584 2169.31006 2034.0
0.000492 1104.23840 2077.82202 2033.0
0.000509 1104.36108 1988.41467 1964.0
0.000539 1104.48376 1902.70850 1854.0
0.000554 1104.60645 1820.92578 1804.0
0.000592 1104.72900 1744.22266 1688.0
0.000608 1104.85168 1673.12463 1646.0
0.000611 1104.97437 1607.94104 1637.0
0.000643 1105.09705 1548.79468 1556.0
0.000658 1105.21973 1495.65405 1520.0
0.000678 1105.34229 1448.36121 1476.0
0.000711 1105.46497 1406.65723 1407.0
0.000738 1105.58765 1370.20703 1355.0
0.000710 1105.71033 1338.61890 1409.0
0.000787 1105.83289 1311.46362 1270.0
0.000779 1105.95557 1288.29468 1283.0
0.000753 1106.07825 1268.66016 1328.0
0.000776 1106.20093 1252.11975 1289.0
0.000807 1106.32361 1238.25330 1239.0
0.000796 1106.44617 1226.67090 1256.0
0.000791 1106.56885 1217.01697 1265.0
0.000784 1106.69153 1208.97449 1275.0
0.000796 1106.81421 1202.26660 1256.0
0.000847 1106.93677 1196.65552 1181.0
0.000775 1107.05945 1191.93945 1290.0
0.000773 1107.18213 1187.95203 1294.0
0.000821 1107.30481 1184.55554 1218.0
0.000781 1107.42749 1181.63831 1280.0
0.000789 1107.55005 1179.11230 1267.0
0.000833 1107.67273 1177.97754 1200.0
0.000874 1107.79541 1176.04834 1144.0
0.000822 1107.91809 1174.34155 1216.0
0.000808 1108.04077 1172.82312 1237.0
0.000808 1108.16333 1171.46643 1238.0
0.000800 1108.28601 1170.25098 1250.0
0.000831 1108.40869 1169.16028 1204.0
0.000854 1108.53137 1168.18237 1171.0
0.000818 1108.65393 1167.30469 1222.0
0.000838 1108.77661 1166.52014 1193.0
0.000787 1108.89929 1165.82092 1270.0
0.000823 1109.02197 1165.20093 1215.0
0.000824 1109.14465 1165.18872 1214.0
0.000853 1109.26721 1164.71802 1173.0
0.000831 1109.38989 1164.31189 1204.0
0.000835 1109.51257 1163.96765 1198.0
0.000880 1109.63525 1163.68323 1136.0
0.000880 1109.75781 1163.45386 1136.0
0.000880 1109.88049 1163.27795 1136.0
0.000808 1110.00317 1163.15344 1237.0
0.000839 1110.12585 1163.18811 1192.0
0.000819 1110.24854 1163.16101 1221.0
0.000840 1110.37109 1163.23108 1190.0
0.000839 1110.49377 1163.29456 1192.0
0.000857 1110.61646 1163.40100 1167.0
0.000867 1110.73914 1163.54968 1154.0
0.000826 1110.86169 1163.73999 1210.0
0.000814 1110.98438 1163.97119 1229.0
0.000820 1111.10706 1164.24158 1219.0
0.000829 1111.22974 1164.55164 1207.0
0.000881 1111.35242 1164.90149 1135.0
0.000776 1111.47498 1165.28992 1288.0
0.000817 1111.59766 1165.77161 1224.0
0.000811 1111.72034 1166.23804 1233.0
0.000866 1111.84302 1166.76843 1155.0
0.000839 1111.96558 1167.31274 1192.0
0.000802 1112.08826 1167.89636 1247.0
0.000868 1112.21094 1168.51978 1152.0
0.000835 1112.33362 1169.18323 1197.0
0.000781 1112.45630 1169.88806 1280.0
0.000887 1112.57886 1170.63403 1127.0
0.000831 1112.70154 1171.42334 1204.0
0.000866 1112.82422 1172.25598 1155.0
0.000826 1112.94690 1173.13330 1211.0
0.000821 1113.06958 1174.05664 1218.0
0.000786 1113.19214 1175.02710 1272.0
0.000835 1113.31482 1176.04700 1197.0
0.000888 1113.43750 1177.11731 1126.0
0.000831 1113.56018 1178.23987 1203.0
0.000801 1113.68274 1179.41724 1248.0
0.000844 1113.80542 1180.65100 1185.0
0.000808 1113.92810 1181.69434 1237.0
0.000820 1114.05078 1183.56262 1220.0
0.000832 1114.17346 1184.98840 1202.0
0.000809 1114.29602 1186.48193 1236.0
0.000826 1114.41870 1188.04614 1210.0
0.000851 1114.54138 1189.68567 1175.0
0.000850 1114.66406 1191.40369 1176.0
0.000833 1114.78662 1193.20459 1200.0
0.000823 1114.90930 1195.09326 1215.0
0.000809 1115.03198 1197.07568 1236.0
0.000826 1115.15466 1199.15710 1210.0
0.000823 1115.27734 1201.40784 1215.0
0.000786 1115.39990 1203.71240 1273.0
0.000772 1115.52258 1206.39417 1296.0
0.000798 1115.64526 1208.95703 1253.0
0.000775 1115.76794 1211.66455 1291.0
0.000781 1115.89050 1214.53198 1281.0
0.000796 1116.01318 1217.57776 1256.0
0.000800 1116.13586 1221.16101 1250.0
0.000808 1116.25854 1224.64221 1237.0
0.000758 1116.38123 1228.38965 1319.0
0.000795 1116.50378 1232.44897 1258.0
0.000759 1116.62646 1236.88013 1317.0
0.000779 1116.74915 1241.84900 1283.0
0.000734 1116.87183 1247.26611 1362.0
0.000710 1116.99451 1253.33923 1408.0
0.000739 1117.11707 1260.21326 1353.0
0.000752 1117.23975 1268.06458 1329.0
0.000729 1117.36243 1277.10364 1372.0
0.000758 1117.48511 1287.74768 1319.0
0.000696 1117.60767 1299.95752 1437.0
0.000719 1117.73035 1314.22754 1391.0
0.000712 1117.85303 1330.92737 1405.0
0.000693 1117.97571 1350.67053 1443.0
0.000664 1118.09839 1373.45691 1507.0
0.000697 1118.22095 1399.93103 1435.0
0.000692 1118.34363 1430.51990 1445.0
0.000665 1118.46631 1465.62341 1503.0
0.000645 1118.58899 1505.59155 1550.0
0.000607 1118.71155 1550.70044 1647.0
0.000584 1118.83423 1601.12561 1713.0
0.000577 1118.95691 1656.91931 1733.0
0.000560 1119.07959 1717.99048 1787.0
0.000535 1119.20227 1784.08850 1868.0
0.000518 1119.32483 1854.79480 1931.0
0.000472 1119.44751 1929.62756 2119.0
0.000451 1119.57019 2007.62781 2219.0
0.000453 1119.69287 2088.00830 2209.0
0.000427 1119.81543 2169.75879 2343.0
0.000426 1119.93811 2251.79077 2348.0
0.000402 1120.06079 2332.98413 2488.0
0.000383 1120.18347 2412.25366 2614.0
0.000381 1120.30615 2488.61206 2625.0
0.000379 1120.42871 2561.23462 2637.0
0.0003378 1120.55139 2629.49072 2960.0
0.0003420 1120.67407 2692.93530 2924.0
0.0003390 1120.79675 2751.25439 2950.0
0.0003394 1120.91943 2804.16626 2946.0
0.0003374 1121.04211 2851.33325 2964.0
0.0003308 1121.16467 2892.30151 3023.0
0.0003300 1121.28735 2926.50366 3030.0
0.0003218 1121.41003 2953.33716 3108.0
0.0003286 1121.53259 2972.29688 3043.0
0.0003200 1121.65527 2983.12988 3125.0
0.0003145 1121.77795 2985.99829 3180.0
0.0003277 1121.90063 2981.57373 3052.0
0.0003231 1122.02332 2971.06348 3095.0
0.0003248 1122.14600 2956.13940 3079.0
0.0003298 1122.26855 2938.80640 3032.0
0.0003318 1122.39124 2921.24292 3014.0
0.0003297 1122.51392 2905.66406 3033.0
0.0003428 1122.63647 2894.21753 2917.0
0.0003388 1122.75916 2888.95850 2952.0
0.0003352 1122.88184 2891.84790 2983.0
0.0003499 1123.00452 2904.78784 2858.0
0.0003401 1123.12720 2929.66309 2940.0
0.0003265 1123.24976 2968.34668 3063.0
0.0003306 1123.37244 3022.67847 3025.0
0.0003333 1123.49512 3094.38916 3000.0
0.0003306 1123.61780 3184.99438 3025.0
0.0003146 1123.74036 3295.66016 3179.0
0.0003009 1123.86304 3427.06934 3323.0
0.0002826 1123.98572 3579.29370 3538.0
0.0002814 1124.10840 3751.68726 3554.0
0.0002578 1124.23108 3942.80054 3879.0
0.0002483 1124.35364 4150.32568 4027.0
0.0002414 1124.47632 4371.06396 4143.0
0.0002172 1124.59900 4600.95117 4603.0
0.0002029 1124.72168 4835.12354 4928.0
0.0001926 1124.84424 5068.03857 5192.0
0.0001832 1124.96692 5293.64893 5459.0
0.0001716 1125.08960 5505.60938 5829.0
0.0001624 1125.21228 5697.52441 6156.0
0.0001595 1125.33496 5863.24316 6270.0
0.0001504 1125.45752 5997.25732 6647.0
0.0001529 1125.58020 6095.39111 6541.0
0.0001524 1125.70288 6155.00684 6561.0
0.0001524 1125.82556 6174.50342 6561.0
0.0001517 1125.94824 6155.51563 6593.0
0.0001592 1126.07092 6100.77393 6283.0
0.0001602 1126.19348 6014.02832 6242.0
0.0001694 1126.31616 5899.38037 5902.0
0.0001771 1126.43884 5760.78369 5646.0
0.0001838 1126.56140 5601.70557 5440.0
0.0001924 1126.68408 5425.03857 5197.0
0.0002010 1126.80676 5233.16455 4976.0
0.0002107 1126.92944 5028.21973 4746.0
0.0002146 1127.05212 4812.20410 4660.0
0.0002264 1127.17480 4587.66309 4417.0
0.0002324 1127.29736 4357.31982 4303.0
0.0002531 1127.42004 4124.11865 3951.0
0.0002696 1127.54272 3891.71460 3709.0
0.0002860 1127.66528 3663.55371 3496.0
0.0003059 1127.78796 3442.80664 3269.0
0.0003236 1127.91064 3232.19727 3090.0
0.000359 1128.03333 3033.92236 2783.0
0.000378 1128.15601 2849.63892 2643.0
0.000420 1128.27869 2680.51953 2379.0
0.000471 1128.40125 2527.31787 2125.0
0.000478 1128.52393 2390.46777 2094.0
0.000489 1128.64661 2270.06104 2046.0
0.000513 1128.76917 2166.04297 1949.0
0.000523 1128.89185 2078.17310 1911.0
0.000559 1129.01453 2006.09167 1788.0
0.000571 1129.13721 1949.35132 1750.0
0.000555 1129.25989 1907.44995 1801.0
0.000555 1129.38245 1879.84668 1801.0
0.000574 1129.50513 1865.97473 1743.0
0.000583 1129.62781 1865.24915 1716.0
0.000569 1129.75049 1877.06177 1758.0
0.000567 1129.87317 1900.76953 1765.0
0.000519 1129.99585 1935.67615 1928.0
0.000527 1130.11841 1981.00928 1897.0
0.000527 1130.24109 2035.88818 1896.0
0.000492 1130.36377 2099.29810 2034.0
0.000476 1130.48633 2170.05151 2099.0
0.000423 1130.60901 2246.77441 2366.0
0.000429 1130.73169 2327.88403 2330.0
0.000418 1130.85437 2411.59692 2390.0
0.000399 1130.97705 2495.94604 2508.0
0.000383 1131.09973 2578.82031 2610.0
0.000381 1131.22229 2658.02832 2625.0
0.000366 1131.34497 2731.32495 2731.0
0.000359 1131.46765 2796.43286 2787.0
0.0003418 1131.59021 2851.67969 2926.0
0.0003257 1131.71289 2895.33130 3070.0
0.0003333 1131.83557 2926.29199 3000.0
0.0003493 1131.95825 2944.04980 2863.0
0.0003415 1132.08093 2948.68042 2928.0
0.0003367 1132.20361 2940.74731 2970.0
0.000352 1132.32617 2921.15894 2837.0
0.0003482 1132.44885 2891.01685 2872.0
0.000359 1132.57153 2851.62524 2783.0
0.000365 1132.69409 2803.86108 2739.0
0.000388 1132.81677 2747.67651 2577.0
0.000374 1132.93945 2686.62549 2672.0
0.000407 1133.06213 2620.40649 2455.0
0.000437 1133.18481 2550.31958 2288.0
0.000405 1133.30750 2476.77856 2470.0
0.000440 1133.43005 2401.24878 2271.0
0.000456 1133.55273 2324.97095 2193.0
0.000478 1133.67542 2249.23999 2094.0
0.000462 1133.72827 2175.26416 2163.0
0.000494 1133.54578 2104.08618 2024.0
0.000498 1133.36316 2037.03369 2008.0
0.000503 1133.18066 1975.12451 1987.0
0.000540 1132.99805 1919.00732 1853.0
0.000549 1132.81555 1869.37085 1822.0
0.000578 1132.63306 1826.66443 1731.0
0.000579 1132.45044 1791.16980 1727.0
0.000588 1132.26794 1763.16235 1701.0
0.000588 1132.08533 1742.28809 1700.0
0.000609 1131.90283 1728.51355 1643.0
0.000607 1131.72021 1721.50854 1648.0
0.000563 1131.53772 1720.81238 1777.0
0.000584 1131.35522 1725.85107 1713.0
0.000585 1131.17261 1735.95410 1710.0
0.000573 1130.99011 1750.37708 1746.0
0.000555 1130.80750 1768.32813 1802.0
0.000544 1130.62500 1788.99451 1837.0
0.000562 1130.44238 1811.57849 1779.0
0.000533 1130.25989 1835.33435 1876.0
0.000532 1130.07727 1859.61548 1879.0
0.000517 1129.89478 1883.92224 1934.0
0.000514 1129.71228 1907.93994 1945.0
0.000504 1129.52966 1931.56262 1983.0
0.000503 1129.34717 1954.88318 1990.0
0.000487 1129.16455 1978.15808 2054.0
0.000471 1128.98206 2001.73926 2121.0
0.000510 1128.79944 2026.81628 1961.0
0.000491 1128.61694 2052.09888 2037.0
0.000461 1128.43445 2078.64722 2169.0
0.000471 1128.25183 2106.60352 2123.0
0.000469 1128.06934 2136.00464 2133.0
0.000480 1127.88672 2166.79883 2084.0
0.000456 1127.70422 2198.88354 2192.0
0.000442 1127.52161 2232.13696 2265.0
0.000443 1127.33911 2266.45947 2259.0
0.000455 1127.15649 2301.80688 2197.0
0.000450 1126.97400 2338.20508 2223.0
0.000448 1126.79150 2375.74805 2232.0
0.000434 1126.60889 2414.97852 2306.0
0.000426 1126.42639 2455.22705 2346.0
0.000404 1126.24377 2496.96973 2474.0
0.000408 1126.06128 2540.15674 2452.0
0.000416 1125.87866 2584.55029 2405.0
0.000399 1125.69617 2629.69214 2506.0
0.000389 1125.51367 2674.89233 2572.0
0.000381 1125.33105 2719.26245 2627.0
0.000375 1125.14856 2761.78564 2668.0
0.000375 1124.96594 2801.43799 2664.0
0.000373 1124.78345 2837.32715 2682.0
0.000361 1124.60083 2868.83594 2769.0
0.000369 1124.41833 2895.72583 2711.0
0.000368 1124.23572 2918.16821 2719.0
0.0003429 1124.05322 2936.68042 2916.0
0.0003352 1123.87073 2952.01367 2983.0
0.0003382 1123.68811 2964.97168 2957.0
0.0003472 1123.50562 2976.25000 2880.0
0.0003426 1123.32300 2986.30420 2919.0
0.0003435 1123.14050 2995.27368 2911.0
0.0003392 1122.95789 3002.95898 2948.0
0.0003413 1122.77539 3008.86475 2930.0
0.0003300 1122.59277 3012.27637 3030.0
0.0003256 1122.41028 3012.35962 3071.0
0.0003357 1122.22778 3008.26563 2979.0
0.0003319 1122.04517 2999.20679 3013.0
0.0003298 1121.86267 2984.51758 3032.0
0.0003366 1121.68005 2963.68262 2971.0
0.0003344 1121.49756 2936.37354 2990.0
0.0003460 1121.31494 2902.48389 2890.0
0.0003342 1121.13245 2862.16284 2992.0
0.0003472 1120.94995 2815.83179 2880.0
0.0003467 1120.76733 2764.15747 2884.0
0.000355 1120.58484 2707.98950 2816.0
0.000359 1120.40222 2648.25732 2787.0
0.000375 1120.21973 2585.87988 2667.0
0.000381 1120.03711 2521.68628 2627.0
0.000397 1119.85461 2456.37549 2521.0
0.000409 1119.67200 2390.49658 2444.0
0.000411 1119.48950 2324.47632 2436.0
0.000425 1119.30701 2258.65527 2353.0
0.000444 1119.12439 2193.34131 2254.0
0.000451 1118.94189 2128.86768 2217.0
0.000474 1118.75928 2065.62720 2111.0
0.000489 1118.57678 2004.07495 2044.0
0.000503 1118.39417 1944.71191 1990.0
0.000492 1118.21167 1888.04590 2032.0
0.000540 1118.02917 1834.54590 1851.0
0.000540 1117.84656 1784.60596 1852.0
0.000577 1117.66406 1738.52209 1734.0
0.000559 1117.48145 1696.69067 1788.0
0.000578 1117.29895 1658.77637 1730.0
0.000577 1117.11633 1624.96460 1734.0
0.000595 1116.93384 1595.15088 1680.0
0.000601 1116.75122 1569.15381 1664.0
0.000633 1116.56873 1546.73584 1579.0
0.000629 1116.38623 1527.61414 1589.0
0.000649 1116.20361 1511.47693 1542.0
0.000636 1116.02112 1498.00305 1572.0
0.000604 1115.83850 1486.87012 1657.0
0.000633 1115.65601 1477.78455 1581.0
0.000667 1115.47339 1470.48999 1500.0
0.000652 1115.29089 1464.78723 1534.0
0.000664 1115.10828 1460.64221 1507.0
0.000657 1114.92578 1457.76807 1523.0
0.000668 1114.74329 1456.24329 1496.0
0.000652 1114.56067 1456.08191 1533.0
0.000655 1114.37817 1457.32031 1527.0
0.000701 1114.19556 1460.00525 1426.0
0.000667 1114.01306 1464.18506 1499.0
0.000694 1113.83044 1469.90198 1441.0
0.000652 1113.64795 1477.18933 1534.0
0.000688 1113.46545 1486.07068 1453.0
0.000674 1113.28284 1496.55933 1484.0
0.000693 1113.10034 1508.65710 1442.0
0.000673 1112.91772 1522.34827 1485.0
0.000678 1112.73523 1537.59644 1475.0
0.000691 1112.55261 1554.33203 1448.0
0.000659 1112.37012 1572.43945 1518.0
0.000647 1112.18750 1591.75122 1545.0
0.000619 1112.00500 1612.03394 1615.0
0.000618 1111.82251 1632.98657 1618.0
0.000605 1111.63989 1654.23376 1652.0
0.000595 1111.45740 1675.33472 1681.0
0.000588 1111.27478 1695.79187 1700.0
0.000602 1111.09229 1715.06982 1661.0
0.000611 1110.90967 1732.61658 1637.0
0.000596 1110.72717 1747.89832 1679.0
0.000580 1110.54468 1760.46960 1723.0
0.000570 1110.36206 1769.85107 1754.0
0.000567 1110.17957 1775.79126 1763.0
0.000582 1109.99695 1778.13855 1719.0
0.000570 1109.81445 1776.88660 1754.0
0.000574 1109.63184 1772.16748 1743.0
0.000608 1109.44934 1764.22034 1645.0
0.000581 1109.26672 1753.34985 1721.0
0.000567 1109.08423 1739.88269 1763.0
0.000622 1108.90173 1724.13184 1608.0
0.000617 1108.71912 1706.37561 1622.0
0.000599 1108.53662 1686.85510 1669.0
0.000608 1108.35400 1665.78064 1644.0
0.000629 1108.17151 1643.34558 1589.0
0.000643 1107.98889 1619.76404 1555.0
0.000627 1107.80640 1595.20911 1594.0
0.000642 1107.62378 1569.93945 1558.0
0.000652 1107.44128 1544.22791 1533.0
0.000656 1107.25879 1518.36426 1524.0
0.000680 1107.07617 1492.64795 1470.0
0.000703 1106.89368 1467.36426 1422.0
0.000736 1106.71106 1442.77026 1359.0
0.000749 1106.52856 1419.08362 1335.0
0.000743 1106.34595 1396.47791 1345.0
0.000719 1106.16345 1375.08191 1390.0
0.000765 1105.98096 1354.98352 1307.0
0.000788 1105.79834 1336.23389 1269.0
0.000773 1105.61584 1318.85522 1293.0
0.000791 1105.43323 1302.84094 1265.0
0.000792 1105.25073 1288.16492 1263.0
0.000770 1105.06812 1274.78076 1298.0
0.000810 1104.88562 1262.63184 1235.0
0.000832 1104.70300 1251.64795 1202.0
0.000811 1104.52051 1241.75342 1233.0
0.000792 1104.33801 1232.86670 1263.0
0.000792 1104.15540 1224.90527 1262.0
0.000861 1103.97290 1217.78540 1161.0
0.000855 1103.79028 1211.71375 1169.0
0.000814 1103.60779 1206.03992 1229.0
0.000803 1103.42517 1200.97522 1245.0
0.000873 1103.24268 1196.44934 1145.0
0.000861 1103.06018 1192.40259 1162.0
0.000838 1102.87756 1188.77502 1193.0
0.000810 1102.69507 1185.53381 1235.0
0.000844 1102.51245 1182.60107 1185.0
0.000864 1102.32996 1179.95251 1158.0
0.000843 1102.14734 1177.55469 1186.0
0.000810 1101.96484 1175.37659 1235.0
0.000861 1101.78223 1173.39270 1161.0
0.000851 1101.59973 1171.58105 1175.0
0.000864 1101.41724 1170.06531 1157.0
0.000829 1101.23462 1168.54431 1206.0
0.000860 1101.05212 1167.14551 1163.0
0.000838 1100.86951 1165.85718 1193.0
0.000833 1100.68701 1164.66980 1201.0
0.000857 1100.50439 1163.57312 1167.0
0.000824 1100.32190 1162.56848 1214.0
0.000822 1100.13928 1161.63452 1216.0
0.000830 1099.95679 1160.77380 1205.0
0.000899 1099.77429 1159.98083 1112.0
0.000843 1099.59167 1159.25256 1186.0
0.000801 1099.40918 1158.58667 1248.0
0.000850 1099.22656 1157.97961 1176.0
0.000855 1099.04407 1157.43127 1169.0
0.000867 1098.86145 1157.44324 1153.0
0.000819 1098.67896 1157.01050 1221.0
0.000850 1098.49646 1156.63220 1176.0
0.000855 1098.31384 1156.30981 1170.0
0.000830 1098.13135 1156.04333 1205.0
0.000812 1097.94873 1155.83508 1231.0
0.000835 1097.76624 1155.68640 1197.0
0.000840 1097.58362 1155.59888 1191.0
0.000846 1097.40112 1155.57520 1182.0
0.000822 1097.21863 1155.61951 1217.0
0.000873 1097.03601 1155.73438 1146.0
0.000858 1096.85352 1155.11536 1166.0
0.000878 1096.67090 1155.39185 1139.0
0.000828 1096.48840 1156.00525 1208.0
0.000850 1096.30579 1156.46130 1177.0
0.000854 1096.12329 1157.01672 1171.0
0.000853 1095.94067 1157.67725 1173.0
0.000857 1095.75818 1158.45117 1167.0
0.000876 1095.57568 1159.34680 1141.0
0.000876 1095.39307 1160.37146 1141.0
0.000853 1095.21057 1161.53406 1173.0
0.000823 1095.02795 1162.84326 1215.0
0.000894 1094.84546 1164.30676 1118.0
0.000862 1094.66284 1162.45288 1160.0
0.000824 1094.48035 1164.27332 1214.0
0.000836 1094.29785 1166.27100 1196.0
0.000870 1094.11523 1168.45093 1150.0
0.000850 1093.93274 1170.81873 1177.0
0.000869 1093.75012 1173.37793 1151.0
0.000862 1093.56763 1176.13037 1160.0
0.000839 1093.38501 1179.07581 1192.0
0.000840 1093.20251 1182.21094 1190.0
0.000888 1093.01990 1185.85950 1126.0
0.000876 1092.83740 1189.35596 1141.0
0.000802 1092.65491 1193.01306 1247.0
0.000887 1092.47229 1196.81262 1127.0
0.000829 1092.28979 1200.73022 1207.0
0.000820 1092.10718 1204.73572 1220.0
0.000827 1091.92468 1208.79028 1209.0
0.000782 1091.74207 1212.85144 1279.0
0.000797 1091.55957 1216.86743 1255.0
0.000862 1091.37695 1220.78271 1160.0
0.000795 1091.19446 1224.54004 1258.0
0.000781 1091.01196 1228.08154 1280.0
0.000804 1090.82935 1231.35400 1244.0
0.000775 1090.64685 1234.51917 1291.0
0.000788 1090.46423 1237.13440 1269.0
0.000782 1090.28174 1239.38733 1278.0
0.000803 1090.09912 1241.27686 1246.0
0.000785 1089.91663 1242.81714 1274.0
0.000747 1089.73413 1244.03381 1339.0
0.000747 1089.55151 1244.96252 1338.0
0.000765 1089.36902 1245.64136 1307.0
0.000756 1089.18640 1246.11230 1323.0
0.000708 1089.00391 1246.41577 1412.0
0.000713 1088.82129 1246.58887 1402.0
0.000724 1088.63879 1246.67065 1382.0
0.000748 1088.45618 1246.69885 1337.0
0.000759 1088.27368 1246.73840 1318.0
0.000718 1088.09119 1246.79675 1392.0
0.000714 1087.90857 1246.95679 1400.0
0.000730 1087.72607 1247.28955 1370.0
0.000754 1087.54346 1247.88306 1326.0
0.000749 1087.36096 1248.83923 1335.0
0.000739 1087.17834 1250.27612 1353.0
0.000731 1086.99585 1252.32837 1368.0
0.000726 1086.81335 1255.14954 1378.0
0.000717 1086.63074 1258.90930 1394.0
0.000722 1086.44824 1263.80115 1386.0
0.000733 1086.26563 1270.03735 1364.0
0.000737 1086.08313 1277.85266 1356.0
0.000730 1085.90051 1287.50500 1369.0
0.000703 1085.71802 1299.27222 1422.0
0.000732 1085.53540 1313.45276 1366.0
0.000703 1085.35291 1330.35779 1423.0
0.000727 1085.17041 1351.05054 1375.0
0.000732 1084.98779 1374.37036 1366.0
0.000686 1084.80530 1401.36719 1458.0
0.000692 1084.62268 1432.33508 1445.0
0.000689 1084.44019 1467.53259 1451.0
0.000646 1084.25757 1507.17883 1549.0
0.000652 1084.07507 1551.43286 1533.0
0.000635 1083.89246 1600.38574 1575.0
0.000646 1083.70996 1654.04688 1548.0
0.000605 1083.52747 1712.33923 1653.0
0.000579 1083.34485 1775.08093 1726.0
0.000576 1083.16235 1841.98828 1735.0
0.000533 1082.97974 1912.66382 1877.0
0.000529 1082.79724 1986.96667 1889.0
0.000493 1082.61462 2063.53125 2029.0
0.000497 1082.43213 2141.97925 2011.0
0.000455 1082.24963 2221.48169 2200.0
0.000457 1082.08044 2301.02637 2188.0
0.000428 1081.93164 2379.60669 2337.0
0.000422 1081.78271 2456.10840 2372.0
0.000408 1081.63379 2529.43506 2448.0
0.000396 1081.48486 2598.54175 2527.0
0.000384 1081.33606 2662.51611 2601.0
0.000379 1081.18713 2720.63135 2637.0
0.000374 1081.03821 2772.40991 2672.0
0.000365 1080.88940 2817.64160 2736.0
0.0003464 1080.74048 2856.38428 2887.0
0.0003438 1080.59155 2888.88428 2909.0
0.0003445 1080.44263 2915.49683 2903.0
0.0003370 1080.29382 2936.58008 2967.0
0.0003405 1080.14490 2952.41382 2937.0
0.0003429 1079.99597 2963.09009 2916.0
0.0003266 1079.84717 2968.58350 3062.0
0.0003295 1079.69824 2968.73511 3035.0
0.0003296 1079.54932 2963.32178 3034.0
0.0003195 1079.40039 2952.15332 3130.0
0.0003317 1079.25159 2935.16431 3015.0
0.0003377 1079.10266 2912.50098 2961.0
0.0003332 1078.95386 2884.56152 3001.0
0.0003367 1078.80493 2851.99878 2970.0
0.0003419 1078.65601 2815.66235 2925.0
0.0003489 1078.50720 2776.50415 2866.0
0.000361 1078.35828 2735.46704 2772.0
0.000365 1078.20935 2693.38696 2740.0
0.000367 1078.06042 2650.92041 2727.0
0.000380 1077.91162 2608.50635 2632.0
0.000400 1077.76270 2566.35181 2497.0
0.000407 1077.61377 2524.46973 2455.0
0.000406 1077.46497 2482.71753 2466.0
0.000424 1077.31604 2440.86377 2361.0
0.000415 1077.16711 2398.66772 2410.0
0.000435 1077.01819 2355.93408 2301.0
0.000438 1076.86938 2312.57153 2281.0
0.000442 1076.72046 2268.61182 2264.0
0.000451 1076.57153 2224.20532 2217.0
0.000488 1076.42261 2179.59741 2050.0
0.000473 1076.27380 2135.08423 2113.0
0.000486 1076.12488 2090.97485 2059.0
0.000531 1075.97607 2047.54761 1882.0
0.000513 1075.82715 2005.02417 1949.0
0.000504 1075.67822 1963.55042 1985.0
0.000522 1075.52942 1923.19995 1915.0
0.000565 1075.38049 1883.98315 1770.0
0.000561 1075.23157 1845.86694 1782.0
0.000580 1075.08264 1808.80615 1724.0
0.000568 1074.93384 1772.76147 1760.0
0.000600 1074.78491 1737.72131 1667.0
0.000587 1074.63599 1703.71045 1705.0
0.000604 1074.48718 1670.78857 1655.0
0.000635 1074.33826 1639.04700 1575.0
0.000630 1074.18933 1608.59265 1587.0
0.000653 1074.04041 1579.54163 1532.0
0.000659 1073.89160 1552.00330 1517.0
0.000663 1073.74268 1526.07605 1508.0
0.000653 1073.59375 1501.84204 1532.0
0.000705 1073.44495 1479.36877 1418.0
0.000668 1073.29602 1458.70508 1498.0
0.000710 1073.14709 1439.88660 1409.0
0.000716 1072.99829 1422.93835 1396.0
0.000726 1072.84937 1407.87427 1378.0
0.000733 1072.70044 1394.70093 1364.0
0.000717 1072.55164 1383.42163 1395.0
0.000756 1072.40271 1374.04871 1322.0
0.000747 1072.25378 1366.54114 1338.0
0.000763 1072.10498 1360.90503 1311.0
0.000756 1071.95605 1357.12573 1322.0
0.000765 1071.80713 1355.18396 1308.0
0.000772 1071.65820 1355.05774 1296.0
0.000763 1071.50940 1356.72021 1310.0
0.000769 1071.36047 1360.13708 1301.0
0.000786 1071.21155 1365.26843 1273.0
0.000734 1071.06274 1372.06824 1363.0
0.000752 1070.91382 1380.47925 1329.0
0.000722 1070.76489 1390.43738 1385.0
0.000724 1070.61597 1401.86414 1381.0
0.000704 1070.46716 1414.67139 1421.0
0.000729 1070.31824 1428.76379 1371.0
0.000687 1070.16931 1444.00720 1455.0
0.000714 1070.02051 1460.27454 1401.0
0.000704 1069.87158 1477.41516 1421.0
0.000707 1069.72266 1495.25745 1414.0
0.000678 1069.57385 1513.60974 1474.0
0.000671 1069.42493 1532.25708 1490.0
0.000685 1069.27600 1550.96228 1459.0
0.000641 1069.12720 1569.46216 1560.0
0.000635 1068.97827 1587.46545 1575.0
0.000620 1068.82935 1604.65869 1613.0
0.000638 1068.68054 1620.71350 1568.0
0.000622 1068.53162 1635.29529 1608.0
0.000619 1068.38269 1648.08728 1616.0
0.000615 1068.23376 1658.80481 1625.0
0.000620 1068.08496 1667.22424 1613.0
0.000625 1067.93604 1673.19263 1601.0
0.000639 1067.78711 1676.64917 1564.0
0.000594 1067.63818 1677.61804 1684.0
0.000631 1067.48938 1676.20630 1586.0
0.000594 1067.34045 1672.58069 1684.0
0.000592 1067.19153 1666.94885 1689.0
0.000593 1067.04272 1659.53101 1685.0
0.000620 1066.89380 1650.54236 1614.0
0.000611 1066.74487 1640.23596 1637.0
0.000621 1066.59607 1628.66980 1610.0
0.000614 1066.44714 1616.04858 1628.0
0.000604 1066.29834 1602.50488 1656.0
0.000631 1066.14941 1588.16943 1585.0
0.000642 1066.00049 1573.17920 1557.0
0.000651 1065.85156 1557.68677 1535.0
0.000651 1065.70276 1541.86768 1536.0
0.000629 1065.55383 1525.91394 1591.0
0.000671 1065.40491 1510.11121 1490.0
0.000660 1065.25598 1494.50488 1516.0
0.000711 1065.10718 1479.37756 1406.0
0.000685 1064.95825 1464.91772 1459.0
0.000678 1064.80933 1451.28894 1474.0
0.000695 1064.66052 1438.65674 1438.0
0.000706 1064.51160 1427.07263 1416.0
0.000689 1064.36267 1416.64294 1451.0
0.000719 1064.21375 1407.41479 1391.0
0.000723 1064.06494 1399.40869 1384.0
0.000696 1063.91602 1392.61987 1437.0
0.000719 1063.76709 1387.01782 1391.0
0.000750 1063.61829 1382.54968 1334.0
0.000730 1063.46936 1379.13708 1369.0
0.000759 1063.32056 1376.72510 1318.0
0.000773 1063.17163 1375.33386 1294.0
0.000741 1063.02271 1374.42419 1349.0
0.000721 1062.87378 1374.06104 1387.0
0.000752 1062.72498 1374.07825 1329.0
0.000773 1062.57605 1374.41187 1293.0
0.000778 1062.42712 1374.65540 1285.0
0.000784 1062.27832 1374.75366 1276.0
0.000728 1062.12939 1374.55261 1374.0
0.000715 1061.98047 1373.92395 1398.0
0.000776 1061.83154 1372.77026 1289.0
0.000763 1061.68274 1371.02710 1310.0
0.000744 1061.53381 1368.66980 1344.0
0.000767 1061.38489 1365.69666 1303.0
0.000736 1061.23608 1362.24731 1358.0
0.000792 1061.08716 1358.14294 1263.0
0.000783 1060.93823 1353.54041 1277.0
0.000775 1060.78931 1348.49194 1290.0
0.000747 1060.64050 1343.04004 1338.0
0.000775 1060.49158 1337.28320 1290.0
0.000781 1060.34277 1331.14087 1281.0
0.000766 1060.19385 1324.69849 1306.0
0.000793 1060.04492 1317.99219 1261.0
0.000766 1059.89612 1311.05750 1306.0
0.000812 1059.74719 1303.93738 1231.0
0.000785 1059.59827 1296.68445 1274.0
0.000792 1059.44934 1289.35864 1263.0
0.000793 1059.30054 1282.02209 1261.0
0.000803 1059.15161 1274.74023 1245.0
0.000805 1059.00269 1267.57617 1242.0
0.000786 1058.85388 1260.58594 1272.0
0.000792 1058.70496 1253.81836 1262.0
0.000789 1058.55603 1247.31274 1268.0
0.000833 1058.40710 1241.09766 1200.0
0.000808 1058.25830 1235.19263 1238.0
0.000854 1058.10938 1229.60620 1171.0
0.000812 1057.96045 1224.33936 1231.0
0.000847 1057.81152 1219.38965 1180.0
0.000890 1057.66272 1214.75098 1124.0
0.000812 1057.51379 1210.41406 1232.0
0.000833 1057.36487 1206.37549 1200.0
0.000841 1057.21606 1202.63013 1189.0
0.000829 1057.06714 1199.18091 1207.0
0.000847 1056.91833 1196.03394 1181.0
0.000865 1056.76941 1193.19971 1156.0
0.000846 1056.62048 1190.69299 1182.0
0.000835 1056.47156 1188.53113 1197.0
0.000842 1056.32275 1186.73694 1188.0
0.000864 1056.17383 1185.33618 1157.0
0.000854 1056.02490 1184.36072 1171.0
0.000858 1055.87610 1183.85278 1165.0
0.000861 1055.72717 1183.86218 1161.0
0.000824 1055.57825 1185.08459 1214.0
0.000814 1055.42932 1186.34277 1229.0
0.000840 1055.28052 1188.35742 1190.0
0.000869 1055.13159 1191.24316 1151.0
0.000824 1054.98267 1195.13782 1214.0
0.000812 1054.83386 1200.19885 1231.0
0.000827 1054.68494 1206.60425 1209.0
0.000828 1054.53601 1214.55286 1208.0
0.000824 1054.38708 1224.26074 1213.0
0.000808 1054.23828 1235.95544 1237.0
0.000763 1054.08936 1249.87695 1311.0
0.000781 1053.94055 1266.26746 1280.0
0.000797 1053.79163 1285.36389 1254.0
0.000766 1053.64270 1307.70361 1306.0
0.000750 1053.49390 1332.86853 1334.0
0.000745 1053.34497 1361.33337 1342.0
0.000767 1053.19604 1393.21741 1304.0
0.000693 1053.04712 1428.58459 1442.0
0.000711 1052.89832 1467.42676 1406.0
0.000659 1052.74939 1509.65149 1518.0
0.000659 1052.60046 1555.07678 1517.0
0.000663 1052.45166 1603.41333 1509.0
0.000601 1052.30273 1654.26135 1664.0
0.000609 1052.15381 1707.09961 1643.0
0.000553 1052.00488 1761.28381 1809.0
0.000551 1051.85608 1816.04651 1815.0
0.000527 1051.70715 1870.50317 1898.0
0.000512 1051.55823 1923.96997 1954.0
0.000493 1051.40942 1974.79761 2027.0
0.000495 1051.26050 2022.19690 2020.0
0.000477 1051.11157 2065.10791 2095.0
0.000484 1050.96265 2102.55762 2067.0
0.000435 1050.81384 2133.74023 2299.0
0.000442 1050.66492 2158.08325 2262.0
0.000427 1050.51611 2175.30981 2342.0
0.000425 1050.36719 2185.46143 2355.0
0.000446 1050.21826 2188.88013 2244.0
0.000447 1050.06946 2186.14600 2236.0
0.000432 1049.92053 2177.98877 2314.0
0.000446 1049.77161 2165.19775 2242.0
0.000457 1049.62268 2148.53540 2186.0
0.000443 1049.47388 2128.83838 2258.0
0.000469 1049.32495 2106.39990 2132.0
0.000477 1049.17603 2081.85913 2098.0
0.000482 1049.02710 2055.63477 2074.0
0.000492 1048.87830 2028.10962 2034.0
0.000496 1048.72937 1999.66797 2017.0
0.000510 1048.58044 1970.73657 1959.0
0.000513 1048.43164 1941.79944 1951.0
0.000508 1048.28271 1912.83472 1969.0
0.000514 1048.13379 1885.59216 1945.0
0.000531 1047.98486 1860.10657 1882.0
0.000547 1047.83606 1836.96143 1828.0
0.000565 1047.68713 1816.67529 1771.0
0.000535 1047.53833 1799.68005 1870.0
0.000592 1047.38940 1786.29663 1689.0
0.000573 1047.24048 1777.27563 1744.0
0.000591 1047.09167 1771.63489 1691.0
0.000562 1046.94275 1769.89551 1778.0
0.000577 1046.79382 1771.92786 1732.0
0.000577 1046.64490 1777.49744 1732.0
0.000586 1046.49609 1786.25940 1706.0
0.000556 1046.34717 1797.22937 1800.0
0.000552 1046.19824 1810.92505 1810.0
0.000570 1046.04944 1826.16174 1754.0
0.000547 1045.90051 1842.21118 1829.0
0.000546 1045.75159 1858.29138 1831.0
0.000533 1045.60266 1873.60779 1875.0
0.000529 1045.45386 1887.39453 1890.0
0.000506 1045.30493 1898.97327 1976.0
0.000524 1045.15601 1908.06799 1907.0
0.000508 1045.00720 1913.77344 1967.0
0.000501 1044.85828 1916.17419 1998.0
0.000493 1044.70935 1915.26868 2030.0
0.000506 1044.56055 1911.32202 1975.0
0.000509 1044.41162 1904.34680 1966.0
0.000518 1044.26270 1894.75342 1932.0
0.000515 1044.11389 1882.83838 1940.0
0.000501 1043.96497 1868.86279 1996.0
0.000529 1043.81604 1853.03149 1892.0
0.000520 1043.66724 1835.49622 1923.0
0.000532 1043.51831 1816.36304 1881.0
0.000560 1043.36938 1795.72009 1786.0
0.000558 1043.22046 1773.65833 1793.0
0.000550 1043.07166 1750.30432 1819.0
0.000573 1042.92273 1725.82898 1745.0
0.000571 1042.77380 1700.45703 1751.0
0.000584 1042.62500 1674.46033 1711.0
0.000589 1042.47607 1648.19824 1697.0
0.000599 1042.32715 1621.86621 1670.0
0.000588 1042.17822 1595.82483 1701.0
0.000608 1042.02942 1570.35327 1644.0
0.000614 1041.88049 1545.69470 1628.0
0.000648 1041.73157 1522.05725 1544.0
0.000654 1041.58264 1499.61011 1529.0
0.000685 1041.43384 1478.49109 1460.0
0.000718 1041.28503 1458.81042 1393.0
0.000699 1041.13611 1440.65454 1430.0
0.000722 1040.98718 1424.09167 1386.0
0.000756 1040.83826 1409.17480 1322.0
0.000713 1040.68945 1395.93921 1402.0
0.000734 1040.54053 1384.40979 1363.0
0.000720 1040.39160 1374.59790 1388.0
0.000713 1040.24280 1366.50500 1403.0
0.000747 1040.09387 1360.12549 1338.0
0.000735 1039.78760 1355.29224 1360.0
0.000716 1039.36328 1352.03479 1397.0
0.000705 1038.93909 1350.46716 1418.0
0.000753 1038.51477 1350.59436 1328.0
0.000703 1038.09058 1352.44031 1423.0
0.000721 1037.66614 1356.04834 1387.0
0.000704 1037.24194 1361.49194 1421.0
0.000698 1036.81775 1369.64331 1433.0
0.000695 1036.39343 1379.11902 1438.0
0.000703 1035.96924 1390.87048 1423.0
0.000675 1035.54492 1405.13110 1481.0
0.000665 1035.12073 1422.18054 1504.0
0.000700 1034.69629 1442.33679 1429.0
0.000684 1034.27209 1465.95044 1463.0
0.000645 1033.84778 1493.38330 1550.0
0.000684 1033.42358 1524.99231 1462.0
0.000643 1032.99939 1561.10437 1556.0
0.000639 1032.57507 1602.00122 1566.0
0.000618 1032.15088 1647.84998 1619.0
0.000606 1031.72644 1698.72998 1649.0
0.000592 1031.30225 1754.56824 1690.0
0.000597 1030.87793 1815.50330 1674.0
0.000581 1030.45374 1880.34436 1720.0
0.000545 1030.02954 1948.83643 1835.0
0.000501 1029.60510 2020.14673 1998.0
0.000525 1029.18091 2093.25439 1905.0
0.000499 1028.75659 2166.96558 2005.0
0.000478 1028.33240 2239.95630 2090.0
0.000456 1027.90808 2310.80591 2195.0
0.000442 1027.48389 2378.05444 2262.0
0.000426 1027.05945 2440.26587 2347.0
0.000427 1026.63525 2496.10669 2343.0
0.000404 1026.21106 2544.40283 2475.0
0.000409 1025.78674 2584.23682 2445.0
0.000386 1025.36255 2614.98682 2594.0
0.000401 1024.93823 2636.34644 2496.0
0.000390 1024.51404 2648.31860 2564.0
0.000401 1024.08960 2651.15991 2496.0
0.000415 1023.66541 2645.32349 2411.0
0.000416 1023.24109 2631.38647 2401.0
0.000399 1022.81689 2609.99658 2505.0
0.000409 1022.39270 2581.82861 2446.0
0.000427 1021.96832 2547.55396 2343.0
0.000438 1021.54413 2507.82666 2285.0
0.000423 1021.11975 2463.27100 2363.0
0.000413 1020.69556 2414.47363 2421.0
0.000423 1020.27124 2362.00439 2362.0
0.000434 1019.84705 2306.41797 2306.0
0.000439 1019.42279 2248.26880 2278.0
0.000460 1018.99847 2188.11865 2174.0
0.000455 1018.57428 2126.53979 2196.0
0.000466 1018.14990 2064.09546 2145.0
0.000489 1017.72571 2001.34277 2044.0
0.000519 1017.30133 1938.81567 1928.0
0.000511 1016.87714 1877.02490 1958.0
0.000523 1016.45282 1816.45422 1911.0
0.000559 1016.02863 1757.55530 1789.0
0.000595 1015.60443 1700.74353 1681.0
0.000585 1015.18005 1646.38965 1709.0
0.000587 1014.75586 1594.91528 1704.0
0.000633 1014.33148 1546.35242 1580.0
0.000635 1013.90729 1501.06750 1576.0
0.000681 1013.48291 1459.28503 1469.0
0.000689 1013.05872 1420.54407 1451.0
0.000683 1012.63440 1385.09058 1465.0
0.000734 1012.21021 1352.82825 1363.0
0.000718 1011.78601 1323.61365 1393.0
0.000787 1011.36163 1297.26770 1270.0
0.000773 1010.93744 1273.58887 1294.0
0.000782 1010.51306 1252.36401 1278.0
0.000801 1010.08887 1233.37585 1249.0
0.000774 1009.66449 1216.41223 1292.0
0.000791 1009.24030 1201.27075 1265.0
0.000819 1008.81610 1187.76355 1221.0
0.000821 1008.39178 1175.77197 1218.0
0.000853 1007.96759 1165.03247 1172.0
0.000841 1007.54321 1155.50232 1189.0
0.000830 1007.11902 1147.12036 1205.0
0.000842 1006.69464 1139.53674 1187.0
0.000864 1006.27045 1132.80310 1157.0
0.000883 1005.84607 1126.83948 1133.0
0.000848 1005.42188 1121.58484 1179.0
0.000856 1004.99768 1116.98315 1168.0
0.000859 1004.57336 1112.99475 1164.0
0.000867 1004.14917 1109.59094 1153.0
0.000863 1003.72479 1106.75500 1159.0
0.000877 1003.30060 1104.48096 1140.0
0.000909 1002.87622 1102.77893 1100.0
0.000896 1002.45203 1101.66968 1116.0
0.000915 1002.02771 1101.18945 1093.0
0.000929 1001.60352 1101.38904 1076.0
0.000857 1001.17926 1102.33350 1167.0
0.000873 1000.75494 1104.10120 1145.0
0.000905 1000.33075 1106.78540 1105.0
0.000901 999.90637 1110.48975 1110.0
0.000910 999.48218 1115.32861 1099.0
0.000857 999.05780 1121.41992 1167.0
0.000892 998.63361 1128.88757 1121.0
0.000867 998.20941 1137.84888 1154.0
0.000853 997.78510 1148.35022 1172.0
0.000863 997.36090 1160.62732 1159.0
0.000861 996.93652 1174.66064 1162.0
0.000855 996.51233 1190.51001 1169.0
0.000808 996.08795 1208.18457 1237.0
0.000842 995.66376 1227.65637 1188.0
0.000857 995.23938 1248.84656 1167.0
0.000815 994.81519 1271.63257 1227.0
0.000752 994.39099 1295.83667 1329.0
0.000728 993.96667 1321.22913 1374.0
0.000728 993.54248 1347.53064 1373.0
0.000681 993.11810 1374.41040 1468.0
0.000703 992.69391 1401.49670 1423.0
0.000695 992.26953 1428.15454 1439.0
0.000691 991.84534 1454.42249 1448.0
0.000625 991.42102 1479.65369 1599.0
0.000658 990.99677 1503.43494 1520.0
0.000612 990.57257 1525.42554 1635.0
0.000631 990.14825 1545.35632 1586.0
0.000619 989.72406 1563.06714 1615.0
0.000578 989.29968 1578.51746 1730.0
0.000601 988.87549 1591.79504 1663.0
0.000602 988.45111 1603.09363 1661.0
0.000606 988.02692 1612.68323 1649.0
0.000607 987.60272 1620.86682 1648.0
0.000632 987.17841 1627.93396 1583.0
0.000621 986.75415 1634.13367 1610.0
0.000650 986.32983 1639.74841 1538.0
0.000658 985.90564 1644.67297 1519.0
0.000644 985.48126 1649.03369 1552.0
0.000630 985.05707 1652.81482 1587.0
0.000653 984.63269 1655.87231 1532.0
0.000649 984.20850 1658.11145 1541.0
0.000616 983.78430 1659.40747 1623.0
0.000641 983.35999 1659.65088 1560.0
0.000617 982.93579 1658.76538 1622.0
0.000593 982.51141 1656.30225 1686.0
0.000641 982.08722 1653.08276 1561.0
0.000594 981.66284 1648.71509 1684.0
0.000630 981.23865 1643.22900 1587.0
0.000626 980.81427 1636.82800 1597.0
0.000618 980.39008 1629.20898 1619.0
0.000624 979.96588 1620.42993 1602.0
0.000629 979.54156 1610.50562 1589.0
0.000693 979.11737 1599.39771 1444.0
0.000668 978.69299 1587.08057 1496.0
0.000620 978.26880 1573.57092 1614.0
0.000656 977.84442 1558.88599 1524.0
0.000687 977.42023 1543.12512 1456.0
0.000666 976.99603 1526.41382 1502.0
0.000688 976.57166 1508.90063 1454.0
0.000678 976.14746 1490.75085 1475.0
0.000722 975.72314 1472.12280 1385.0
0.000704 975.29895 1453.16260 1420.0
0.000715 974.87457 1434.07935 1399.0
0.000733 974.45038 1414.78625 1364.0
0.000714 974.02600 1395.43799 1401.0
0.000736 973.60181 1376.07788 1358.0
0.000734 973.17761 1356.74414 1362.0
0.000770 972.75323 1337.47437 1298.0
0.000754 972.32904 1318.32129 1327.0
0.000741 971.90472 1299.35474 1349.0
0.000797 971.48053 1280.66370 1254.0
0.000794 971.05615 1262.35266 1259.0
0.000816 970.63196 1244.53345 1225.0
0.000824 970.20758 1227.31714 1214.0
0.000835 969.78339 1210.80664 1197.0
0.000835 969.35919 1195.08752 1197.0
0.000805 968.93488 1180.22949 1243.0
0.000849 968.51068 1166.28064 1178.0
0.000854 968.08630 1153.27100 1171.0
0.000874 967.66211 1141.21558 1144.0
0.000836 967.23773 1130.11230 1196.0
0.000876 966.81354 1119.94946 1141.0
0.000911 966.38934 1110.70642 1098.0
0.000925 965.96497 1102.35559 1081.0
0.000872 965.54077 1094.95239 1147.0
0.000894 965.11646 1088.28711 1118.0
0.000920 964.69226 1082.41052 1087.0
0.000932 964.26788 1077.28467 1073.0
0.000865 963.84369 1072.87402 1156.0
0.000932 963.41931 1069.14087 1073.0
0.000915 962.99512 1066.04993 1093.0
0.000923 962.57092 1063.56812 1084.0
0.000940 962.14655 1061.66296 1064.0
0.000929 961.72235 1060.36414 1077.0
0.000933 961.29803 1059.52393 1072.0
0.000939 960.87384 1059.17493 1065.0
0.000926 960.44946 1059.28992 1080.0
0.000950 960.02527 1059.84412 1053.0
0.000924 959.60089 1060.81140 1082.0
0.000907 959.17670 1062.20935 1102.0
0.000947 958.75250 1063.92395 1056.0
0.000927 958.32813 1065.97205 1079.0
0.000869 957.90393 1068.32532 1151.0
0.000925 957.47961 1070.95410 1081.0
0.000887 957.05542 1073.83093 1127.0
0.000925 956.63104 1076.92480 1081.0
0.000935 956.20685 1080.20984 1070.0
0.000901 955.78265 1083.65771 1110.0
0.000903 955.35828 1087.27148 1108.0
0.000906 954.93408 1090.96606 1104.0
0.000922 954.50977 1094.74231 1085.0
0.000876 954.08551 1098.56946 1141.0
0.000911 953.66119 1102.41016 1098.0
0.000941 953.23700 1106.23120 1063.0
0.000877 952.81262 1109.96582 1140.0
0.000846 952.38843 1113.56726 1182.0
0.000918 951.96423 1116.97375 1089.0
0.000880 951.53986 1120.12500 1137.0
0.000810 951.11566 1122.96362 1235.0
0.000886 950.69135 1125.44165 1129.0
0.000864 950.26715 1127.52820 1158.0
0.000831 949.84277 1129.21057 1203.0
0.000871 949.41858 1130.50171 1148.0
0.000817 948.99420 1131.43811 1224.0
0.000864 948.57001 1132.08203 1158.0
0.000880 948.14581 1132.50989 1137.0
0.000860 947.72144 1132.81421 1163.0
0.000861 947.29724 1133.09229 1162.0
0.000877 946.87292 1133.44397 1140.0
0.000847 946.44873 1133.95081 1180.0
0.000795 946.02435 1134.69629 1258.0
0.000823 945.60016 1135.74255 1215.0
0.000803 945.17596 1137.13757 1245.0
0.000821 944.75159 1138.91113 1218.0
0.000814 944.32739 1141.07788 1229.0
0.000888 943.90302 1143.63269 1126.0
0.000829 943.47882 1146.55725 1207.0
0.000835 943.05450 1149.81506 1197.0
0.000827 942.63031 1153.35547 1209.0
0.000811 942.20593 1157.11157 1233.0
0.000817 941.78174 1161.00110 1224.0
0.000831 941.35754 1164.94446 1204.0
0.000787 940.93317 1168.79932 1270.0
0.000775 940.50897 1172.46838 1291.0
0.000775 940.08459 1175.64172 1290.0
0.000762 939.66040 1178.58728 1312.0
0.000733 939.23608 1181.01196 1364.0
0.000748 938.81189 1182.83655 1337.0
0.000785 938.38751 1184.01062 1274.0
0.000764 937.96332 1184.51733 1309.0
0.000772 937.53912 1184.37769 1295.0
0.000786 937.11475 1183.64758 1272.0
0.000754 936.69055 1182.41284 1326.0
0.000789 936.26624 1180.77637 1268.0
0.000774 935.84204 1178.85547 1292.0
0.000787 935.41766 1176.76611 1271.0
0.000780 934.99347 1174.61060 1282.0
0.000774 934.56927 1172.52002 1292.0
0.000771 934.14490 1170.57727 1297.0
0.000766 933.72070 1168.86792 1306.0
0.000765 933.29633 1167.46936 1308.0
0.000765 932.87213 1166.45459 1307.0
0.000789 932.44781 1165.89600 1268.0
0.000763 932.02362 1165.86865 1310.0
0.000778 931.59924 1166.45496 1285.0
0.000826 931.17505 1167.74438 1210.0
0.000773 930.75085 1169.83508 1293.0
0.000789 930.32648 1172.83228 1268.0
0.000789 929.90228 1176.84412 1267.0
0.000799 929.47791 1181.97986 1251.0
0.000813 929.05371 1188.34937 1230.0
0.000808 928.62939 1196.05603 1238.0
0.000780 928.20520 1205.19971 1282.0
0.000797 927.78082 1215.86890 1254.0
0.000766 927.35663 1228.14209 1306.0
0.000780 926.93243 1242.08386 1282.0
0.000778 926.50806 1257.74097 1286.0
0.000773 926.08386 1275.14307 1293.0
0.000761 925.65948 1294.30115 1314.0
0.000805 925.23529 1315.20435 1242.0
0.000766 924.81097 1337.82544 1305.0
0.000758 924.38678 1362.12134 1319.0
0.000724 923.96259 1388.03674 1381.0
0.000720 923.53821 1415.50562 1388.0
0.000732 923.11401 1444.45862 1367.0
0.000693 922.68964 1474.82227 1444.0
0.000684 922.26544 1506.51892 1461.0
0.000717 921.84113 1539.46448 1394.0
0.000673 921.41687 1573.55994 1485.0
0.000680 920.99255 1608.68420 1470.0
0.000641 920.56836 1644.32739 1559.0
0.000674 920.14417 1680.99231 1484.0
0.000657 920.14172 1718.47961 1522.0
0.000638 920.28540 1756.17981 1567.0
0.000631 920.42914 1793.53967 1586.0
0.000618 920.57281 1830.08118 1617.0
0.000611 920.71655 1865.27271 1638.0
0.000576 920.86023 1898.55017 1736.0
0.000580 921.00391 1929.35620 1724.0
0.000579 921.14758 1957.23047 1727.0
0.000560 921.29126 1981.65051 1787.0
0.000544 921.43500 2002.36975 1837.0
0.000574 921.57867 2019.35278 1741.0
0.000535 921.72241 2031.87915 1870.0
0.000541 921.86609 2041.12988 1847.0
0.000530 922.00983 2046.81689 1888.0
0.000517 922.15350 2049.16748 1936.0
0.000539 922.29718 2048.39917 1856.0
0.000518 922.44092 2044.68457 1929.0
0.000560 922.58459 2038.13416 1787.0
0.000523 922.72827 2028.78894 1911.0
0.000543 922.87195 2016.63611 1840.0
0.000543 923.01569 2001.63647 1841.0
0.000560 923.15936 1983.76355 1785.0
0.000528 923.30310 1963.06982 1893.0
0.000539 923.44678 1939.61462 1854.0
0.000567 923.59045 1913.64404 1763.0
0.000562 923.73419 1885.54724 1780.0
0.000566 923.87787 1855.63647 1766.0
0.000566 924.02161 1824.46582 1768.0
0.000606 924.16528 1792.59436 1651.0
0.000604 924.30902 1760.50464 1657.0
0.000611 924.45270 1728.73267 1638.0
0.000611 924.59637 1697.74536 1638.0
0.000614 924.74005 1667.95642 1629.0
0.000631 924.88373 1639.72461 1585.0
0.000652 925.02747 1613.35852 1534.0
0.000661 925.17114 1589.12463 1513.0
0.000697 925.31488 1567.25647 1435.0
0.000693 925.45856 1547.96655 1442.0
0.000668 925.60229 1531.45300 1497.0
0.000657 925.74597 1517.89697 1522.0
0.000674 925.88965 1507.47107 1483.0
0.000673 926.03339 1500.32629 1485.0
0.000678 926.17706 1496.59448 1474.0
0.000689 926.32074 1496.39404 1451.0
0.000686 926.46442 1499.77332 1457.0
0.000678 926.60815 1506.79297 1475.0
0.000660 926.75183 1517.46521 1515.0
0.000681 926.89557 1531.76941 1468.0
0.000677 927.03925 1549.64795 1477.0
0.000704 927.18292 1571.00342 1420.0
0.000710 927.32666 1595.68970 1408.0
0.000633 927.47034 1623.51550 1581.0
0.000684 927.61407 1654.22717 1463.0
0.000633 927.75775 1687.51306 1580.0
0.000609 927.90143 1722.98779 1642.0
0.000649 928.04510 1760.19336 1541.0
0.000623 928.18884 1798.59399 1606.0
0.000611 928.33252 1837.57385 1636.0
0.000597 928.47620 1876.44507 1675.0
0.000564 928.61993 1914.45972 1773.0
0.000577 928.76361 1950.83374 1733.0
0.000543 928.90735 1984.78052 1841.0
0.000515 929.05103 2015.55408 1941.0
0.000531 929.19476 2042.50085 1883.0
0.000500 929.33844 2065.10181 1999.0
0.000504 929.48212 2083.01709 1983.0
0.000498 929.62579 2096.09229 2009.0
0.000485 929.76947 2104.36450 2060.0
0.000485 929.91321 2108.03027 2061.0
0.000508 930.05688 2107.39966 1969.0
0.000464 930.20062 2102.84448 2156.0
0.000492 930.34430 2094.74414 2033.0
0.000491 930.48804 2083.43555 2038.0
0.000483 930.63171 2069.19165 2069.0
0.000471 930.77539 2052.25439 2124.0
0.000479 930.91913 2032.62939 2086.0
0.000484 931.06281 2010.41992 2065.0
0.000485 931.20654 1985.64966 2061.0
0.000498 931.35016 1958.34753 2010.0
0.000482 931.49390 1928.58691 2076.0
0.000507 931.63757 1896.50903 1973.0
0.000501 931.78131 1862.34058 1997.0
0.000544 931.92499 1826.38757 1837.0
0.000533 932.06866 1789.02563 1876.0
0.000541 932.21240 1750.67065 1850.0
0.000556 932.35608 1711.75427 1797.0
0.000590 932.49982 1672.69434 1694.0
0.000549 932.64349 1633.87646 1822.0
0.000606 932.78723 1595.63843 1649.0
0.000590 932.93091 1558.26648 1696.0
0.000624 933.07452 1522.01563 1602.0
0.000636 933.21826 1487.01794 1573.0
0.000586 933.36194 1453.43921 1707.0
0.000662 933.50568 1421.38721 1510.0
0.000678 933.64935 1390.94666 1476.0
0.000683 933.79309 1362.18518 1464.0
0.000695 933.93677 1335.16284 1439.0
0.000739 934.08051 1309.93005 1353.0
0.000709 934.22418 1286.53552 1411.0
0.000723 934.36786 1265.02209 1384.0
0.000746 934.51160 1245.42700 1340.0
0.000739 934.65527 1228.12427 1354.0
0.000754 934.79895 1212.46094 1327.0
0.000781 934.94263 1198.81409 1281.0
0.000762 935.08636 1187.15259 1312.0
0.000832 935.23004 1177.49817 1202.0
0.000810 935.37378 1169.83813 1234.0
0.000799 935.51746 1164.14978 1252.0
0.000822 935.66113 1160.39331 1217.0
0.000779 935.80487 1158.58728 1284.0
0.000841 935.94855 1158.50183 1189.0
0.000787 936.09229 1160.11328 1271.0
0.000800 936.23596 1163.29907 1250.0
0.000851 936.37964 1167.91272 1175.0
0.000813 936.52332 1173.78589 1230.0
0.000811 936.66699 1180.73621 1233.0
0.000816 936.81073 1188.70764 1225.0
0.000793 936.95441 1197.15088 1261.0
0.000801 937.09814 1206.01074 1248.0
0.000794 937.24182 1215.03308 1260.0
0.000775 937.38556 1223.99805 1291.0
0.000790 937.52924 1232.68823 1266.0
0.000766 937.67297 1240.90686 1305.0
0.000717 937.81665 1248.49097 1394.0
0.000773 937.96033 1255.34985 1294.0
0.000747 938.10400 1261.32227 1338.0
0.000737 938.24768 1266.40247 1356.0
0.000781 938.39142 1270.59204 1280.0
0.000698 938.53510 1273.92468 1433.0
0.000728 938.67883 1276.46667 1374.0
0.000782 938.82251 1278.30701 1278.0
0.000765 938.96625 1279.55322 1308.0
0.000727 939.10992 1280.30933 1376.0
0.000729 939.25360 1280.69043 1372.0
0.000744 939.39734 1280.80017 1344.0
0.000708 939.54102 1280.68542 1413.0
0.000762 939.68475 1280.49109 1313.0
0.000775 939.82837 1280.21997 1290.0
0.000794 939.97211 1279.89270 1260.0
0.000722 940.11578 1279.50879 1385.0
0.000741 940.25946 1279.05139 1349.0
0.000803 940.40320 1278.49377 1245.0
0.000781 940.54688 1277.80090 1281.0
0.000807 940.69061 1276.93604 1239.0
0.000763 940.83429 1275.86414 1310.0
0.000775 940.97803 1274.55640 1290.0
0.000732 941.12170 1272.99268 1366.0
0.000751 941.26544 1271.15979 1331.0
0.000759 941.40912 1268.25708 1317.0
0.000762 941.55273 1265.87073 1313.0
0.000724 941.69647 1263.19434 1381.0
0.000793 941.84015 1260.20935 1261.0
0.000787 941.98389 1256.88855 1270.0
0.000786 942.12756 1253.19861 1272.0
0.000778 942.27130 1248.75171 1286.0
0.000808 942.41498 1244.23535 1238.0
0.000806 942.55872 1239.28406 1240.0
0.000814 942.70239 1233.91003 1229.0
0.000801 942.84607 1228.14856 1248.0
0.000821 942.98981 1222.05212 1218.0
0.000819 943.13348 1215.69080 1221.0
0.000821 943.27716 1209.14124 1218.0
0.000824 943.42084 1202.47986 1213.0
0.000784 943.56458 1195.78137 1276.0
0.000808 943.70825 1189.11096 1237.0
0.000867 943.85193 1182.52576 1153.0
0.000839 943.99567 1176.07263 1192.0
0.000831 944.13934 1169.79077 1203.0
0.000876 944.28308 1163.71680 1142.0
0.000854 944.42676 1157.88684 1171.0
0.000819 944.57050 1152.36743 1221.0
0.000880 944.71417 1147.16028 1136.0
0.000861 944.85785 1142.35168 1161.0
0.000864 945.00153 1138.01428 1158.0
0.000895 945.14520 1134.22656 1117.0
0.000826 945.28894 1131.06982 1211.0
0.000870 945.43262 1128.62854 1149.0
0.000888 945.57635 1126.97864 1126.0
0.000883 945.72003 1126.19348 1132.0
0.000865 945.86377 1126.33386 1156.0
0.000873 946.00745 1127.45532 1146.0
0.000928 946.15118 1129.60461 1078.0
0.000847 946.29486 1132.81934 1181.0
0.000896 946.43854 1137.12927 1116.0
0.000943 946.58221 1142.55542 1061.0
0.000895 946.72589 1149.11243 1117.0
0.000912 946.86963 1156.80774 1097.0
0.000853 947.01331 1165.63745 1173.0
0.000921 947.15704 1175.59412 1086.0
0.000883 947.30072 1186.65649 1133.0
0.000851 947.44440 1198.79602 1175.0
0.000850 947.58813 1211.97229 1177.0
0.000860 947.73181 1226.13171 1163.0
0.000820 947.87555 1241.20764 1220.0
0.000823 948.01923 1257.11621 1215.0
0.000818 948.16296 1273.75732 1223.0
0.000795 948.30658 1291.00806 1258.0
0.000790 948.45032 1308.72693 1266.0
0.000822 948.59399 1326.74585 1217.0
0.000803 948.73767 1344.87354 1245.0
0.000781 948.88141 1362.89551 1280.0
0.000774 949.02509 1380.57751 1292.0
0.000728 949.16882 1397.66992 1374.0
0.000755 949.31250 1413.92200 1325.0
0.000789 949.45624 1429.08728 1267.0
0.000733 949.59991 1442.94287 1364.0
0.000731 949.74365 1455.30054 1368.0
0.000721 949.88733 1466.02283 1387.0
0.000704 950.03101 1475.02722 1421.0
0.000724 950.17468 1482.29126 1382.0
0.000710 950.31836 1487.85034 1409.0
0.000704 950.46210 1491.78638 1421.0
0.000716 950.60577 1494.21313 1397.0
0.000708 950.74951 1495.26111 1413.0
0.000706 950.89319 1495.06165 1416.0
0.000682 951.03687 1493.73413 1467.0
0.000723 951.18060 1491.37463 1383.0
0.000692 951.32428 1488.05310 1446.0
0.000657 951.46802 1483.81506 1522.0
0.000740 951.61169 1478.68091 1352.0
0.000699 951.75537 1472.66235 1431.0
0.000687 951.89905 1465.76672 1456.0
0.000665 952.04279 1458.00818 1503.0
0.000715 952.18646 1449.42102 1398.0
0.000706 952.33014 1440.05859 1416.0
0.000722 952.47388 1430.00562 1386.0
0.000711 952.61755 1419.36890 1406.0
0.000755 952.76129 1408.27881 1325.0
0.000709 952.90497 1396.87915 1411.0
0.000719 953.04871 1385.32043 1390.0
0.000742 953.19238 1373.75220 1348.0
0.000712 953.33606 1362.62146 1404.0
0.000756 953.47974 1351.44995 1323.0
0.000769 953.62341 1340.65515 1300.0
0.000792 953.76715 1330.33142 1262.0
0.000755 953.91083 1320.55249 1325.0
0.000794 954.05457 1311.37195 1260.0
0.000776 954.19824 1302.82556 1289.0
0.000809 954.34198 1294.92688 1236.0
0.000822 954.48566 1287.67334 1217.0
0.000855 954.62933 1281.04663 1170.0
0.000801 954.77307 1275.01331 1248.0
0.000815 954.91675 1269.52747 1227.0
0.000793 955.06042 1264.53333 1261.0
0.000874 955.20410 1259.96313 1144.0
0.000806 955.34784 1255.74414 1240.0
0.000812 955.49152 1251.79407 1232.0
0.000832 955.63525 1248.18323 1202.0
0.000820 955.77893 1244.53003 1219.0
0.000824 955.92261 1240.90784 1213.0
0.000806 956.06635 1237.24963 1240.0
0.000839 956.21002 1233.50244 1192.0
0.000806 956.35376 1229.62512 1240.0
0.000845 956.49744 1225.60120 1184.0
0.000879 956.64117 1221.40710 1138.0
0.000898 956.78479 1217.05713 1114.0
0.000843 956.92853 1212.56958 1186.0
0.000849 957.07220 1207.97095 1178.0
0.000816 957.21588 1203.29431 1226.0
0.000827 957.35962 1198.57629 1209.0
0.000818 957.50330 1193.85364 1223.0
0.000877 957.64703 1189.24463 1140.0
0.000829 957.79071 1184.62634 1207.0
0.000869 957.93445 1180.12109 1151.0
0.000845 958.07813 1175.77551 1184.0
0.000869 958.22180 1171.64453 1151.0
0.000831 958.36554 1167.79395 1204.0
0.000803 958.50922 1164.30396 1245.0
0.000812 958.65289 1161.26941 1231.0
0.000835 958.79657 1158.80615 1198.0
0.000869 958.94031 1157.03149 1151.0
0.000842 959.08398 1156.09009 1187.0
0.000798 959.22772 1156.13110 1253.0
0.000824 959.37140 1157.30994 1213.0
0.000831 959.51508 1159.78210 1203.0
0.000842 959.65881 1163.69922 1187.0
0.000818 959.80249 1169.20044 1222.0
0.000778 959.94623 1176.44739 1285.0
0.000801 960.08990 1185.45911 1248.0
0.000785 960.23358 1196.34375 1274.0
0.000767 960.37726 1209.13232 1304.0
0.000755 960.52100 1223.81677 1324.0
0.000783 960.66467 1240.37939 1277.0
0.000747 960.61823 1258.44885 1338.0
0.000762 960.55396 1278.07642 1312.0
0.000766 960.48969 1299.06738 1306.0
0.000686 960.42535 1321.15540 1457.0
0.000718 960.36108 1344.01965 1392.0
0.000694 960.29681 1367.28992 1441.0
0.000676 960.23248 1390.55066 1479.0
0.000661 960.16821 1413.32617 1513.0
0.000639 960.10394 1435.18347 1566.0
0.000665 960.03967 1455.60950 1504.0
0.000648 959.97534 1474.12500 1544.0
0.000588 959.91107 1490.28552 1702.0
0.000610 959.84680 1503.70850 1640.0
0.000587 959.78253 1514.10034 1704.0
0.000608 959.71820 1521.29614 1646.0
0.000603 959.65393 1525.36414 1658.0
0.000612 959.58966 1526.05933 1633.0
0.000644 959.52533 1523.71204 1553.0
0.000643 959.46106 1518.57007 1556.0
0.000652 959.39679 1510.93005 1534.0
0.000669 959.33252 1501.07996 1494.0
0.000628 959.26819 1489.37024 1592.0
0.000638 959.20392 1476.04895 1567.0
0.000669 959.13965 1461.35010 1494.0
0.000695 959.07538 1445.46289 1439.0
0.000690 959.01111 1428.53699 1449.0
0.000693 958.94678 1410.69043 1443.0
0.000670 958.88251 1392.02173 1493.0
0.000683 958.81818 1372.62134 1464.0
0.000746 958.75391 1352.50232 1341.0
0.000693 958.68964 1331.95459 1443.0
0.000759 958.62537 1311.11279 1318.0
0.000743 958.56110 1289.97791 1346.0
0.000721 958.49677 1268.80823 1387.0
0.000746 958.43250 1247.78979 1341.0
0.000778 958.36823 1227.10474 1285.0
0.000796 958.30396 1206.92322 1256.0
0.000822 958.23962 1187.39868 1216.0
0.000810 958.17535 1168.66406 1235.0
0.000865 958.11102 1150.82788 1156.0
0.000861 958.04675 1133.97961 1162.0
0.000863 957.98248 1118.18506 1159.0
0.000923 957.91821 1103.49011 1084.0
0.000900 957.85394 1089.78784 1111.0
0.000905 957.78961 1077.35510 1105.0
0.000939 957.72534 1066.04932 1065.0
0.000968 957.66107 1055.84753 1033.0
0.000972 957.59680 1046.71240 1029.0
0.001009 957.53247 1038.59692 991.0
0.000992 957.46820 1031.44421 1008.0
0.000949 957.40393 1025.18982 1054.0
0.000991 957.33960 1019.76642 1009.0
0.000979 957.27533 1015.10394 1021.0
0.000965 957.21106 1011.13263 1036.0
0.001007 957.14679 1007.78351 993.0
0.001037 957.08246 1004.99261 964.0
0.001010 957.01819 1002.69983 990.0
0.000980 956.95392 1000.85083 1020.0
0.000972 956.88965 999.39795 1029.0
0.000970 956.82532 998.29901 1031.0
0.000987 956.76105 997.52087 1013.0
0.001062 956.69678 997.03418 942.0
0.001041 956.63245 996.81812 961.0
0.000943 956.56818 996.85669 1060.0
0.001021 956.50391 997.13855 979.0
0.000960 956.43964 997.65753 1042.0
0.000984 956.37537 998.41077 1016.0
0.001032 956.31104 999.39777 969.0
0.000997 956.24677 1000.66339 1003.0
0.001020 956.18250 1002.18170 980.0
0.001031 956.11816 1003.89172 970.0
0.000951 956.05389 1005.85101 1051.0
0.001005 955.98962 1008.06183 995.0
0.001007 955.92529 1010.52692 993.0
0.000995 955.86102 1013.24567 1005.0
0.000994 955.79675 1016.21558 1006.0
0.001106 955.73248 1019.42993 904.0
0.001059 955.66821 1022.87994 944.0
0.000980 955.60388 1026.55176 1020.0
0.000968 955.53961 1030.42749 1033.0
0.000967 955.47534 1034.48425 1034.0
0.000946 955.41101 1038.69275 1057.0
0.000997 955.34674 1043.02161 1003.0
0.000976 955.28247 1047.42969 1025.0
0.000967 955.21820 1051.89185 1034.0
0.001035 955.15387 1056.34375 966.0
0.000959 955.08960 1060.69580 1043.0
0.000953 955.02533 1064.91443 1049.0
0.000922 954.96106 1068.94165 1085.0
0.000926 954.89673 1072.73621 1080.0
0.000907 954.83246 1076.21240 1102.0
0.000917 954.76819 1079.34961 1091.0
0.000921 954.70386 1082.12268 1086.0
0.000933 954.63959 1084.52527 1072.0
0.000925 954.57532 1086.56689 1081.0
0.000895 954.51105 1088.27136 1117.0
0.000912 954.44672 1089.67322 1096.0
0.000923 954.38245 1090.81104 1083.0
0.000934 954.31818 1091.72302 1071.0
0.000951 954.25391 1092.44348 1052.0
0.000936 954.18958 1093.09778 1068.0
0.000910 954.12531 1093.49341 1099.0
0.000948 954.06104 1093.73083 1055.0
0.000908 953.99670 1093.79785 1101.0
0.000923 953.93243 1093.67126 1083.0
0.000955 953.86816 1093.32141 1047.0
0.000939 953.80389 1092.72339 1065.0
0.000940 953.73962 1091.82690 1064.0
0.000885 953.67529 1090.61316 1130.0
0.000884 953.61102 1089.06262 1131.0
0.000936 953.54675 1087.16724 1068.0
0.000883 953.48242 1084.92871 1132.0
0.000874 953.41815 1082.36426 1144.0
0.000916 953.35388 1079.50073 1092.0
0.000914 953.28955 1076.37793 1094.0
0.000880 953.22528 1073.04346 1136.0
0.000927 953.16101 1069.60376 1079.0
0.000941 953.09674 1066.01587 1063.0
0.000929 953.03247 1062.39160 1077.0
0.000921 952.96814 1058.79309 1086.0
0.000964 952.90387 1055.28027 1037.0
0.000949 952.83960 1051.91284 1054.0
0.000949 952.77527 1048.74878 1054.0
0.000973 952.71100 1045.84460 1028.0
0.000932 952.64673 1043.25696 1073.0
0.000985 952.58246 1041.04407 1015.0
0.001005 952.51813 1039.26428 995.0
0.001030 952.45386 1037.98193 971.0
0.000956 952.38959 1037.26270 1046.0
0.000975 952.32532 1037.17798 1026.0
0.000932 952.26099 1037.80310 1073.0
0.000956 952.19672 1039.21558 1046.0
0.000947 952.13245 1041.49292 1056.0
0.000995 952.06812 1044.71057 1005.0
0.000962 952.00385 1048.93701 1039.0
0.000935 951.93958 1054.23242 1070.0
0.000995 951.87531 1060.64075 1005.0
0.000977 951.81097 1068.19043 1024.0
0.000963 951.74670 1076.73853 1038.0
0.000944 951.68243 1086.56531 1059.0
0.000995 951.61816 1097.47571 1005.0
0.000923 951.55389 1109.39575 1083.0
0.000917 951.48956 1122.22144 1091.0
0.000974 951.42529 1135.81934 1027.0
0.000961 951.36096 1150.02856 1041.0
0.000909 951.29669 1164.66150 1100.0
0.000936 951.23242 1179.51038 1068.0
0.000878 951.16815 1194.34912 1139.0
0.000931 951.10382 1208.94189 1074.0
0.000895 951.03955 1223.17554 1117.0
0.000862 950.97528 1236.56750 1160.0
0.000870 950.91101 1249.03357 1150.0
0.000789 950.84674 1259.03210 1267.0
0.000803 950.78241 1269.09985 1245.0
0.000832 950.71814 1277.78345 1202.0
0.000814 950.65381 1285.01965 1228.0
0.000867 950.58954 1290.79016 1154.0
0.000830 950.52527 1295.11462 1205.0
0.000802 950.46100 1298.04150 1247.0
0.000870 950.39673 1299.63367 1150.0
0.000845 950.33240 1299.96313 1184.0
0.000834 950.26813 1299.09888 1199.0
0.000812 950.20386 1297.10413 1232.0
0.000825 950.13959 1294.03223 1212.0
0.000829 950.07526 1289.92920 1206.0
0.000826 950.01099 1284.83362 1211.0
0.000836 949.94672 1278.84729 1196.0
0.000797 949.88239 1271.88586 1255.0
0.000840 949.81812 1264.06604 1191.0
0.000866 949.75385 1255.44421 1155.0
0.000800 949.68958 1246.10278 1250.0
0.000858 949.62524 1236.13525 1165.0
0.000865 949.56097 1225.64832 1156.0
0.000858 949.49670 1214.75623 1165.0
0.000867 949.43243 1203.57410 1154.0
0.000892 949.36810 1192.21741 1121.0
0.000877 949.30383 1180.79468 1140.0
0.000890 949.23956 1169.47253 1123.0
0.000873 949.17523 1158.21204 1145.0
0.000916 949.11096 1147.25989 1092.0
0.000885 949.04669 1136.49829 1130.0
0.000916 948.98242 1126.09338 1092.0
0.000951 948.91815 1116.10901 1052.0
0.000917 948.85382 1106.60339 1091.0
0.000917 948.78955 1097.63269 1091.0
0.000958 948.72528 1089.24536 1044.0
0.000929 948.66095 1081.48340 1076.0
0.000913 948.59668 1074.38257 1095.0
0.000939 948.53241 1067.96692 1065.0
0.000974 948.46808 1062.29346 1027.0
0.000951 948.40381 1057.28455 1052.0
0.000924 948.33954 1052.97302 1082.0
0.000938 948.27527 1049.33948 1066.0
0.000969 948.21100 1046.35486 1032.0
0.000928 948.14667 1044.03491 1078.0
0.000979 948.08240 1042.27747 1021.0
0.000963 948.01813 1040.97095 1038.0
0.000954 947.95380 1040.10950 1048.0
0.000918 947.88953 1039.63367 1089.0
0.000979 947.82526 1039.46106 1021.0
0.000935 947.76099 1039.52722 1069.0
0.000939 947.69666 1039.75903 1065.0
0.000944 947.63239 1040.08630 1059.0
0.000877 947.56812 1040.44275 1140.0
0.000936 947.50385 1040.76416 1068.0
0.000929 947.43951 1041.01709 1076.0
0.000926 947.37524 1041.11609 1080.0
0.000929 947.31097 1041.04797 1076.0
0.000895 947.24664 1040.78931 1117.0
0.000948 947.18237 1040.33069 1055.0
0.000966 947.11810 1039.67041 1035.0
0.000921 947.05383 1038.83130 1086.0
0.001000 946.98950 1037.79675 1000.0
0.000993 946.92523 1036.59631 1007.0
0.000965 946.86096 1035.25195 1036.0
0.000990 946.79669 1033.77490 1010.0
0.000927 946.73242 1032.18433 1079.0
0.000978 946.66809 1030.49451 1023.0
0.001026 946.60382 1028.71960 975.0
0.000933 946.53949 1026.87109 1072.0
0.000972 946.47522 1024.95996 1029.0
0.000975 946.41095 1022.99579 1026.0
0.000973 946.34668 1020.98914 1028.0
0.000928 946.28235 1018.95099 1078.0
0.000944 946.21808 1016.89581 1059.0
0.000998 946.15381 1014.83771 1002.0
0.001038 946.08954 1012.79352 963.0
0.000951 946.02527 1010.78198 1052.0
0.000978 945.96094 1008.82898 1022.0
0.000989 945.89667 1006.93988 1011.0
0.000957 945.83234 1005.14288 1045.0
0.000989 945.76807 1003.45831 1011.0
0.000958 945.70380 1001.90692 1044.0
0.001011 945.63953 1000.50983 989.0
0.000971 945.57526 999.28864 1030.0
0.001086 945.51093 998.26349 921.0
0.000975 945.44666 997.45636 1026.0
0.000984 945.38239 996.88770 1016.0
0.001007 945.31812 996.57733 993.0
0.001012 945.25378 996.54431 988.0
0.001043 945.18951 996.80750 959.0
0.001008 945.12524 997.38379 992.0
0.000937 945.06091 998.28845 1067.0
0.001022 944.99664 999.53735 978.0
0.001062 944.93237 1001.14764 942.0
0.000978 944.86810 1003.12311 1023.0
0.000990 944.80377 1005.47858 1010.0
0.001071 944.73950 1008.22302 934.0
0.000944 944.67523 1011.36377 1059.0
0.001006 944.61096 1014.90692 994.0
0.000956 944.54663 1018.85693 1046.0
0.000941 944.48236 1023.26019 1063.0
0.001013 944.41809 1028.02954 987.0
0.001001 944.35376 1033.20935 999.0
0.001027 944.28949 1038.79639 974.0
0.000962 944.22522 1044.78772 1039.0
0.000978 944.16095 1051.18066 1023.0
0.000955 944.09668 1057.96704 1047.0
0.000924 944.03235 1065.14368 1082.0
0.000954 943.96808 1072.70544 1048.0
0.000956 943.90381 1080.64783 1046.0
0.000929 943.83948 1088.97168 1077.0
0.000912 943.77521 1097.70154 1096.0
0.000954 943.71094 1106.81030 1048.0
0.000964 943.64661 1116.33667 1037.0
0.000883 943.58234 1126.31213 1133.0
0.000853 943.51807 1136.77563 1172.0
0.000899 943.45380 1147.77600 1112.0
0.000890 943.38953 1159.38489 1123.0
0.000872 943.32520 1171.61060 1147.0
0.000879 943.26093 1184.52991 1138.0
0.000838 943.19666 1198.16260 1193.0
0.000861 943.13232 1212.54053 1161.0
0.000879 943.06805 1227.66711 1138.0
0.000849 943.00378 1243.52710 1178.0
0.000820 942.93951 1260.08191 1219.0
0.000822 942.87518 1277.26831 1217.0
0.000792 942.81091 1294.99805 1262.0
0.000782 942.74664 1313.15320 1279.0
0.000767 942.68237 1331.60425 1303.0
0.000756 942.61804 1350.15991 1323.0
0.000739 942.55377 1368.63513 1353.0
0.000709 942.47235 1386.79443 1410.0
0.000710 942.20776 1404.23193 1409.0
0.000702 941.94324 1420.87878 1424.0
0.000654 941.67859 1436.61389 1528.0
0.000625 941.41406 1450.91760 1599.0
0.000675 941.14941 1463.70496 1481.0
0.000643 940.88489 1474.78613 1556.0
0.000640 940.62030 1484.03369 1562.0
0.000653 940.35577 1491.38232 1532.0
0.000646 940.09125 1496.83362 1549.0
0.000630 939.82660 1500.45166 1587.0
0.000648 939.56207 1502.35071 1543.0
0.000662 939.29742 1502.68311 1510.0
0.000628 939.03290 1501.61926 1592.0
0.000635 938.76831 1499.33203 1576.0
0.000643 938.50378 1495.98474 1556.0
0.000671 938.23914 1491.72131 1490.0
0.000648 937.97461 1486.66260 1544.0
0.000696 937.71008 1480.90674 1437.0
0.000703 937.44550 1474.52979 1422.0
0.000689 937.18097 1467.66406 1452.0
0.000713 936.91632 1460.22839 1402.0
0.000679 936.65179 1452.34875 1473.0
0.000700 936.38715 1444.08875 1429.0
0.000702 936.12262 1435.52551 1424.0
0.000684 935.85809 1426.75037 1461.0
0.000697 935.59351 1417.86670 1434.0
0.000739 935.32898 1408.98291 1353.0
0.000741 935.06433 1400.21094 1350.0
0.000710 934.79980 1391.65210 1409.0
0.000700 934.53516 1383.39612 1428.0
0.000723 934.27063 1375.51697 1384.0
0.000743 934.00604 1368.06433 1346.0
0.000760 933.74152 1361.07483 1315.0
0.000759 933.47699 1354.56519 1318.0
0.000767 933.21234 1348.54431 1304.0
0.000778 932.94781 1343.00989 1286.0
0.000762 932.68323 1337.95764 1313.0
0.000760 932.41870 1333.37976 1316.0
0.000771 932.15405 1329.26550 1297.0
0.000762 931.88953 1325.60254 1312.0
0.000759 931.62488 1322.37146 1317.0
0.000788 931.36035 1319.54626 1269.0
0.000749 931.09583 1317.09216 1335.0
0.000802 930.83124 1314.96851 1247.0
0.000735 930.56671 1313.12683 1360.0
0.000779 930.30206 1311.52087 1284.0
0.000759 930.03754 1310.10217 1318.0
0.000762 929.77289 1308.82703 1312.0
0.000800 929.50836 1307.65710 1250.0
0.000734 929.24384 1306.54517 1362.0
0.000752 928.97925 1305.45264 1329.0
0.000796 928.71472 1304.32935 1256.0
0.000747 928.45007 1303.11914 1338.0
0.000756 928.18555 1301.75208 1323.0
0.000757 927.92090 1300.14917 1321.0
0.000757 927.65643 1298.21997 1321.0
0.000752 927.39178 1295.86499 1329.0
0.000752 927.12726 1292.98206 1329.0
0.000775 926.86273 1289.48706 1290.0
0.000724 926.59808 1285.25037 1382.0
0.000769 926.33356 1280.21497 1301.0
0.000778 926.06897 1274.33130 1285.0
0.000772 925.80444 1267.58398 1295.0
0.000754 925.53979 1259.99377 1327.0
0.000762 925.27527 1251.61670 1313.0
0.000769 925.01062 1242.54114 1301.0
0.000781 924.74609 1232.87805 1281.0
0.000786 924.48157 1222.75122 1273.0
0.000797 924.21698 1212.28931 1254.0
0.000801 923.95245 1201.61621 1248.0
0.000850 923.68781 1190.84375 1177.0
0.000881 923.42328 1180.07361 1135.0
0.000861 923.15863 1169.38770 1161.0
0.000864 922.89410 1158.85266 1158.0
0.000867 922.62958 1148.52075 1154.0
0.000857 922.36499 1138.43921 1167.0
0.000855 922.10046 1128.61987 1170.0
0.000880 921.83582 1119.09570 1137.0
0.000876 921.57129 1109.88818 1142.0
0.000858 921.30670 1101.02112 1165.0
0.000919 921.04218 1092.51917 1088.0
0.000922 920.77753 1084.41162 1085.0
0.000920 920.51300 1076.73022 1087.0
0.000881 920.24847 1069.50635 1135.0
0.000878 919.98383 1062.77051 1139.0
0.000889 919.71930 1056.54883 1125.0
0.000959 919.45471 1050.86255 1043.0
0.000941 919.19019 1045.72510 1063.0
0.000965 918.92554 1041.14160 1036.0
0.000958 918.66101 1037.10791 1044.0
0.000942 918.39636 1033.60986 1062.0
0.000957 918.13184 1030.62427 1045.0
0.000932 917.86731 1028.11804 1073.0
0.000913 917.60272 1026.04797 1095.0
0.000963 917.33820 1024.36255 1038.0
0.000995 917.07355 1023.00275 1005.0
0.000964 916.80902 1021.90387 1037.0
0.000945 916.54443 1020.99652 1058.0
0.000952 916.27991 1020.21289 1050.0
0.000987 916.01538 1019.48383 1013.0
0.000947 915.75073 1018.74896 1056.0
0.000962 915.48621 1017.95349 1039.0
0.001011 915.22156 1017.05463 989.0
0.000951 914.95703 1016.02020 1052.0
0.000934 914.69244 1014.83014 1071.0
0.000926 914.42792 1013.47540 1080.0
0.000914 914.16327 1011.95599 1094.0
0.000963 913.89874 1010.27661 1038.0
0.000929 913.63422 1008.44928 1076.0
0.000962 913.36957 1006.48560 1039.0
0.000924 913.10504 1004.39807 1082.0
0.000961 912.84045 1002.20093 1041.0
0.000962 912.57593 999.90582 1039.0
0.000988 912.31128 997.52374 1012.0
0.000977 912.04675 995.06665 1024.0
0.000949 911.78210 992.54163 1054.0
0.000971 911.51758 989.96136 1030.0
0.000971 911.25305 987.33673 1030.0
0.000918 910.98846 984.68042 1089.0
0.000988 910.72394 981.87921 1012.0
0.001000 910.45929 979.21136 1000.0
0.000975 910.19476 976.56897 1026.0
0.001004 909.93018 973.97614 996.0
0.000974 909.66565 971.45868 1027.0
0.001025 909.40112 969.04346 976.0
0.000974 909.13647 966.75830 1027.0
0.001074 908.87195 964.63086 931.0
0.000954 908.60730 962.68799 1048.0
0.001017 908.34277 960.95709 983.0
0.001016 908.07819 959.46497 984.0
0.001003 907.81366 958.23621 997.0
0.000976 907.54901 957.29871 1025.0
0.001066 907.28448 956.66968 938.0
0.001082 907.01996 956.37262 924.0
0.001022 906.75531 956.42200 978.0
0.001047 906.49078 956.84314 955.0
0.001003 906.22620 957.64307 997.0
0.001055 905.96167 958.83167 948.0
0.001041 905.69702 960.41174 961.0
0.001063 905.43250 962.38391 941.0
0.001059 905.16791 964.74231 944.0
0.001048 904.90338 967.47675 954.0
0.001004 904.63885 970.58417 996.0
0.001014 904.37421 974.01453 986.0
0.001003 904.10968 977.75586 997.0
0.001004 903.84503 981.76782 996.0
0.000976 903.58051 986.01202 1025.0
0.001042 903.31592 990.44122 960.0
0.000972 903.05139 995.00317 1029.0
0.000943 902.78687 999.63409 1061.0
0.000978 902.52222 1004.26794 1023.0
0.000933 902.25769 1008.83466 1072.0
0.000949 901.99304 1013.25726 1054.0
0.000887 901.72852 1017.47174 1127.0
0.000947 901.46393 1021.37488 1056.0
0.000909 901.19940 1024.90991 1100.0
0.000905 900.93475 1028.01416 1105.0
0.000917 900.67023 1030.64185 1091.0
0.000882 900.40570 1032.76294 1134.0
0.000947 900.14105 1034.37500 1056.0
0.000979 899.87653 1035.47339 1021.0
0.000871 899.61194 1035.77161 1148.0
0.000896 899.34741 1035.95178 1116.0
0.000907 899.08276 1035.74011 1103.0
0.000872 898.81824 1035.19019 1147.0
0.000943 898.55365 1034.35522 1060.0
0.000920 898.28912 1033.28638 1087.0
0.000901 898.02460 1032.02942 1110.0
0.000949 897.75995 1030.62476 1054.0
0.000951 897.49542 1029.10742 1052.0
0.000992 897.23077 1027.50745 1008.0
0.000898 896.96625 1025.85889 1113.0
0.000966 896.70166 1024.18140 1035.0
0.000946 896.43713 1022.49664 1057.0
0.001003 896.17261 1020.84344 997.0
0.000967 895.90796 1019.25952 1034.0
0.000959 895.64343 1017.54956 1043.0
0.000929 895.37878 1016.24701 1077.0
0.000999 895.11426 1015.16571 1001.0
0.000978 894.84967 1014.36310 1022.0
0.000980 894.58514 1013.89575 1020.0
0.001011 894.32050 1013.84174 989.0
0.000956 894.05597 1014.19879 1046.0
0.001017 893.79144 1015.03210 983.0
0.000965 893.52686 1016.37238 1036.0
0.001001 893.26233 1018.24097 999.0
0.000930 892.99768 1020.64856 1075.0
0.001017 892.73315 1023.59711 983.0
0.000963 892.46851 1027.07642 1038.0
0.000987 892.20398 1031.07117 1013.0
0.000978 891.93939 1035.54541 1022.0
0.000947 891.67487 1040.49402 1056.0
0.000959 891.41034 1045.81409 1043.0
0.001015 891.14569 1051.47888 985.0
0.001005 890.88116 1057.42908 995.0
0.000961 890.61652 1063.59595 1041.0
0.000988 890.35199 1069.90564 1012.0
0.000947 890.08740 1076.27808 1056.0
0.000983 889.82288 1082.62671 1017.0
0.000942 889.55835 1088.86914 1062.0
0.000908 889.29370 1094.88135 1101.0
0.000919 889.02917 1100.57080 1088.0
0.000929 888.76453 1105.82715 1077.0
0.000941 888.50000 1110.54285 1063.0
0.000943 888.23541 1114.61157 1061.0
0.000863 887.97089 1117.94238 1159.0
0.000865 887.70624 1120.45984 1156.0
0.000902 887.44171 1122.11035 1109.0
0.000888 887.17719 1122.86865 1126.0
0.000872 886.91260 1122.75134 1147.0
0.000918 886.64807 1121.76038 1089.0
0.000884 886.38342 1119.96021 1131.0
0.000945 886.11890 1117.41907 1058.0
0.000943 885.85425 1114.21191 1060.0
0.000924 885.58972 1110.41821 1082.0
0.000972 885.32513 1106.11328 1029.0
0.000885 885.06061 1101.36377 1130.0
0.000953 884.79608 1096.22803 1049.0
0.000897 884.53143 1090.75195 1115.0
0.000957 884.26691 1084.97192 1045.0
0.000932 884.00226 1078.91406 1073.0
0.000948 883.73773 1072.60181 1055.0
0.000972 883.47314 1066.05493 1029.0
0.000943 883.20862 1059.29578 1061.0
0.000894 882.94409 1052.35327 1118.0
0.000976 882.67944 1045.26233 1025.0
0.000961 882.41492 1038.06775 1041.0
0.000993 882.15033 1030.82324 1007.0
0.000963 881.88580 1023.58698 1038.0
0.001037 881.62115 1016.42181 964.0
0.000995 881.35663 1009.53430 1005.0
0.001021 881.09198 1002.70001 979.0
0.001006 880.82745 996.11835 994.0
0.000978 880.56293 989.84052 1022.0
0.001000 880.29834 983.91095 1000.0
0.000985 880.03381 978.36749 1015.0
0.000998 879.76917 973.24036 1002.0
0.001048 879.50464 968.55420 954.0
0.001067 879.23999 964.32654 937.0
0.001093 878.97546 960.55206 915.0
0.001096 878.71088 957.27197 912.0
0.001070 878.44635 954.47076 935.0
0.001067 878.18182 952.14441 937.0
0.001045 877.91718 950.28613 957.0
0.001056 877.65265 948.92206 947.0
0.001055 877.38800 947.96106 948.0
0.001098 877.12347 947.42224 911.0
0.001095 876.85889 947.28363 913.0
0.001053 876.59436 947.59131 950.0
0.001124 876.32983 948.17694 890.0
0.001083 876.06519 949.08191 923.0
0.001091 875.80066 950.27783 917.0
0.001010 875.53607 951.73419 990.0
0.001030 875.27155 953.42169 971.0
0.001036 875.00690 955.30981 965.0
0.001106 874.74237 957.18738 904.0
0.001088 874.47772 959.39740 919.0
0.001100 874.21320 961.72888 909.0
0.001115 873.94867 964.15759 897.0
0.001062 873.68408 966.65869 942.0
0.001028 873.41956 969.20819 973.0
0.001009 873.15491 971.77972 991.0
0.001006 872.89038 974.39056 994.0
0.000956 872.62573 976.92291 1046.0
0.001033 872.36121 979.38922 968.0
0.001044 872.09662 981.75818 958.0
0.001099 871.83209 983.99805 910.0
0.001066 871.56757 986.08136 938.0
0.001038 871.30292 987.99396 963.0
0.001004 871.03839 989.69611 996.0
0.001078 870.77380 991.18787 928.0
0.001011 870.50928 992.46515 989.0
0.001011 870.24463 993.53210 989.0
0.001007 869.98010 994.39703 993.0
0.001096 869.71558 995.07208 912.0
0.001056 869.45093 995.57300 947.0
0.001031 869.18640 995.91260 970.0
0.000994 868.92181 996.10419 1006.0
0.000988 868.65729 996.15918 1012.0
0.001040 868.39264 996.08478 962.0
0.001020 868.12811 995.88562 980.0
0.001068 867.86346 995.57751 936.0
0.001082 867.63617 995.17200 924.0
0.001083 867.51624 994.75153 923.0
0.001064 867.39630 994.20667 940.0
0.001020 867.27637 993.53680 980.0
0.001009 867.15643 992.74127 991.0
0.001068 867.03650 991.82581 936.0
0.000982 866.91656 990.78101 1018.0
0.001049 866.79663 989.61444 953.0
0.001017 866.67670 988.33014 983.0
0.001049 866.55676 986.93066 953.0
0.001031 866.43689 985.42157 970.0
0.001017 866.31689 983.80743 983.0
0.001005 866.19702 982.09698 995.0
0.001017 866.07703 980.29901 983.0
0.001016 865.95715 978.42706 984.0
0.001007 865.83716 976.49451 993.0
0.000979 865.71729 974.51984 1021.0
0.001042 865.59735 972.52118 960.0
0.000978 865.47742 970.51874 1023.0
0.001080 865.35748 968.53107 926.0
0.001078 865.23755 966.57648 928.0
0.001035 865.11761 964.66974 966.0
0.001043 864.99768 962.82312 959.0
0.001006 864.87775 961.04523 994.0
0.001030 864.75781 959.34045 971.0
0.001026 864.63788 957.70966 975.0
0.001022 864.51794 956.15039 978.0
0.001125 864.39801 954.65686 889.0
0.001115 864.27808 953.22150 897.0
0.001085 864.15814 951.83386 922.0
0.001078 864.03821 950.48407 928.0
0.001040 863.91827 949.15912 962.0
0.001030 863.79834 947.84900 971.0
0.001018 863.67841 946.54120 982.0
0.001050 863.55847 945.16541 952.0
0.001074 863.43860 943.83203 931.0
0.001052 863.31860 942.47644 951.0
0.001046 863.19873 941.08813 956.0
0.001038 863.07874 939.66681 963.0
0.001048 862.95886 938.21466 954.0
0.001046 862.83887 936.73468 956.0
0.001052 862.71899 935.23468 951.0
0.001046 862.59906 933.72150 956.0
0.001027 862.47913 932.20428 974.0
0.001075 862.35919 930.69250 930.0
0.001078 862.23926 929.19104 928.0
0.001057 862.11932 927.70551 946.0
0.001064 861.99939 926.23779 940.0
0.001024 861.87946 924.80334 977.0
0.001038 861.75952 923.36133 963.0
0.001079 861.63959 921.92902 927.0
0.001093 861.51965 920.49500 915.0
0.001080 861.39972 919.04956 926.0
0.001066 861.27979 917.58325 938.0
0.001067 861.15985 916.08765 937.0
0.001117 861.03992 914.55731 895.0
0.001057 860.91998 912.98572 946.0
0.001052 860.80005 911.37378 951.0
0.001074 860.68011 909.72382 931.0
0.001142 860.56018 908.04108 876.0
0.001040 860.44031 906.37769 962.0
0.001071 860.32031 904.65613 934.0
0.001049 860.20044 902.93085 953.0
0.001130 860.08044 901.21106 885.0
0.001058 859.96057 899.50836 945.0
0.001055 859.84058 897.82990 948.0
0.001119 859.72070 896.19354 894.0
0.001122 859.60077 894.58691 891.0
0.001098 859.48083 893.02393 911.0
0.001131 859.36090 891.50806 884.0
0.001130 859.24097 890.03998 885.0
0.001138 859.12103 888.62231 879.0
0.001120 859.00110 887.25354 893.0
0.001092 858.88116 885.96417 916.0
0.001131 858.76123 884.69531 884.0
0.001133 858.64130 883.47565 883.0
0.001192 858.52142 882.30493 839.0
0.001189 858.40143 881.18164 841.0
0.001066 858.28156 880.12946 938.0
0.001124 858.16156 879.10431 890.0
0.001140 858.04169 878.12799 877.0
0.001148 857.92169 877.20062 871.0
0.001163 857.80182 876.32166 860.0
0.001115 857.68182 875.49084 897.0
0.001142 857.56195 874.70813 876.0
0.001140 857.44202 873.97290 877.0
0.001178 857.32208 873.28412 849.0
0.001152 857.20215 872.63977 868.0
0.001168 857.08221 872.03955 856.0
0.001163 856.96228 871.48206 860.0
0.001175 856.84235 870.96521 851.0
0.001139 856.72241 870.48737 878.0
0.001119 856.60248 870.06055 894.0
0.001159 856.48254 869.65656 863.0
0.001093 856.36261 869.28546 915.0
0.001205 856.24268 868.94611 830.0
0.001076 856.12274 868.63574 929.0
0.001136 856.00281 868.35895 880.0
0.001172 855.88287 868.10181 853.0
0.001171 855.76294 867.86829 854.0
0.001106 855.64301 867.71545 904.0
0.001107 855.52313 867.52368 903.0
0.001122 855.40314 867.35010 891.0
0.001200 855.28326 867.19354 833.0
0.001178 855.16327 867.05151 849.0
0.001126 855.04340 866.92352 888.0
0.001140 854.92340 866.80896 877.0
0.001092 854.80353 866.70648 916.0
0.001155 854.68353 866.61505 866.0
0.001140 854.56366 866.53436 877.0
0.001138 854.44373 866.46301 879.0
0.001244 854.32379 866.40137 804.0
0.001182 854.20386 866.34900 846.0
0.001152 854.08392 866.30554 868.0
0.001155 853.96399 866.27039 866.0
0.001151 853.84406 866.24329 869.0
0.001110 853.72412 866.22516 901.0
0.001155 853.60425 866.21484 866.0
0.001139 853.48425 866.21283 878.0
0.001111 853.36438 866.24939 900.0
0.001164 853.24438 866.26514 859.0
0.001120 853.12451 866.28955 893.0
0.001103 853.00452 866.32343 907.0
0.001105 852.88464 866.36658 905.0
0.001175 852.76465 866.41931 851.0
0.001171 852.64478 866.48248 854.0
0.001127 852.52484 866.55573 887.0
0.001178 852.40491 866.64032 849.0
0.001098 852.28497 866.73682 911.0
0.001170 852.16504 866.84491 855.0
0.001155 852.04510 866.96625 866.0
0.001079 851.92517 867.10168 927.0
0.001119 851.80524 867.25043 894.0
0.001126 851.68530 867.41541 888.0
0.001136 851.56537 867.59692 880.0
0.001121 851.44543 867.79645 892.0
0.001163 851.32550 868.01501 860.0
0.001127 851.20557 868.25458 887.0
0.001164 851.08563 868.51721 859.0
0.001105 850.96570 868.80444 905.0
0.001129 850.84576 869.11902 886.0
0.001159 850.72583 869.46436 863.0
0.001142 850.60596 869.84253 876.0
0.001096 850.48596 870.25763 912.0
0.001126 850.36609 870.71356 888.0
0.001178 850.24609 871.21564 849.0
0.001133 850.12622 871.76819 883.0
0.001104 850.00623 872.37787 906.0
0.001131 849.88635 873.05078 884.0
0.001153 849.76636 873.79523 867.0
0.001164 849.64648 874.61975 859.0
0.001106 849.52655 875.53278 904.0
0.001134 849.40662 876.54486 882.0
0.001136 849.28668 877.66864 880.0
0.001081 849.16675 878.91589 925.0
0.001143 849.04681 880.30164 875.0
0.001157 848.92688 881.83960 864.0
0.001112 848.80695 883.54718 899.0
0.001083 848.68701 885.44183 923.0
0.001127 848.56708 887.54156 887.0
0.001178 848.44714 889.86658 849.0
0.001110 848.32721 892.43738 901.0
0.001117 848.20728 895.22467 895.0
0.001082 848.08734 898.35138 924.0
0.001163 847.96741 901.78760 860.0
0.001092 847.84747 905.55585 916.0
0.001086 847.72754 909.67719 921.0
0.001066 847.60767 914.17163 938.0
0.001083 847.48767 919.05762 923.0
0.001111 847.36780 924.35120 900.0
0.001101 847.24780 930.06763 908.0
0.001046 847.12793 936.21716 956.0
0.001079 847.00793 942.80786 927.0
0.001127 846.88806 949.84229 887.0
0.001031 846.76807 957.31909 970.0
0.001058 846.64819 965.23169 945.0
0.001041 846.52826 973.57343 961.0
0.001005 846.40833 982.31152 995.0
0.001065 846.28839 991.13837 939.0
0.001078 846.16846 1000.59625 928.0
0.001003 846.04852 1010.35437 997.0
0.000995 845.92859 1020.35992 1005.0
0.001047 845.80865 1030.55115 955.0
0.000946 845.68872 1040.85815 1057.0
0.001008 845.56879 1051.19946 992.0
0.000962 845.44891 1061.48315 1040.0
0.000943 845.32892 1071.61096 1061.0
0.000945 845.20905 1081.47559 1058.0
0.000950 845.08905 1090.96545 1053.0
0.000923 844.96918 1099.96924 1083.0
0.000903 844.84918 1108.37354 1108.0
0.001002 844.72931 1116.07532 998.0
0.000989 844.60938 1122.98157 1011.0
0.000912 844.48944 1129.01135 1097.0
0.000903 844.36951 1134.10645 1108.0
0.000890 844.24957 1138.21716 1124.0
0.000911 844.12964 1141.32568 1098.0
0.000890 844.00970 1143.42615 1124.0
0.000933 843.88977 1144.53699 1072.0
0.000911 843.76984 1144.69128 1098.0
0.000911 843.64990 1143.93555 1098.0
0.000924 843.52997 1142.32568 1082.0
0.000969 843.41003 1139.92249 1032.0
0.000974 843.29010 1136.79309 1027.0
0.000939 843.17017 1132.99866 1065.0
0.000908 843.05023 1128.59644 1101.0
0.000941 842.93030 1123.64026 1063.0
0.000951 842.81036 1118.17346 1052.0
0.000940 842.69043 1112.23816 1064.0
0.000947 842.57050 1105.86719 1056.0
0.000974 842.45062 1099.10193 1027.0
0.000959 842.33063 1091.95117 1043.0
0.000987 842.21075 1084.45630 1013.0
0.000938 842.09076 1076.64917 1066.0
0.000948 841.97089 1068.56653 1055.0
0.001015 841.85089 1060.24817 985.0
0.000971 841.73102 1051.73767 1030.0
0.001009 841.61108 1043.08362 991.0
0.001034 841.49115 1034.33777 967.0
0.001006 841.37122 1025.55200 994.0
0.001024 841.25128 1016.78076 977.0
0.001038 841.13135 1008.07574 963.0
0.001066 841.01141 999.48749 938.0
0.001010 840.89148 991.06079 990.0
0.001081 840.77155 982.83740 925.0
0.001049 840.65161 974.85345 953.0
0.001025 840.53168 967.13849 976.0
0.001074 840.41180 959.71765 931.0
0.001120 840.29187 952.61444 893.0
0.001049 840.17188 945.83112 953.0
0.001040 840.05194 939.38818 962.0
0.001073 839.93207 933.28076 932.0
0.001072 839.81213 927.51337 933.0
0.001074 839.69214 922.08496 931.0
0.001037 839.57227 916.99115 964.0
0.001114 839.45233 912.22479 898.0
0.001062 839.33240 907.77838 942.0
0.001095 839.21240 903.64154 913.0
0.001104 839.09253 899.80878 906.0
0.001172 838.97260 896.25903 853.0
0.001094 838.85266 892.98511 914.0
0.001080 838.73267 889.97504 926.0
0.001151 838.61279 887.21753 869.0
0.001100 838.49286 884.70001 909.0
0.001117 838.37292 882.42981 895.0
0.001103 838.25305 880.35876 907.0
0.001144 838.13306 878.49573 874.0
0.001166 838.01312 876.83051 858.0
0.001116 837.89319 875.35699 896.0
0.001096 837.77332 874.06189 912.0
0.001130 837.65332 872.93982 885.0
0.001114 837.53339 871.98401 898.0
0.001144 837.41351 871.18774 874.0
0.001209 837.29358 870.54486 827.0
0.001202 837.17358 870.04907 832.0
0.001115 837.05365 869.69482 897.0
0.001112 836.93378 869.47668 899.0
0.001126 836.81384 869.38977 888.0
0.001043 836.69385 869.42517 959.0
0.001135 836.57397 869.57684 881.0
0.001062 836.45404 869.84521 942.0
0.001151 836.33411 870.20709 869.0
0.001130 836.21411 870.66174 885.0
0.001085 836.09430 871.20825 922.0
0.001119 835.97430 871.81750 894.0
0.001092 835.85437 872.48761 916.0
0.001166 835.73438 873.20612 858.0
0.001126 835.61456 873.96014 888.0
0.001106 835.49457 874.73505 904.0
0.001131 835.37463 875.51715 884.0
0.001155 835.25476 876.29059 866.0
0.001105 835.13483 877.04181 905.0
0.001111 835.01483 877.75488 900.0
0.001160 834.89490 878.41742 862.0
0.001050 834.77502 879.01691 952.0
0.001101 834.65509 879.54565 908.0
0.001205 834.53510 879.99744 830.0
0.001030 834.41522 880.37006 971.0
0.001096 834.29529 880.66724 912.0
0.001063 834.17535 880.89569 941.0
0.001190 834.05536 881.06873 840.0
0.001155 833.93549 881.19318 866.0
0.001109 833.81555 881.28876 902.0
0.001143 833.72266 881.39954 875.0
0.001167 833.66583 881.55292 857.0
0.001159 833.60895 881.73291 863.0
0.001156 833.55206 881.95770 865.0
0.001059 833.49524 882.24945 944.0
0.001092 833.43842 882.62451 916.0
0.001067 833.38153 883.10370 937.0
0.001119 833.32465 883.70740 894.0
0.001054 833.26776 884.45538 949.0
0.001149 833.21094 885.36871 870.0
0.001070 833.15411 886.47009 935.0
0.001087 833.09723 887.78064 920.0
0.001079 833.04041 889.32599 927.0
0.001044 832.98352 891.13080 958.0
0.001112 832.92670 893.22064 899.0
0.001127 832.86981 895.62152 887.0
0.001086 832.81299 898.35913 921.0
0.001045 832.75610 901.45734 957.0
0.001031 832.69928 904.93884 970.0
0.001136 832.64246 908.82288 880.0
0.001088 832.58557 913.12634 919.0
0.001022 832.52869 917.86169 978.0
0.001062 832.47180 923.03699 942.0
0.001041 832.41504 928.65710 961.0
0.001080 832.35815 934.71851 926.0
0.001057 832.30127 941.21539 946.0
0.001052 832.24445 948.13464 951.0
0.001049 832.18756 955.45813 953.0
0.001041 832.13074 963.16016 961.0
0.001013 832.07385 971.21088 987.0
0.001038 832.01703 979.57257 963.0
0.000997 831.96014 988.20117 1003.0
0.000975 831.90332 997.04572 1026.0
0.000946 831.84644 1006.05029 1057.0
0.000949 831.78961 1015.15057 1054.0
0.000960 831.73273 1024.27612 1042.0
0.000997 831.67590 1033.35107 1003.0
0.000949 831.61908 1042.29370 1054.0
0.000964 831.56219 1051.01941 1037.0
0.000978 831.50531 1059.43921 1023.0
0.000955 831.44843 1067.46655 1047.0
0.000932 831.39160 1075.03467 1073.0
0.000887 831.33478 1082.01794 1128.0
0.000942 831.27789 1088.36023 1062.0
0.000854 831.22107 1093.99158 1171.0
0.000976 831.16418 1098.85254 1025.0
0.000876 831.10736 1102.89661 1141.0
0.000882 831.05048 1106.09290 1134.0
0.000883 830.99365 1108.46960 1132.0
0.000870 830.93677 1109.94531 1149.0
0.000885 830.87994 1110.58557 1130.0
0.000836 830.82312 1110.42761 1196.0
0.000877 830.76624 1109.52356 1140.0
0.000900 830.70935 1107.93591 1111.0
0.000883 830.65253 1105.73132 1133.0
0.000876 830.59570 1102.97986 1142.0
0.000945 830.53882 1099.74585 1058.0
0.000891 830.48193 1096.09375 1122.0
0.000913 830.42505 1092.07813 1095.0
0.000909 830.36823 1087.74768 1100.0
0.000958 830.31140 1083.15393 1044.0
0.000935 830.25452 1078.31323 1070.0
0.000970 830.19769 1073.26184 1031.0
0.000944 830.14081 1068.02783 1059.0
0.000957 830.08398 1062.63477 1045.0
0.000955 830.02710 1057.10486 1047.0
0.000898 829.97028 1051.46313 1114.0
0.001005 829.91339 1045.73499 995.0
0.000983 829.85657 1039.97058 1017.0
0.001043 829.79974 1034.15857 959.0
0.000950 829.74286 1028.35400 1053.0
0.001071 829.68597 1022.58826 934.0
0.000975 829.62909 1016.89502 1026.0
0.001022 829.57227 1011.26666 978.0
0.001040 829.51544 1005.79840 962.0
0.000978 829.45856 1000.47363 1023.0
0.000980 829.40173 995.30688 1020.0
0.000987 829.34485 990.30475 1013.0
0.001040 829.28802 985.46973 962.0
0.001022 829.23114 980.80084 978.0
0.001009 829.17432 976.29443 991.0
0.001103 829.11743 971.94208 907.0
0.001038 829.06061 967.73895 963.0
0.001062 829.00372 963.67786 942.0
0.001053 828.94690 959.75397 950.0
0.001071 828.89001 955.96442 934.0
0.001029 828.83319 952.30676 972.0
0.001065 828.77637 948.78137 939.0
0.001114 828.71948 945.39008 898.0
0.001062 828.66260 942.13507 942.0
0.001015 828.60571 938.98438 985.0
0.001029 828.54889 936.02075 972.0
0.001098 828.49207 933.19165 911.0
0.001100 828.43518 930.50726 909.0
0.001064 828.37836 927.96729 940.0
0.001041 828.32147 925.57019 961.0
0.001095 828.26465 923.31177 913.0
0.001106 828.20776 921.18860 904.0
0.001060 828.15094 919.19427 943.0
0.001088 828.09406 917.32336 919.0
0.001042 828.03723 915.57056 960.0
0.001163 827.98041 913.92920 860.0
0.001107 827.92352 912.40405 903.0
0.001088 827.86664 910.97070 919.0
0.001138 827.80975 909.63354 879.0
0.001068 827.75293 908.38940 936.0
0.001125 827.69611 907.23376 889.0
0.001135 827.63922 906.16174 881.0
0.001083 827.58234 905.17090 923.0
0.001036 827.52551 904.25653 965.0
0.001155 827.46869 903.41345 866.0
0.001125 827.41180 902.64252 889.0
0.001110 827.35498 901.93481 901.0
0.001166 827.29810 901.27728 858.0
0.001083 827.24127 900.67163 923.0
0.001155 827.18439 900.11188 866.0
0.001116 827.12756 899.59296 896.0
0.001112 827.07068 899.10956 899.0
0.001083 827.01385 898.65723 923.0
0.001067 826.95703 898.23267 937.0
0.001143 826.90015 897.83087 875.0
0.001115 826.84326 897.45068 897.0
0.001138 826.78638 897.09601 879.0
0.001074 826.72955 896.75696 931.0
0.001140 826.67273 896.44006 877.0
0.001168 826.61584 896.14850 856.0
0.001104 826.55902 895.88605 906.0
0.001098 826.50214 895.65668 911.0
0.001151 826.44531 895.46564 869.0
0.001135 826.38843 895.31708 881.0
0.001156 826.33160 895.21570 865.0
0.001143 826.27472 895.16376 875.0
0.001119 826.21790 895.16736 894.0
0.001136 826.16101 895.22192 880.0
0.001124 826.10419 895.33112 890.0
0.001073 826.04730 895.49402 932.0
0.001074 825.99042 895.70856 931.0
0.001126 825.93359 895.97229 888.0
0.001134 825.87677 896.28027 882.0
0.001164 825.81989 896.62836 859.0
0.001063 825.76300 897.00983 941.0
0.001144 825.70618 897.41797 874.0
0.001104 825.64935 897.84497 906.0
0.001110 825.59247 898.28290 901.0
0.001100 825.53564 898.72333 909.0
0.001143 825.47876 899.15808 875.0
0.001095 825.42194 899.57831 913.0
0.001070 825.36505 899.97620 935.0
0.001111 825.30823 900.34454 900.0
0.001106 825.25134 900.67798 904.0
0.001116 825.19452 900.97681 896.0
0.001091 825.13770 901.23004 917.0
0.001100 825.08081 901.44330 909.0
0.001110 825.02393 901.62146 901.0
0.001168 824.96704 901.77148 856.0
0.001117 824.91022 901.90253 895.0
0.001140 824.85339 902.02808 877.0
0.001140 824.79651 902.16064 877.0
0.001149 824.73962 902.31598 870.0
0.001205 824.68280 902.50958 830.0
0.001124 824.62598 902.75586 890.0
0.001182 824.56909 903.07544 846.0
0.001155 824.51227 903.46393 866.0
0.001115 824.45538 903.93707 897.0
0.001156 824.39856 904.50232 865.0
0.001145 824.34167 905.16156 873.0
0.001163 824.28485 905.91504 860.0
0.001081 824.22797 906.76050 925.0
0.001129 824.17108 907.69366 886.0
0.001153 824.11426 908.71136 867.0
0.001112 824.05743 909.80096 899.0
0.001089 824.00055 910.95660 918.0
0.001129 823.94366 912.17047 886.0
0.001135 823.88684 913.43372 881.0
0.001098 823.83002 914.73871 911.0
0.001080 823.77313 916.07776 926.0
0.001100 823.71631 917.44635 909.0
0.001081 823.65942 918.83673 925.0
0.001117 823.60260 920.24713 895.0
0.001083 823.54572 921.67548 923.0
0.001056 823.48889 923.12622 947.0
0.001055 823.43201 924.59430 948.0
0.001117 823.37518 926.08600 895.0
0.001105 823.31830 927.60510 905.0
0.001098 823.26147 929.15631 911.0
0.001065 823.20459 930.74219 939.0
0.001062 823.14771 932.36603 942.0
0.001133 823.09088 934.02069 883.0
0.001022 823.03406 935.70325 978.0
0.001007 822.97717 937.40302 993.0
0.001094 822.92029 939.10577 914.0
0.001007 822.86346 940.79071 993.0
0.001041 822.80664 942.40283 961.0
0.001058 822.74976 943.97125 945.0
0.001056 822.69293 945.43219 947.0
0.001037 822.63605 946.74762 964.0
0.001017 822.57922 947.87970 983.0
0.001046 822.52234 948.78912 956.0
0.001035 822.46552 949.44025 966.0
0.000982 822.40863 949.80475 1018.0
0.000982 822.35175 949.85858 1018.0
0.001046 822.29492 949.59021 956.0
0.000977 822.23810 948.99518 1024.0
0.001010 822.18121 948.08130 990.0
0.000967 822.12433 946.86292 1034.0
0.001016 822.06750 945.36444 984.0
0.001019 822.01068 943.61328 981.0
0.001025 821.95380 941.64209 976.0
0.001060 821.89691 939.48108 943.0
0.001104 821.84009 936.96979 906.0
0.001153 821.78326 934.52252 867.0
0.000997 821.72638 931.97089 1003.0
0.001036 821.66956 929.33539 965.0
0.001045 821.61267 926.63196 957.0
0.001053 821.55585 923.87299 950.0
0.001014 821.49896 921.06714 986.0
0.001058 821.44214 918.22015 945.0
0.001052 821.38525 915.33771 951.0
0.001044 821.32837 912.42383 958.0
0.001087 821.27155 909.48566 920.0
0.001087 821.21472 906.53064 920.0
0.001156 821.15784 903.56891 865.0
0.001049 821.10095 900.61450 953.0
0.001109 821.04413 897.68292 902.0
0.001054 820.98730 894.79187 949.0
0.001034 820.93042 891.96106 967.0
0.001104 820.87360 889.20978 906.0
0.001115 820.81671 886.55798 897.0
0.001103 820.75989 884.02502 907.0
0.001136 820.70300 881.62805 880.0
0.001098 820.64618 879.38324 911.0
0.001130 820.58929 877.30505 885.0
0.001208 820.53241 875.40515 828.0
0.001096 820.47559 873.69666 912.0
0.001083 820.41876 872.18433 923.0
0.001157 820.36188 870.87762 864.0
0.001096 820.30499 869.82568 912.0
0.001202 820.24817 868.94385 832.0
0.001129 820.19135 868.27930 886.0
0.001155 820.13446 867.83167 866.0
0.001114 820.07758 867.60162 898.0
0.001144 820.02075 867.58710 874.0
0.001183 819.96393 867.78381 845.0
0.001122 819.90704 868.18793 891.0
0.001189 819.85022 868.79211 841.0
0.001082 819.79333 869.58905 924.0
0.001212 819.73651 870.56921 825.0
0.001145 819.67963 871.72089 873.0
0.001174 819.62280 873.03162 852.0
0.001186 819.56592 874.48694 843.0
0.001144 819.50903 876.07037 874.0
0.001148 819.45221 877.76373 871.0
0.001071 819.39539 879.55182 934.0
0.001126 819.33850 881.40314 888.0
0.001047 819.28162 883.30023 955.0
0.001159 819.22479 885.21735 863.0
0.001065 819.16797 887.12872 939.0
0.001130 819.11108 889.07239 885.0
0.001133 819.05420 890.89600 883.0
0.001085 818.99738 892.63721 922.0
0.001022 818.94055 894.27295 978.0
0.001114 818.88367 895.78180 898.0
0.001100 818.82684 897.14575 909.0
0.001094 818.76996 898.35059 914.0
0.001044 818.71313 899.38568 958.0
0.001143 818.65625 900.24426 875.0
0.001073 818.59943 900.92291 932.0
0.001099 818.54254 901.43054 910.0
0.001093 818.48566 901.75317 915.0
0.001089 818.42883 901.90302 918.0
0.001082 818.37201 901.88647 924.0
0.001092 818.31512 901.70905 916.0
0.001152 818.25824 901.37750 868.0
0.001040 818.20142 900.90021 962.0
0.001100 818.14459 900.27832 909.0
0.001056 818.08771 899.51904 947.0
0.001054 818.03088 898.62769 949.0
0.001064 817.97400 897.62817 940.0
0.001100 817.91718 896.48499 909.0
0.001093 817.86029 895.22107 915.0
0.001103 817.80347 893.84119 907.0
0.001072 817.74658 892.34967 933.0
0.001014 817.68970 890.75165 986.0
0.001074 817.63635 889.05652 931.0
0.001045 817.58539 887.26953 957.0
0.001091 817.53436 885.39612 917.0
0.001072 817.48334 883.45532 933.0
0.001142 817.43237 881.44025 876.0
0.001095 817.38135 879.49792 913.0
0.001112 817.33032 877.37384 899.0
0.001100 817.27930 875.21289 909.0
0.001112 817.22827 873.02643 899.0
0.001212 817.17725 870.82422 825.0
0.001160 817.12622 868.61877 862.0
0.001055 817.07526 866.41992 948.0
0.001085 817.02423 864.24292 922.0
0.001120 816.97321 862.08801 893.0
0.001104 816.92218 859.96924 906.0
0.001185 816.87122 857.89404 844.0
0.001215 816.82019 855.87061 823.0
0.001124 816.76917 853.90430 890.0
0.001157 816.71814 852.00110 864.0
0.001199 816.66711 850.16345 834.0
0.001205 816.61609 848.40088 830.0
0.001179 816.56512 846.70465 848.0
0.001202 816.51410 845.08057 832.0
0.001206 816.46307 843.53497 829.0
0.001119 816.41205 842.05804 894.0
0.001139 816.36102 840.82928 878.0
0.001236 816.31006 839.49768 809.0
0.001225 816.25903 838.23602 816.0
0.001247 816.20801 837.04358 802.0
0.001174 816.15704 835.91809 852.0
0.001202 816.10602 834.85754 832.0
0.001188 816.05499 833.86023 842.0
0.001209 816.00397 832.92407 827.0
0.001256 815.95294 832.04913 796.0
0.001142 815.90192 831.22858 876.0
0.001176 815.85089 830.46307 850.0
0.001181 815.79993 829.74969 847.0
0.001168 815.74890 829.08673 856.0
0.001227 815.69788 828.47180 815.0
0.001242 815.64685 827.90253 805.0
0.001215 815.59589 827.37659 823.0
0.001218 815.54486 826.89545 821.0
0.001227 815.49384 826.45105 815.0
0.001224 815.44281 826.06628 817.0
0.001181 815.39178 825.69458 847.0
0.001232 815.34076 825.35583 812.0
0.001235 815.28979 825.10266 810.0
0.001221 815.23877 824.82483 819.0
0.001133 815.18774 824.58484 883.0
0.001208 815.13672 824.36090 828.0
0.001261 815.08569 824.16107 793.0
0.001171 815.03473 823.98456 854.0
0.001170 814.98370 823.82965 855.0
0.001242 814.93268 823.69556 805.0
0.001211 814.88171 823.58075 826.0
0.001232 814.83069 823.48541 812.0
0.001222 814.77966 823.40839 818.0
0.001309 814.72864 823.34998 764.0
0.001212 814.67761 823.31049 825.0
0.001245 814.62659 823.28998 803.0
0.001182 814.57556 823.28876 846.0
0.001230 814.52460 823.30817 813.0
0.001182 814.47357 823.34961 846.0
0.001295 814.42255 823.41449 772.0
0.001221 814.37152 823.50458 819.0
0.001161 814.32056 823.63367 861.0
0.001224 814.26953 823.78180 817.0
0.001179 814.21851 823.96234 848.0
0.001233 814.16748 824.18427 811.0
0.001170 814.11646 824.44055 855.0
0.001297 814.06549 824.74005 771.0
0.001276 814.01447 825.08685 784.0
0.001230 813.96344 825.48486 813.0
0.001289 813.91241 825.93835 776.0
0.001181 813.86139 826.45142 847.0
0.001295 813.81036 827.02838 772.0
0.001253 813.75940 827.67480 798.0
0.001209 813.70837 828.39301 827.0
0.001103 813.65735 829.21716 907.0
0.001227 813.60638 830.09320 815.0
0.001220 813.55536 831.05286 820.0
0.001312 813.50433 832.09875 762.0
0.001297 813.45331 833.23376 771.0
0.001175 813.40228 834.45917 851.0
0.001211 813.35126 835.77557 826.0
0.001209 813.30023 837.18311 827.0
0.001138 813.24927 838.68073 879.0
0.001189 813.19824 840.27869 841.0
0.001186 813.14722 841.94843 843.0
0.001374 813.09619 843.69702 728.0
0.001171 813.04523 845.51996 854.0
0.001195 812.99420 847.40894 837.0
0.001186 812.94318 849.35522 843.0
0.001199 812.89215 851.34882 834.0
0.001175 812.84113 853.37714 851.0
0.001131 812.79016 855.42694 884.0
0.001215 812.73914 857.48236 823.0
0.001203 812.68811 859.52643 831.0
0.001229 812.63708 861.54083 814.0
0.001202 812.58606 863.50604 832.0
0.001172 812.53503 865.41626 853.0
0.001176 812.48407 867.22302 850.0
0.001171 812.43304 868.92114 854.0
0.001205 812.38202 870.49341 830.0
0.001186 812.33105 871.92621 843.0
0.001157 812.28003 873.07239 864.0
0.001172 812.22900 874.20148 853.0
0.001147 812.17798 875.17700 872.0
0.001171 812.12695 876.01288 854.0
0.001198 812.07593 876.70648 835.0
0.001183 812.02490 877.28229 845.0
0.001160 811.97394 877.76099 862.0
0.001193 811.92291 878.16571 838.0
0.001193 811.87189 878.52130 838.0
0.001181 811.82086 878.85181 847.0
0.001190 811.76990 879.17963 840.0
0.001190 811.71887 879.52600 840.0
0.001122 811.66785 879.90894 891.0
0.001272 811.61682 880.34363 786.0
0.001110 811.56586 880.83960 901.0
0.001124 811.51483 881.40527 890.0
0.001145 811.46381 882.04364 873.0
0.001138 811.41278 882.75391 879.0
0.001217 811.36176 883.46161 822.0
0.001198 811.31073 884.30396 835.0
0.001206 811.25970 885.20068 829.0
0.001155 811.20874 886.14105 866.0
0.001166 811.15771 887.11255 858.0
0.001170 811.10669 888.10144 855.0
0.001083 811.05573 889.09241 923.0
0.001195 811.00470 890.06885 837.0
0.001139 810.95367 891.01245 878.0
0.001203 810.90265 891.90381 831.0
0.001178 810.85162 892.72217 849.0
0.001202 810.80060 893.44702 832.0
0.001199 810.74957 894.05566 834.0
0.001239 810.69861 894.52808 807.0
0.001151 810.64758 894.84485 869.0
0.001105 810.59656 894.98914 905.0
0.001096 810.54553 894.94849 912.0
0.001186 810.49457 894.71582 843.0
0.001209 810.44354 894.28833 827.0
0.001153 810.39252 893.66925 867.0
0.001179 810.34149 892.86768 848.0
0.001089 810.29053 891.89655 918.0
0.001129 810.23950 890.77264 886.0
0.001175 810.18848 889.51495 851.0
0.001125 810.13745 888.14331 889.0
0.001131 810.08643 886.67773 884.0
0.001134 810.03540 885.13647 882.0
0.001139 809.98438 883.53766 878.0
0.001143 809.93341 881.89539 875.0
0.001124 809.88239 880.22626 890.0
0.001168 809.83136 878.53015 856.0
0.001172 809.78040 876.81940 853.0
0.001136 809.72937 875.09772 880.0
0.001172 809.67834 873.36688 853.0
0.001164 809.62732 871.62787 859.0
0.001163 809.57629 869.87988 860.0
0.001098 809.52527 868.12231 911.0
0.001175 809.47424 866.35492 851.0
0.001206 809.42328 864.57806 829.0
0.001203 809.37225 862.79254 831.0
0.001153 809.32123 861.00146 867.0
0.001111 809.27020 859.20734 900.0
0.001151 809.21924 857.41541 869.0
0.001166 809.16821 855.63000 858.0
0.001153 809.11719 853.85760 867.0
0.001181 809.06622 852.10370 847.0
0.001138 809.01520 850.37506 879.0
0.001176 808.96417 848.68109 850.0
0.001205 808.91315 847.02228 830.0
0.001135 808.86212 845.40900 881.0
0.001172 808.81110 843.84729 853.0
0.001144 808.76007 842.34631 874.0
0.001196 808.70905 840.90765 836.0
0.001176 808.65808 839.53882 850.0
0.001200 808.60706 838.24481 833.0
0.001181 808.55603 837.02820 847.0
0.001208 808.50507 835.89380 828.0
0.001189 808.45404 834.84186 841.0
0.001182 808.40302 833.87360 846.0
0.001202 808.35199 832.98889 832.0
0.001157 808.30096 832.18610 864.0
0.001206 808.24994 831.46301 829.0
0.001160 808.19891 830.81775 862.0
0.001264 808.14795 830.24634 791.0
0.001222 808.09692 829.74573 818.0
0.001202 808.04590 829.31195 832.0
0.001175 807.99487 828.94391 851.0
0.001215 807.94391 828.63660 823.0
0.001274 807.89288 828.38495 785.0
0.001206 807.84186 828.18884 829.0
0.001235 807.79089 828.05896 810.0
0.001230 807.73987 827.96704 813.0
0.001233 807.68884 827.92615 811.0
0.001247 807.63782 827.93542 802.0
0.001205 807.58679 827.99353 830.0
0.001236 807.53577 828.10114 809.0
0.001212 807.48474 828.25848 825.0
0.001156 807.43372 828.46509 865.0
0.001259 807.38275 828.72125 794.0
0.001305 807.33173 829.03455 766.0
0.001160 807.28070 829.39014 862.0
0.001314 807.22974 829.79419 761.0
0.001220 807.17871 830.24744 820.0
0.001178 807.12769 830.76251 849.0
0.001309 807.07666 831.31104 764.0
0.001229 807.02563 831.90613 814.0
0.001214 806.97461 832.54761 824.0
0.001316 806.92358 833.23236 760.0
0.001208 806.87262 833.96484 828.0
0.001277 806.82159 834.73785 783.0
0.001199 806.77057 835.55377 834.0
0.001217 806.71954 836.41974 822.0
0.001233 806.66858 837.32349 811.0
0.001309 806.61755 838.27142 764.0
0.001193 806.56653 839.26495 838.0
0.001214 806.51556 840.30469 824.0
0.001208 806.46454 841.43402 828.0
0.001189 806.41351 842.56750 841.0
0.001225 806.36249 843.74805 816.0
0.001179 806.31146 844.97418 848.0
0.001157 806.26044 846.24591 864.0
0.001224 806.20941 847.56152 817.0
0.001182 806.15839 848.92029 846.0
0.001259 806.10742 850.32635 794.0
0.001152 806.05640 851.76666 868.0
0.001244 806.00537 853.30475 804.0
0.001156 805.95441 854.82483 865.0
0.001148 805.90338 856.38708 871.0
0.001166 805.85236 857.99640 858.0
0.001147 805.80133 859.66046 872.0
0.001215 805.75031 861.38605 823.0
0.001276 805.69928 863.18567 784.0
0.001161 805.64825 865.07507 861.0
0.001218 805.59729 867.07111 821.0
0.001232 805.54626 869.19293 812.0
0.001155 805.49524 871.45972 866.0
0.001139 805.44421 873.89392 878.0
0.001166 805.39325 876.51605 858.0
0.001214 805.34222 879.35669 824.0
0.001083 805.29120 882.41217 923.0
0.001156 805.24023 885.70953 865.0
0.001145 805.18921 889.26190 873.0
0.001101 805.13818 893.07983 908.0
0.001188 805.08716 897.16986 842.0
0.001103 805.03613 901.53455 907.0
0.001167 804.98511 906.17059 857.0
0.001094 804.93408 911.10266 914.0
0.001119 804.88306 916.26086 894.0
0.001121 804.83209 921.65881 892.0
0.001117 804.78107 927.27527 895.0
0.001076 804.73004 933.08521 929.0
0.001100 804.67908 939.05536 909.0
0.000997 804.62805 945.14832 1003.0
0.001081 804.57703 951.31989 925.0
0.000978 804.52600 957.52002 1022.0
0.000985 804.47498 963.69232 1015.0
0.000956 804.42395 969.78296 1046.0
0.001029 804.37292 975.70374 972.0
0.000956 804.32196 981.39282 1046.0
0.000971 804.27094 986.77258 1030.0
0.000869 804.21991 991.77155 1151.0
0.000883 804.16888 996.30682 1132.0
0.000863 804.11792 1000.31281 1159.0
0.000887 804.06689 1003.72882 1128.0
0.000899 804.01587 1006.50739 1112.0
0.000929 803.96490 1008.61462 1077.0
0.000904 803.91388 1010.03461 1106.0
0.000873 803.86285 1010.76770 1146.0
0.000860 803.81183 1010.83136 1163.0
0.000887 803.76080 1010.25507 1127.0
0.000887 803.70978 1009.08044 1128.0
0.000962 803.65875 1007.35522 1039.0
0.000934 803.60773 1005.13147 1071.0
0.000977 803.55676 1002.46021 1024.0
0.000913 803.50574 999.39233 1095.0
0.000956 803.45471 996.02728 1046.0
0.001025 803.40375 992.30237 976.0
0.000995 803.35272 988.30664 1005.0
0.001013 803.30170 984.07355 987.0
0.000987 803.25067 979.61792 1013.0
0.000997 803.17212 974.93811 1003.0
0.000948 803.08539 970.06476 1055.0
0.000964 802.99866 965.02045 1037.0
0.000946 802.91199 959.81573 1057.0
0.001007 802.82526 954.46271 993.0
0.001047 802.73853 948.97540 955.0
0.001055 802.65179 943.37054 948.0
0.000954 802.56512 937.66833 1048.0
0.001047 802.47839 931.89471 955.0
0.001071 802.39166 926.07574 934.0
0.001063 802.30499 920.24146 941.0
0.001019 802.21826 914.42212 981.0
0.001041 802.13153 908.64819 961.0
0.001110 802.04480 902.94794 901.0
0.001134 801.95813 897.34961 882.0
0.001104 801.87140 891.87866 906.0
0.001142 801.78461 886.67914 876.0
0.001103 801.69788 881.52991 907.0
0.001178 801.61121 876.56903 849.0
0.001152 801.52448 871.81268 868.0
0.001264 801.43774 867.27283 791.0
0.001134 801.35107 862.96112 882.0
0.001235 801.26434 858.88788 810.0
0.001174 801.17761 855.05505 852.0
0.001218 801.09088 851.46979 821.0
0.001183 801.00421 848.13434 845.0
0.001214 800.91748 845.04919 824.0
0.001190 800.83075 842.21265 840.0
0.001152 800.74408 839.62335 868.0
0.001189 800.65735 837.27661 841.0
0.001250 800.57062 835.16742 800.0
0.001218 800.48389 833.28949 821.0
0.001181 800.39722 831.63629 847.0
0.001224 800.31049 830.20056 817.0
0.001217 800.22375 828.97375 822.0
0.001232 800.13708 827.94800 812.0
0.001292 800.05035 827.11542 774.0
0.001258 799.96356 826.51636 795.0
0.001225 799.87683 826.04761 816.0
0.001229 799.79016 825.75110 814.0
0.001220 799.70343 825.61871 820.0
0.001235 799.61670 825.64709 810.0
0.001212 799.52997 825.83142 825.0
0.001259 799.44330 826.16803 794.0
0.001186 799.35657 826.65710 843.0
0.001239 799.26984 827.29474 807.0
0.001259 799.18317 828.08337 794.0
0.001199 799.09644 829.02448 834.0
0.001245 799.00970 830.13251 803.0
0.001192 798.92297 831.38831 839.0
0.001252 798.83630 832.80939 799.0
0.001263 798.74957 834.40082 792.0
0.001245 798.66284 836.16998 803.0
0.001227 798.57617 838.12500 815.0
0.001200 798.48944 840.27313 833.0
0.001168 798.40271 842.62280 856.0
0.001203 798.31598 845.18213 831.0
0.001241 798.22931 847.95856 806.0
0.001295 798.14252 850.95923 772.0
0.001190 798.05579 854.18878 840.0
0.001196 797.96912 857.65112 836.0
0.001189 797.88239 861.34821 841.0
0.001155 797.79565 865.27893 866.0
0.001144 797.70892 869.49384 874.0
0.001198 797.62225 873.94745 835.0
0.001203 797.53552 878.54840 831.0
0.001185 797.44879 883.35101 844.0
0.001133 797.36206 888.33826 883.0
0.001160 797.27539 893.48950 862.0
0.001160 797.18866 898.77985 862.0
0.001103 797.10193 904.23590 907.0
0.001111 797.01526 909.71912 900.0
0.001144 796.92853 915.23663 874.0
0.001120 796.84180 920.73828 893.0
0.001110 796.75507 926.20465 901.0
0.001057 796.66840 931.57275 946.0
0.001080 796.58167 936.79059 926.0
0.001028 796.49487 941.80463 973.0
0.001046 796.40826 946.56024 956.0
0.001086 796.32147 951.00562 921.0
0.001127 796.23474 955.09412 887.0
0.001047 796.14801 958.78436 955.0
0.001036 796.06134 962.04724 965.0
0.001086 795.97461 964.86127 921.0
0.001129 795.88788 967.25165 886.0
0.001063 795.80121 969.18561 941.0
0.001060 795.71448 970.67334 943.0
0.001047 795.62775 971.73969 955.0
0.001050 795.54102 972.43512 952.0
0.001078 795.45435 972.80212 928.0
0.001050 795.36761 972.88501 952.0
0.000981 795.28088 972.73132 1019.0
0.001062 795.19415 972.40289 942.0
0.001011 795.10748 971.91028 989.0
0.001022 795.02075 971.31061 978.0
0.001098 794.93402 970.64081 911.0
0.001049 794.84735 969.93463 953.0
0.001050 794.76062 969.21942 952.0
0.001035 794.67383 968.52222 966.0
0.000996 794.58710 967.86810 1004.0
0.001065 794.50043 967.27863 939.0
0.001067 794.41370 966.77539 937.0
0.001021 794.32697 966.38330 979.0
0.000996 794.24030 966.12683 1004.0
0.000999 794.15356 966.03265 1001.0
0.001038 794.06683 966.13226 963.0
0.001020 793.98010 966.45612 980.0
0.001040 793.89343 967.03650 962.0
0.001062 793.80670 967.91162 942.0
0.000994 793.71997 969.09534 1006.0
0.001058 793.63330 970.61810 945.0
0.001080 793.54657 972.46515 926.0
0.001014 793.45984 974.70551 986.0
0.001058 793.37311 977.30627 945.0
0.001038 793.28644 980.25458 963.0
0.000988 793.19971 983.52777 1012.0
0.001032 793.11298 987.09186 969.0
0.001071 793.02625 990.90454 934.0
0.000968 792.93958 994.91345 1033.0
0.000996 792.85278 999.06079 1004.0
0.001052 792.76605 1003.28247 951.0
0.000990 792.67938 1007.51123 1010.0
0.000978 792.59265 1011.67664 1022.0
0.000964 792.50592 1015.70886 1037.0
0.000949 792.41919 1019.64136 1054.0
0.000997 792.33252 1023.20618 1003.0
0.000925 792.24579 1026.44397 1081.0
0.000887 792.15906 1029.30286 1128.0
0.000953 792.07239 1031.74036 1049.0
0.000929 791.98566 1033.72192 1076.0
0.000925 791.89893 1035.09619 1081.0
0.000937 791.81219 1036.11560 1067.0
0.000925 791.72552 1036.64990 1081.0
0.000912 791.63879 1036.71021 1097.0
0.000917 791.55206 1036.31689 1091.0
0.000909 791.46539 1035.49597 1100.0
0.000949 791.37866 1034.27966 1054.0
0.000939 791.29193 1032.70154 1065.0
0.000968 791.20520 1030.79797 1033.0
0.000917 791.11853 1028.60315 1090.0
0.000935 791.03174 1026.15137 1070.0
0.000967 790.94501 1023.47516 1034.0
0.000928 790.85828 1020.60510 1078.0
0.000932 790.77161 1017.57031 1073.0
0.000969 790.68488 1014.39752 1032.0
0.000962 790.59814 1011.16357 1039.0
0.000950 790.51147 1007.79297 1053.0
0.001027 790.42474 1004.36292 974.0
0.000988 790.33801 1000.90039 1012.0
0.001030 790.25128 997.43378 971.0
0.000980 790.16461 993.99487 1020.0
0.000968 790.07788 990.61646 1033.0
0.000965 789.99115 987.33307 1036.0
0.000979 789.90448 984.18219 1021.0
0.000965 789.81775 981.20026 1036.0
0.000967 789.73102 978.42468 1034.0
0.000978 789.64429 975.88947 1022.0
0.000963 789.55762 973.62854 1038.0
0.001033 789.47089 971.66931 968.0
0.001074 789.38416 970.03729 931.0
0.001038 789.29749 968.90210 963.0
0.000998 789.21069 967.97626 1002.0
0.001000 789.12396 967.41681 1000.0
0.001088 789.03723 967.22662 919.0
0.000985 788.95056 967.39697 1015.0
0.001004 788.86383 967.91876 996.0
0.001040 788.77710 968.77429 962.0
0.001022 788.69037 969.94263 978.0
0.000990 788.60370 971.41901 1010.0
0.000997 788.51697 973.12537 1003.0
0.000981 788.43024 975.05170 1019.0
0.001007 788.34357 977.15778 993.0
0.000950 788.25684 979.40424 1053.0
0.000973 788.17010 981.74957 1028.0
0.001042 788.08337 984.15039 960.0
0.000958 787.99670 986.53387 1044.0
0.000991 787.90997 988.92072 1009.0
0.000979 787.82324 991.24097 1021.0
0.000935 787.73657 993.45776 1070.0
0.000986 787.64984 995.53851 1014.0
0.000956 787.56305 997.46252 1046.0
0.001029 787.47632 999.18353 972.0
0.000989 787.38965 1000.76135 1011.0
0.001005 787.30292 1002.02228 995.0
0.000980 787.21619 1003.01843 1020.0
0.000974 787.12952 1003.73053 1027.0
0.000970 787.04279 1004.13849 1031.0
0.000967 786.95605 1004.22174 1034.0
0.000898 786.86932 1003.96436 1113.0
0.000929 786.78265 1003.35248 1077.0
0.000992 786.69592 1002.37488 1008.0
0.000977 786.60919 1001.03546 1024.0
0.000933 786.52246 999.30951 1072.0
0.000949 786.43579 997.21027 1054.0
0.000956 786.34906 994.67615 1046.0
0.000937 786.26233 991.85858 1067.0
0.000952 786.17566 988.70276 1050.0
0.000955 786.08893 985.22955 1047.0
0.000983 786.00220 981.46228 1017.0
0.000962 785.91547 977.42828 1039.0
0.001009 785.82880 973.15601 991.0
0.000941 785.74200 968.68054 1063.0
0.000979 785.65527 964.02692 1021.0
0.001022 785.56860 959.23267 978.0
0.001015 785.48187 954.33044 985.0
0.000978 785.39514 949.35266 1022.0
0.001029 785.30841 944.33124 972.0
0.001043 785.22174 939.29492 959.0
0.000999 785.13501 934.27289 1001.0
0.001092 785.04828 929.29041 916.0
0.001060 784.96161 924.37268 943.0
0.000979 784.87488 919.54437 1021.0
0.001037 784.78815 914.82861 964.0
0.001068 784.70142 910.24731 936.0
0.001087 784.61475 905.82373 920.0
0.001068 784.52802 901.60577 936.0
0.001059 784.44128 897.56274 944.0
0.001081 784.35455 893.74115 925.0
0.001057 784.26788 890.15967 946.0
0.001114 784.18115 886.83527 898.0
0.001063 784.09442 883.78448 941.0
0.001070 784.00775 881.02020 935.0
0.001130 783.92096 878.55328 885.0
0.001149 783.83423 876.39325 870.0
0.001139 783.74750 874.54626 878.0
0.001122 783.66083 873.01489 891.0
0.001172 783.57410 871.80005 853.0
0.001094 783.48737 870.94672 914.0
0.001143 783.40070 870.35211 875.0
0.001145 783.31396 870.05426 873.0
0.001071 783.22723 870.04010 934.0
0.001127 783.14050 870.29218 887.0
0.001159 783.05383 870.79138 863.0
0.001202 782.96710 871.51385 832.0
0.001112 782.88037 872.43231 899.0
0.001168 782.79370 873.51733 856.0
0.001159 782.70697 874.73724 863.0
0.001163 782.62024 876.05548 860.0
0.001186 782.53351 877.44867 843.0
0.001131 782.44684 878.85150 884.0
0.001159 782.36011 880.23761 863.0
0.001136 782.27332 881.56555 880.0
0.001161 782.18658 882.79779 861.0
0.001170 782.09991 883.95013 855.0
0.001060 782.01318 884.88483 943.0
0.001170 781.92645 885.62653 855.0
0.001175 781.83978 886.15460 851.0
0.001129 781.75305 886.45361 886.0
0.001164 781.66632 886.51733 859.0
0.001145 781.57959 886.34570 873.0
0.001136 781.49292 885.96906 880.0
0.001196 781.40619 885.35114 836.0
0.001199 781.31946 884.53076 834.0
0.001148 781.23279 883.52655 871.0
0.001238 781.14606 882.35687 808.0
0.001155 781.05933 881.04071 866.0
0.001208 780.97260 879.59613 828.0
0.001252 780.88593 878.04004 799.0
0.001171 780.79919 876.38959 854.0
0.001163 780.71246 874.64917 860.0
0.001159 780.62579 872.83136 863.0
0.001241 780.53906 870.94434 806.0
0.001250 780.45227 868.99298 800.0
0.001247 780.36554 866.98083 802.0
0.001179 780.27887 864.91138 848.0
0.001164 780.19214 862.78778 859.0
0.001129 780.10541 860.63916 886.0
0.001179 780.01868 858.41815 848.0
0.001172 779.93201 856.15729 853.0
0.001256 779.84528 853.86420 796.0
0.001179 779.75854 851.54919 848.0
0.001277 779.67188 849.22473 783.0
0.001205 779.58514 846.90295 830.0
0.001157 779.49841 844.59882 864.0
0.001259 779.41168 842.32635 794.0
0.001196 779.32501 840.10095 836.0
0.001212 779.23828 837.94135 825.0
0.001126 779.15155 835.84991 888.0
0.001221 779.06488 833.84918 819.0
0.001233 778.97815 831.94403 811.0
0.001196 778.89142 830.14648 836.0
0.001196 778.80469 828.46783 836.0
0.001224 778.71802 826.91901 817.0
0.001153 778.56641 825.43878 867.0
0.001222 778.41089 824.10382 818.0
0.001192 778.25549 822.91156 839.0
0.001309 778.09998 821.87250 764.0
0.001224 777.94446 820.99335 817.0
0.001232 777.78894 820.27716 812.0
0.001153 777.63354 819.72699 867.0
0.001258 777.47803 819.34589 795.0
0.001185 777.32251 819.13556 844.0
0.001280 777.16699 819.09741 781.0
0.001263 777.01160 819.23059 792.0
0.001304 776.85608 819.53613 767.0
0.001292 776.70056 820.02130 774.0
0.001250 776.54517 820.66553 800.0
0.001266 776.38959 821.47552 790.0
0.001279 776.23407 822.44733 782.0
0.001195 776.07855 823.57874 837.0
0.001241 775.92316 824.86102 806.0
0.001193 775.76764 826.28845 838.0
0.001193 775.61212 827.85779 838.0
0.001205 775.45673 829.55652 830.0
0.001261 775.30121 831.37872 793.0
0.001261 775.14569 833.31580 793.0
0.001247 774.99017 835.36127 802.0
0.001214 774.83478 837.49902 824.0
0.001224 774.67926 839.72253 817.0
0.001190 774.52374 842.02191 840.0
0.001250 774.36835 844.38666 800.0
0.001214 774.21283 846.80817 824.0
0.001183 774.05731 849.27771 845.0
0.001225 773.90179 851.78766 816.0
0.001244 773.74640 854.33246 804.0
0.001195 773.59088 856.90686 837.0
0.001233 773.43536 859.50983 811.0
0.001139 773.27985 862.14160 878.0
0.001126 773.12439 864.80542 888.0
0.001214 772.96887 867.51343 824.0
0.001138 772.81335 870.26398 879.0
0.001121 772.65796 873.07513 892.0
0.001222 772.50244 875.96143 818.0
0.001125 772.34692 878.94055 889.0
0.001178 772.19141 882.02924 849.0
0.001119 772.03601 885.24713 894.0
0.001178 771.88049 888.61243 849.0
0.001175 771.72498 892.14105 851.0
0.001120 771.56958 895.84717 893.0
0.001168 771.41406 899.74200 856.0
0.001104 771.25854 903.83160 906.0
0.001095 771.10303 908.11865 913.0
0.001046 770.94763 912.59631 956.0
0.001092 770.79211 917.25616 916.0
0.001124 770.63660 922.08289 890.0
0.001042 770.48120 927.05511 960.0
0.001171 770.32568 932.14600 854.0
0.001163 770.17010 937.32361 860.0
0.001083 770.01459 942.55176 923.0
0.001066 769.85919 947.79047 938.0
0.000994 769.70367 952.99530 1006.0
0.001092 769.54816 958.12073 916.0
0.001029 769.39264 963.11792 972.0
0.001062 769.23724 967.93604 942.0
0.001046 769.08173 972.52399 956.0
0.001047 768.92621 976.83044 955.0
0.001002 768.77081 980.80371 998.0
0.000996 768.61530 984.39484 1004.0
0.000961 768.45978 987.55743 1041.0
0.001003 768.30426 990.25275 997.0
0.001020 768.14886 992.44641 980.0
0.001000 767.99335 994.11414 1000.0
0.000993 767.83783 995.24542 1007.0
0.000932 767.68243 995.83344 1073.0
0.001030 767.52692 995.89032 971.0
0.001044 767.37140 995.43628 958.0
0.000989 767.21588 994.50189 1011.0
0.001075 767.06042 993.12585 930.0
0.001099 766.90491 991.35199 910.0
0.001015 766.74939 989.22839 985.0
0.001037 766.59399 986.80377 964.0
0.001017 766.43848 984.12616 983.0
0.001058 766.28296 981.23309 945.0
0.001052 766.12744 978.18695 951.0
0.001050 765.97205 975.01947 952.0
0.001107 765.81653 971.76245 903.0
0.001056 765.66101 968.44763 947.0
0.001129 765.50549 965.10284 886.0
0.001071 765.35010 961.74506 934.0
0.001122 765.19458 958.39258 891.0
0.001121 765.03906 955.05939 892.0
0.001125 764.88367 951.75775 889.0
0.001120 764.72815 948.49823 893.0
0.001050 764.57263 945.29175 952.0
0.001020 764.41711 942.15155 980.0
0.001094 764.26172 939.09210 914.0
0.001021 764.10620 936.13062 979.0
0.001000 763.95062 933.28339 1000.0
0.001085 763.79523 930.57343 922.0
0.001095 763.63971 928.02332 913.0
0.001063 763.48419 925.65643 941.0
0.001095 763.32867 923.49652 913.0
0.001063 763.17328 921.52924 941.0
0.001145 763.01776 919.85681 873.0
0.001114 762.86224 918.46313 898.0
0.001089 762.70685 917.37299 918.0
0.001124 762.55133 916.60901 890.0
0.001136 762.39581 916.19446 880.0
0.001139 762.24030 916.15314 878.0
0.001168 762.08490 916.50641 856.0
0.001168 761.92938 917.27441 856.0
0.001071 761.77386 918.47937 934.0
0.001161 761.61835 920.14044 861.0
0.001175 761.46295 922.27441 851.0
0.001075 761.30743 924.89539 930.0
0.001063 761.15192 928.01404 941.0
0.001093 760.99652 931.63770 915.0
0.001106 760.84094 935.76758 904.0
0.001104 760.68542 940.40051 906.0
0.001093 760.52991 945.52728 915.0
0.001043 760.37451 951.13245 959.0
0.001082 760.21899 957.19312 924.0
0.001004 760.06348 963.68024 996.0
0.001065 759.90808 970.55762 939.0
0.001079 759.75256 977.78149 927.0
0.001022 759.59705 985.30304 978.0
0.001010 759.44153 993.06592 990.0
0.001012 759.28613 1001.01099 988.0
0.001026 759.13062 1009.07355 975.0
0.000999 758.97510 1017.18872 1001.0
0.000981 758.81970 1025.28845 1019.0
0.000917 758.66418 1033.30566 1090.0
0.000907 758.50867 1041.17358 1103.0
0.000927 758.35315 1048.82690 1079.0
0.000870 758.19775 1056.20886 1149.0
0.000903 758.04224 1063.24365 1107.0
0.000805 757.88672 1069.88367 1243.0
0.000841 757.73114 1076.05664 1189.0
0.000833 757.57574 1081.71118 1200.0
0.000808 757.42023 1086.79321 1238.0
0.000809 757.26471 1091.25366 1236.0
0.000795 757.10931 1095.04846 1258.0
0.000816 756.95380 1098.14417 1225.0
0.000812 756.79828 1100.51526 1232.0
0.000835 756.64276 1102.15198 1198.0
0.000793 756.48737 1103.05579 1261.0
0.000844 756.33185 1103.24023 1185.0
0.000848 756.17633 1102.73279 1179.0
0.000889 756.02094 1101.56885 1125.0
0.000876 755.86542 1099.79272 1142.0
0.000919 755.70990 1097.45862 1088.0
0.000865 755.55438 1094.60620 1156.0
0.000926 755.39899 1091.29102 1080.0
0.000926 755.24347 1087.56104 1080.0
0.000912 755.08795 1083.45898 1096.0
0.000910 754.93256 1079.02502 1099.0
0.000894 754.77704 1074.29346 1118.0
0.000912 754.62146 1069.29968 1097.0
0.000894 754.46594 1064.03967 1118.0
0.000977 754.31055 1058.53882 1024.0
0.000922 754.15503 1052.80286 1085.0
0.000880 753.99951 1046.82959 1136.0
0.000917 753.84399 1040.62231 1091.0
0.000896 753.68860 1034.17749 1116.0
0.000879 753.53308 1027.49622 1138.0
0.000915 753.37756 1020.58032 1093.0
0.000887 753.22217 1013.43719 1127.0
0.000895 753.06665 1006.08228 1117.0
0.000926 752.91113 998.53613 1080.0
0.000907 752.75562 990.82684 1102.0
0.000941 752.60022 982.98889 1063.0
0.001025 752.44470 975.06036 976.0
0.000995 752.28918 967.08319 1005.0
0.001002 752.13379 959.10156 998.0
0.001000 751.97827 951.15375 1000.0
0.001057 751.82275 943.28094 946.0
0.001111 751.66724 935.52087 900.0
0.001045 751.51178 927.90607 957.0
0.001091 751.35626 920.46667 917.0
0.001089 751.20074 913.22583 918.0
0.001035 751.04535 906.20398 966.0
0.001126 750.88983 899.42346 888.0
0.001140 750.73431 892.88226 877.0
0.001112 750.57880 886.59515 899.0
0.001214 750.42340 880.56158 824.0
0.001205 750.26788 874.93091 830.0
0.001155 750.11237 869.41650 866.0
0.001166 749.95685 864.14960 858.0
0.001168 749.80145 859.13068 856.0
0.001134 749.64594 854.35529 882.0
0.001174 749.49042 849.81873 852.0
0.001188 749.33502 845.51477 842.0
0.001192 749.17950 841.43890 839.0
0.001196 749.02399 837.58557 836.0
0.001193 748.86847 833.95020 838.0
0.001192 748.71307 830.52740 839.0
0.001224 748.55756 827.31219 817.0
0.001147 748.40198 824.29919 872.0
0.001256 748.24658 821.48383 796.0
0.001221 748.09106 818.85803 819.0
0.001289 747.93555 816.41724 776.0
0.001218 747.78003 814.15436 821.0
0.001218 747.62463 812.06293 821.0
0.001192 747.46912 810.24896 839.0
0.001259 747.31360 808.47992 794.0
0.001256 747.15820 806.86139 796.0
0.001383 747.00269 805.38422 723.0
0.001248 746.84717 804.04248 801.0
0.001215 746.69165 802.90131 823.0
0.001258 746.53625 801.81006 795.0
0.001185 746.38074 800.82715 844.0
0.001272 746.22522 799.94611 786.0
0.001328 746.06970 799.15936 753.0
0.001221 745.91431 798.46973 819.0
0.001250 745.75879 797.84235 800.0
0.001282 745.60327 797.27936 780.0
0.001300 745.44781 796.77185 769.0
0.001305 745.29230 796.30994 766.0
0.001241 745.13678 795.88354 806.0
0.001252 744.98126 795.48340 799.0
0.001357 744.82587 795.10028 737.0
0.001266 744.67035 794.72565 790.0
0.001211 744.51483 794.35199 826.0
0.001255 744.35944 793.97449 797.0
0.001250 744.20392 793.58221 800.0
0.001235 744.04840 793.17297 810.0
0.001252 743.89288 792.79840 799.0
0.001297 743.73749 792.34283 771.0
0.001285 743.58197 791.85895 778.0
0.001253 743.42645 791.34625 798.0
0.001258 743.27106 790.80322 795.0
0.001232 743.11554 790.22968 812.0
0.001272 742.96002 789.62653 786.0
0.001335 742.80450 788.99371 749.0
0.001221 742.64911 788.33398 819.0
0.001304 742.49359 787.64825 767.0
0.001244 742.33801 786.94653 804.0
0.001311 742.18250 786.21777 763.0
0.001215 742.02710 785.47192 823.0
0.001264 741.87158 784.71112 791.0
0.001344 741.71606 783.93915 744.0
0.001312 741.56067 783.15869 762.0
0.001229 741.40515 782.37189 814.0
0.001348 741.24963 781.58301 742.0
0.001381 741.09412 780.79474 724.0
0.001217 740.93872 780.00861 822.0
0.001280 740.78320 779.23065 781.0
0.001282 740.62769 778.45941 780.0
0.001181 740.47229 777.69965 847.0
0.001316 740.31677 776.95337 760.0
0.001218 740.16125 776.22241 821.0
0.001325 740.00574 775.50903 755.0
0.001294 739.85034 774.81586 773.0
0.001289 739.69482 774.14844 776.0
0.001359 739.53931 773.49817 736.0
0.001326 739.38385 772.87122 754.0
0.001242 739.22833 772.26874 805.0
0.001248 739.07281 771.69006 801.0
0.001294 738.91730 771.13696 773.0
0.001412 738.76190 770.60864 708.0
0.001289 738.60638 770.10638 776.0
0.001337 738.45087 769.62671 748.0
0.001312 738.29535 769.17120 762.0
0.001250 738.13995 768.73840 800.0
0.001252 737.98444 768.32648 799.0
0.001337 737.82892 767.93597 748.0
0.001285 737.67352 767.56439 778.0
0.001242 737.51801 767.21118 805.0
0.001304 737.36249 766.87408 767.0
0.001289 737.20697 766.55414 776.0
0.001383 737.05157 766.24939 723.0
0.001250 736.89606 765.95898 800.0
0.001429 736.74054 765.68280 700.0
0.001271 736.58514 765.42181 787.0
0.001377 736.42963 765.17596 726.0
0.001230 736.27411 764.94458 813.0
0.001253 736.11853 764.73065 798.0
0.001264 735.96313 764.53650 791.0
0.001374 735.80762 764.35999 728.0
0.001311 735.65210 764.20258 763.0
0.001377 735.49670 764.06201 726.0
0.001321 735.34119 763.94189 757.0
0.001332 735.18567 763.84131 751.0
0.001412 735.03015 763.76239 708.0
0.001344 734.87476 763.70374 744.0
0.001319 734.74036 763.68634 758.0
0.001266 734.76996 763.85156 790.0
0.001277 734.79950 764.03534 783.0
0.001321 734.82904 764.23572 757.0
0.001289 734.85864 764.45245 776.0
0.001332 734.88818 764.68311 751.0
0.001318 734.91772 764.92694 759.0
0.001220 734.94733 765.18207 820.0
0.001357 734.97687 765.44885 737.0
0.001321 735.00647 765.72650 757.0
0.001300 735.03601 766.01581 769.0
0.001292 735.06555 766.31781 774.0
0.001292 735.09515 766.63324 774.0
0.001290 735.12469 766.96735 775.0
0.001368 735.15424 767.32281 731.0
0.001287 735.18384 767.70709 777.0
0.001374 735.21338 768.12140 728.0
0.001309 735.24292 768.57446 764.0
0.001218 735.27252 769.07507 821.0
0.001321 735.30206 769.62659 757.0
0.001248 735.33160 770.23889 801.0
0.001319 735.36121 770.91888 758.0
0.001272 735.39075 771.67462 786.0
0.001255 735.42029 772.51306 797.0
0.001258 735.44989 773.44092 795.0
0.001261 735.47943 774.47327 793.0
0.001285 735.50897 775.59796 778.0
0.001244 735.53857 776.82990 804.0
0.001323 735.56812 778.17194 756.0
0.001366 735.59766 779.62817 732.0
0.001189 735.62726 781.20233 841.0
0.001209 735.65680 782.92096 827.0
0.001323 735.68634 784.73358 756.0
0.001225 735.71594 786.66620 816.0
0.001258 735.74548 788.71735 795.0
0.001277 735.77502 790.88690 783.0
0.001250 735.80463 793.17047 800.0
0.001297 735.83417 795.56561 771.0
0.001195 735.86371 798.06702 837.0
0.001205 735.89331 800.66907 830.0
0.001188 735.92285 803.36499 842.0
0.001215 735.95245 806.14709 823.0
0.001297 735.98199 809.00610 771.0
0.001241 736.01154 811.93994 806.0
0.001211 736.04114 814.92010 826.0
0.001333 736.07068 817.94196 750.0
0.001235 736.10022 820.99225 810.0
0.001110 736.12982 824.05573 901.0
0.001200 736.15936 827.13165 833.0
0.001227 736.18890 830.17560 815.0
0.001140 736.21851 833.17688 877.0
0.001175 736.24805 836.11841 851.0
0.001103 736.27765 838.98077 907.0
0.001274 736.30719 841.74243 785.0
0.001063 736.33673 844.37994 941.0
0.001079 736.36633 846.88562 927.0
0.001151 736.39587 849.20947 869.0
0.001193 736.42542 851.34460 838.0
0.001145 736.45502 853.27228 873.0
0.001161 736.48456 854.97388 861.0
0.001166 736.51410 856.43793 858.0
0.001186 736.54364 857.65332 843.0
0.001144 736.57324 858.61572 874.0
0.001144 736.60278 859.32440 874.0
0.001155 736.63232 859.78394 866.0
0.001096 736.66193 860.00189 912.0
0.001182 736.69147 859.99084 846.0
0.001188 736.72101 859.76483 842.0
0.001170 736.75061 859.34540 855.0
0.001183 736.78015 858.74158 845.0
0.001174 736.80969 857.97626 852.0
0.001183 736.83929 857.06683 845.0
0.001178 736.86884 856.03088 849.0
0.001121 736.89844 854.89099 892.0
0.001174 736.92798 853.64539 852.0
0.001198 736.95752 852.31299 835.0
0.001235 736.98712 850.90417 810.0
0.001232 737.01666 849.42627 812.0
0.001224 737.04620 847.88556 817.0
0.001119 737.07581 846.28632 894.0
0.001127 737.10535 844.63202 887.0
0.001259 737.13489 842.92615 794.0
0.001151 737.16449 841.17096 869.0
0.001183 737.19403 839.37030 845.0
0.001208 737.22363 837.52747 828.0
0.001312 737.25317 835.64771 762.0
0.001279 737.28271 833.73602 782.0
0.001250 737.31232 831.80023 800.0
0.001155 737.34186 829.84717 866.0
0.001259 737.37140 827.88501 794.0
0.001222 737.40100 825.92334 818.0
0.001221 737.43054 823.96973 819.0
0.001276 737.46008 822.03357 784.0
0.001195 737.48969 820.12183 837.0
0.001190 737.51923 818.24304 840.0
0.001292 737.54877 816.40314 774.0
0.001261 737.57837 814.60736 793.0
0.001258 737.60791 812.86121 795.0
0.001244 737.63745 811.16895 804.0
0.001258 737.66705 809.53271 795.0
0.001267 737.69659 807.95569 789.0
0.001284 737.72614 806.43921 779.0
0.001209 737.75574 804.98450 827.0
0.001176 737.78528 803.59204 850.0
0.001206 737.81482 802.26172 829.0
0.001225 737.84442 801.00354 816.0
0.001305 737.87396 799.79547 766.0
0.001280 737.90350 798.64673 781.0
0.001253 737.93311 797.55573 798.0
0.001247 737.96265 796.52026 802.0
0.001350 737.99219 795.53815 741.0
0.001277 738.02179 794.60730 783.0
0.001337 738.05133 793.72449 748.0
0.001302 738.08087 792.88782 768.0
0.001280 738.11047 792.09424 781.0
0.001309 738.14001 791.34210 764.0
0.001289 738.16962 790.62830 776.0
0.001227 738.19916 789.95221 815.0
0.001274 738.22870 789.31146 785.0
0.001300 738.25830 788.70575 769.0
0.001300 738.28784 788.13440 769.0
0.001319 738.31738 787.59772 758.0
0.001312 738.34698 787.09595 762.0
0.001267 738.37653 786.63062 789.0
0.001277 738.40607 786.20367 783.0
0.001311 738.43567 785.81696 763.0
0.001318 738.46521 785.47260 759.0
0.001277 738.49481 785.17444 783.0
0.001304 738.52435 784.92542 767.0
0.001328 738.55389 784.80243 753.0
0.001266 738.58344 784.67151 790.0
0.001205 738.61304 784.59747 830.0
0.001220 738.64258 784.59290 820.0
0.001282 738.67212 784.66296 780.0
0.001292 738.70172 784.81561 774.0
0.001269 738.73126 785.05908 788.0
0.001289 738.76080 785.40106 776.0
0.001294 738.79041 785.85217 773.0
0.001295 738.81995 786.42871 772.0
0.001348 738.84949 787.13037 742.0
0.001284 738.87909 787.97607 779.0
0.001300 738.90863 788.97943 769.0
0.001299 738.93817 790.15527 770.0
0.001236 738.96777 791.51929 809.0
0.001274 738.99731 793.09448 785.0
0.001284 739.02686 794.88495 779.0
0.001232 739.05646 796.91504 812.0
0.001138 739.08600 799.20209 879.0
0.001307 739.11560 801.76849 765.0
0.001239 739.14514 804.62366 807.0
0.001255 739.17468 807.78796 797.0
0.001312 739.20428 811.27844 762.0
0.001294 739.23383 815.10944 773.0
0.001195 739.26337 819.33118 837.0
0.001203 739.29297 823.88208 831.0
0.001267 739.32251 828.80695 789.0
0.001235 739.35205 834.11261 810.0
0.001325 739.38165 839.80219 755.0
0.001195 739.41119 845.87421 837.0
0.001215 739.44080 852.32617 823.0
0.001258 739.47034 859.14862 795.0
0.001142 739.49988 866.32855 876.0
0.001225 739.52948 873.84985 816.0
0.001116 739.55902 881.69427 896.0
0.001168 739.58856 889.82709 856.0
0.001168 739.61816 898.22174 856.0
0.001109 739.64771 906.84137 902.0
0.001076 739.67725 915.64819 929.0
0.001080 739.70685 924.59039 926.0
0.001085 739.73639 933.62067 922.0
0.001163 739.76593 942.68463 860.0
0.001060 739.79553 951.72369 943.0
0.001029 739.82507 960.67462 972.0
0.001016 739.85461 969.47174 984.0
0.000959 739.88416 978.04816 1043.0
0.000973 739.91376 986.33118 1028.0
0.000975 739.94330 994.25165 1026.0
0.001034 739.97290 1001.74127 967.0
0.000953 740.00244 1008.73553 1049.0
0.000928 740.03198 1015.17383 1078.0
0.000923 740.06158 1021.00476 1084.0
0.000910 740.09113 1026.18579 1099.0
0.000954 740.12067 1030.68616 1048.0
0.000951 740.15027 1034.48730 1052.0
0.000926 740.17981 1037.58215 1080.0
0.000901 740.20935 1039.98047 1110.0
0.000911 740.23895 1041.69641 1098.0
0.001013 740.26849 1042.76086 987.0
0.001000 740.29803 1043.21069 1000.0
0.000972 740.32764 1043.08887 1029.0
0.001004 740.35718 1042.44458 996.0
0.000966 740.38678 1041.32983 1035.0
0.000966 740.41632 1039.79688 1035.0
0.001047 740.44586 1037.89636 955.0
0.001007 740.47546 1035.68127 993.0
0.000985 740.50500 1033.19995 1015.0
0.001020 740.53455 1030.49536 980.0
0.001050 740.56415 1027.60950 952.0
0.001004 740.59369 1024.57910 996.0
0.000963 740.62323 1021.43811 1038.0
0.000952 740.65283 1018.21619 1050.0
0.001021 740.68237 1014.94006 979.0
0.001054 740.71198 1011.63440 949.0
0.000957 740.74152 1008.32446 1045.0
0.000972 740.77106 1005.03424 1029.0
0.001008 740.80060 1001.79071 992.0
0.000964 740.83020 998.61945 1037.0
0.000999 740.85974 995.55115 1001.0
0.001002 740.88928 992.61536 998.0
0.001026 740.91888 989.84711 975.0
0.000972 740.94843 987.27814 1029.0
0.001079 740.97797 984.94275 927.0
0.001047 741.00757 982.87488 955.0
0.000988 741.03711 981.10657 1012.0
0.001008 741.06665 979.66760 992.0
0.001062 741.09625 978.58496 942.0
0.001099 741.12579 977.88019 910.0
0.001053 741.15533 977.57263 950.0
0.001099 741.18494 977.67505 910.0
0.001103 741.21448 978.19598 907.0
0.001037 741.24402 979.14136 964.0
0.001054 741.27362 980.49774 949.0
0.001109 741.30316 982.26044 902.0
0.001048 741.33276 984.41309 954.0
0.001059 741.36230 986.93256 944.0
0.001080 741.39185 989.79138 926.0
0.001058 741.42145 992.95593 945.0
0.001059 741.45099 996.38501 944.0
0.001050 741.48053 1000.03442 952.0
0.000981 741.51013 1003.85345 1019.0
0.001024 741.53967 1007.78687 977.0
0.000978 741.56921 1011.77557 1022.0
0.000932 741.59882 1015.75519 1073.0
0.000988 741.62836 1019.65997 1012.0
0.000933 741.65796 1023.42291 1072.0
0.000976 741.68750 1026.97449 1025.0
0.000956 741.71704 1030.24683 1046.0
0.000947 741.74664 1033.16467 1056.0
0.000911 741.77618 1035.69385 1098.0
0.000949 741.80573 1037.77039 1054.0
0.000894 741.83533 1039.35486 1118.0
0.000898 741.86487 1040.41650 1114.0
0.000909 741.89441 1040.93677 1100.0
0.000887 741.92401 1040.90979 1128.0
0.000910 741.95355 1040.34009 1099.0
0.000944 741.98309 1039.24365 1059.0
0.000918 742.01263 1037.71887 1089.0
0.000951 742.04224 1035.63989 1051.0
0.000948 742.07178 1033.11633 1055.0
0.000987 742.10132 1030.18286 1013.0
0.000911 742.13092 1026.87439 1098.0
0.001010 742.16046 1023.22369 990.0
0.001020 742.19006 1019.26361 980.0
0.000995 742.21960 1015.02228 1005.0
0.000951 742.24915 1010.52380 1052.0
0.001013 742.27875 1005.79150 987.0
0.000982 742.30829 1000.84381 1018.0
0.000958 742.33783 995.69763 1044.0
0.001054 742.36743 990.35986 949.0
0.000992 742.39697 984.85321 1008.0
0.000994 742.42651 979.18378 1006.0
0.001022 742.45612 973.36102 978.0
0.001021 742.48566 967.39655 979.0
0.001065 742.51520 961.30280 939.0
0.001049 742.54480 955.09436 953.0
0.001003 742.57434 948.79047 997.0
0.000991 742.60394 942.41119 1009.0
0.000974 742.63348 935.98035 1027.0
0.001100 742.66302 929.52423 909.0
0.001029 742.69263 923.07062 972.0
0.001044 742.72217 916.68610 958.0
0.001127 742.75171 910.32288 887.0
0.001119 742.78131 904.04700 894.0
0.001048 742.81085 897.88556 954.0
0.001055 742.84039 891.86230 948.0
0.001088 742.87000 886.00067 919.0
0.001124 742.89954 880.35229 890.0
0.001111 742.92908 874.87347 900.0
0.001144 742.95868 869.61078 874.0
0.001075 742.98822 864.57709 930.0
0.001086 743.01776 859.78381 921.0
0.001196 743.04736 855.24139 836.0
0.001164 743.07690 850.96381 859.0
0.001085 743.07172 846.90802 922.0
0.001175 742.97955 843.03113 851.0
0.001152 742.88745 839.42377 868.0
0.001155 742.79529 836.08356 866.0
0.001193 742.70313 833.00970 838.0
0.001172 742.61102 830.19806 853.0
0.001192 742.51886 827.64270 839.0
0.001179 742.42676 825.33630 848.0
0.001178 742.33459 823.27130 849.0
0.001161 742.24249 821.43634 861.0
0.001149 742.15033 819.81940 870.0
0.001148 742.05817 818.40875 871.0
0.001152 741.96606 817.19043 868.0
0.001134 741.87390 816.14850 882.0
0.001266 741.78180 815.26819 790.0
0.001110 741.68964 814.53308 901.0
0.001189 741.59753 813.92676 841.0
0.001136 741.50537 813.44513 880.0
0.001172 741.41321 813.04297 853.0
0.001074 741.32104 812.71637 931.0
0.001142 741.22894 812.44708 876.0
0.001136 741.13684 812.21875 880.0
0.001182 741.04468 812.01520 846.0
0.001134 740.95258 811.82111 882.0
0.001192 740.86041 811.62537 839.0
0.001174 740.76825 811.42780 852.0
0.001175 740.67609 811.18323 851.0
0.001202 740.58398 810.90143 832.0
0.001131 740.49188 810.57568 884.0
0.001153 740.39972 810.20203 867.0
0.001193 740.30762 809.77716 838.0
0.001172 740.21545 809.30194 853.0
0.001185 740.12329 808.77515 844.0
0.001152 740.03113 808.20221 868.0
0.001230 739.93909 807.59393 813.0
0.001175 739.84692 806.93878 851.0
0.001185 739.75476 806.25153 844.0
0.001178 739.66266 805.53644 849.0
0.001276 739.57050 804.79755 784.0
0.001159 739.47833 804.04517 863.0
0.001203 739.38617 803.28320 831.0
0.001292 739.29413 802.52344 774.0
0.001287 739.20197 801.75757 777.0
0.001284 739.10980 801.02148 779.0
0.001206 739.01764 800.27075 829.0
0.001229 738.92554 799.53381 814.0
0.001299 738.83337 798.81500 770.0
0.001195 738.74121 798.11780 837.0
0.001239 738.64917 797.45190 807.0
0.001300 738.55701 796.81274 769.0
0.001229 738.46484 796.21948 814.0
0.001292 738.37268 795.65820 774.0
0.001164 738.28058 795.14331 859.0
0.001269 738.18842 794.68134 788.0
0.001244 738.09625 794.27747 804.0
0.001280 738.00421 793.93945 781.0
0.001238 737.91205 793.67242 808.0
0.001241 737.81989 793.48218 806.0
0.001353 737.72772 793.37506 739.0
0.001236 737.63562 793.35754 809.0
0.001325 737.54346 793.42896 755.0
0.001248 737.45129 793.59460 801.0
0.001225 737.35925 793.85602 816.0
0.001342 737.26709 794.24597 745.0
0.001259 737.17493 794.69873 794.0
0.001344 737.08276 795.24646 744.0
0.001325 736.99066 795.87982 755.0
0.001368 736.89850 796.59479 731.0
0.001176 736.80634 797.39673 850.0
0.001215 736.71417 798.25134 823.0
0.001391 736.62213 799.16144 719.0
0.001348 736.52997 800.12695 742.0
0.001247 736.43781 801.10974 802.0
0.001244 736.34570 802.10870 804.0
0.001244 736.25354 803.11102 804.0
0.001247 736.16138 804.09729 802.0
0.001247 736.06921 805.05371 802.0
0.001172 735.97717 805.96594 853.0
0.001311 735.88501 806.85089 763.0
0.001244 735.79285 807.63007 804.0
0.001196 735.70074 808.32251 836.0
0.001253 735.60858 808.91785 798.0
0.001277 735.51642 809.40521 783.0
0.001217 735.42432 809.77759 822.0
0.001305 735.33221 810.02960 766.0
0.001261 735.24005 810.15753 793.0
0.001274 735.14789 810.16003 785.0
0.001244 735.05579 810.03912 804.0
0.001227 734.96362 809.79779 815.0
0.001239 734.87146 809.45721 807.0
0.001284 734.77936 808.99127 779.0
0.001311 734.68726 808.42432 763.0
0.001252 734.59509 807.76495 799.0
0.001242 734.50293 807.02313 805.0
0.001242 734.41077 806.20966 805.0
0.001295 734.31866 805.33490 772.0
0.001307 734.22650 804.40936 765.0
0.001244 734.13440 803.45038 804.0
0.001261 734.04230 802.45612 793.0
0.001220 733.95013 801.44153 820.0
0.001258 733.85797 800.41901 795.0
0.001297 733.76581 799.39514 771.0
0.001188 733.67371 798.38025 842.0
0.001235 733.58154 797.38141 810.0
0.001224 733.48944 796.40906 817.0
0.001259 733.39734 795.48608 794.0
0.001316 733.30518 794.58765 760.0
0.001250 733.21301 793.73846 800.0
0.001198 733.12085 792.95099 835.0
0.001279 733.02875 792.22491 782.0
0.001259 732.93658 791.57251 794.0
0.001305 732.84448 791.00323 766.0
0.001309 732.75238 790.52600 764.0
0.001311 732.66022 790.14960 763.0
0.001294 732.56805 789.88452 773.0
0.001205 732.47589 789.73877 830.0
0.001339 732.38379 789.73779 747.0
0.001316 732.29163 789.85999 760.0
0.001217 732.19952 790.12933 822.0
0.001269 732.10736 790.55304 788.0
0.001309 732.01526 791.13757 764.0
0.001364 731.92310 791.89636 733.0
0.001328 731.83093 792.81934 753.0
0.001263 731.73883 793.91779 792.0
0.001326 731.64673 795.19147 754.0
0.001247 731.55457 796.64105 802.0
0.001235 731.46240 798.26276 810.0
0.001344 731.37030 800.05273 744.0
0.001244 731.27814 802.00433 804.0
0.001305 731.18597 804.10809 766.0
0.001364 731.09387 806.35382 733.0
0.001305 731.00177 808.72498 766.0
0.001289 730.90961 811.21033 776.0
0.001326 730.81744 813.78650 754.0
0.001282 730.72534 816.43622 780.0
0.001241 730.63318 819.13617 806.0
0.001307 730.54102 821.86200 765.0
0.001220 730.44891 824.58905 820.0
0.001238 730.35681 827.28918 808.0
0.001217 730.26465 829.93420 822.0
0.001274 730.17249 832.49640 785.0
0.001318 730.08038 834.95422 759.0
0.001134 729.98822 837.26569 882.0
0.001200 729.89606 839.41217 833.0
0.001222 729.80389 841.37018 818.0
0.001215 729.71185 843.12054 823.0
0.001152 729.61969 844.65033 868.0
0.001192 729.52753 845.94061 839.0
0.001202 729.43542 847.00714 832.0
0.001244 729.34326 847.81317 804.0
0.001131 729.25110 848.37872 884.0
0.001233 729.15894 848.71118 811.0
0.001185 729.06689 848.82190 844.0
0.001242 728.97473 848.72272 805.0
0.001174 728.88257 848.42871 852.0
0.001164 728.79047 847.95490 859.0
0.001264 728.69830 847.31567 791.0
0.001129 728.60614 846.52692 886.0
0.001160 728.51398 845.60028 862.0
0.001242 728.42194 844.54810 805.0
0.001188 728.32977 843.38110 842.0
0.001120 728.23761 842.10583 893.0
0.001236 728.14551 840.72961 809.0
0.001229 728.05334 839.25842 814.0
0.001294 727.96118 837.69330 773.0
0.001272 727.86902 836.03821 786.0
0.001282 727.77698 834.29431 780.0
0.001259 727.68481 832.46490 794.0
0.001133 727.59265 830.55017 883.0
0.001285 727.50049 828.55304 778.0
0.001208 727.40839 826.47839 828.0
0.001209 727.31622 824.33026 827.0
0.001271 727.22406 822.11572 787.0
0.001264 727.13202 819.85303 791.0
0.001326 727.03986 817.53394 754.0
0.001183 726.94769 815.17828 845.0
0.001307 726.85553 812.79895 765.0
0.001179 726.76343 810.40875 848.0
0.001245 726.67126 808.02087 803.0
0.001397 726.57910 805.64795 716.0
0.001294 726.48706 803.30322 773.0
0.001196 726.39490 800.99805 836.0
0.001282 726.30273 798.74396 780.0
0.001190 726.21057 796.55182 840.0
0.001252 726.11847 794.42896 799.0
0.001282 726.02631 792.38556 780.0
0.001332 725.93414 790.42810 751.0
0.001305 725.84210 788.56384 766.0
0.001359 725.74994 786.79803 736.0
0.001267 725.65778 785.13495 789.0
0.001332 725.56561 783.57886 751.0
0.001344 725.47351 782.13397 744.0
0.001374 725.38135 780.80176 728.0
0.001333 725.28918 779.58563 750.0
0.001285 725.19708 778.48743 778.0
0.001282 725.10498 777.50537 780.0
0.001242 725.01282 776.64111 805.0
0.001311 724.92065 775.89319 763.0
0.001292 724.82855 775.26184 774.0
0.001277 724.73639 774.74396 783.0
0.001258 724.64423 774.32965 795.0
0.001292 724.55212 774.03015 774.0
0.001350 724.46002 773.83429 741.0
0.001332 724.36786 773.73706 751.0
0.001412 724.27570 773.73303 708.0
0.001269 724.18359 773.81573 788.0
0.001340 724.09143 773.97925 746.0
0.001282 723.99927 774.22321 780.0
0.001302 723.90717 774.52496 768.0
0.001232 723.81506 774.88287 812.0
0.001383 723.72290 775.28857 723.0
0.001309 723.63074 775.73297 764.0
0.001307 723.53864 776.20618 765.0
0.001381 723.44647 776.69904 724.0
0.001255 723.35431 777.19995 797.0
0.001366 723.26221 777.69995 732.0
0.001321 723.17010 778.18939 757.0
0.001339 723.07794 778.65704 747.0
0.001333 722.98578 779.12250 750.0
0.001277 722.89362 779.52136 783.0
0.001299 722.80151 779.87433 770.0
0.001282 722.70941 780.17426 780.0
0.001215 722.61725 780.30847 823.0
0.001326 722.52515 780.48901 754.0
0.001294 722.43298 780.60596 773.0
0.001287 722.34082 780.65796 777.0
0.001294 722.24866 780.64801 773.0
0.001340 722.15656 780.58154 746.0
0.001374 722.06445 780.45453 728.0
0.001253 721.97229 780.27820 798.0
0.001282 721.88019 780.05597 780.0
0.001259 721.78802 779.80286 794.0
0.001337 721.69586 779.51257 748.0
0.001250 721.60370 779.19812 800.0
0.001247 721.51160 778.87067 802.0
0.001346 721.41949 778.52893 743.0
0.001255 721.32733 778.18207 797.0
0.001263 721.23523 777.83612 792.0
0.001357 721.14307 777.49536 737.0
0.001344 721.05090 777.16376 744.0
0.001259 720.95874 776.84357 794.0
0.001370 720.86664 776.53839 730.0
0.001359 720.77454 776.24860 736.0
0.001263 720.68237 775.97443 792.0
0.001285 720.59021 775.73248 778.0
0.001255 720.49811 775.49463 797.0
0.001290 720.40594 775.27429 775.0
0.001267 720.31378 775.07172 789.0
0.001297 720.22168 774.88739 771.0
0.001269 720.12958 774.72089 788.0
0.001319 720.03741 774.57489 758.0
0.001239 719.94525 774.44647 807.0
0.001335 719.85315 774.33673 749.0
0.001252 719.76099 774.24677 799.0
0.001441 719.66882 774.17725 694.0
0.001321 719.57678 774.12860 757.0
0.001232 719.48462 774.10437 812.0
0.001397 719.39246 774.09857 716.0
0.001314 719.30029 774.11377 761.0
0.001247 719.20819 774.15063 802.0
0.001374 719.11603 774.20825 728.0
0.001311 719.02386 774.28705 763.0
0.001406 718.93182 774.38544 711.0
0.001292 718.83966 774.50317 774.0
0.001344 718.74750 774.64038 744.0
0.001253 718.65533 774.79523 798.0
0.001333 718.56323 774.96808 750.0
0.001236 718.47107 775.15851 809.0
0.001269 718.37891 775.36566 788.0
0.001312 718.28674 775.58820 762.0
0.001307 718.19470 775.82556 765.0
0.001295 718.10254 776.07764 772.0
0.001188 718.01038 776.34100 842.0
0.001247 717.91827 776.61481 802.0
0.001333 717.82611 776.89758 750.0
0.001300 717.73395 777.18634 769.0
0.001342 717.64178 777.47589 745.0
0.001269 717.54974 777.76416 788.0
0.001279 717.45758 778.04614 782.0
0.001271 717.36542 778.31714 787.0
0.001232 717.27332 778.57251 812.0
0.001307 717.18115 778.80609 765.0
0.001263 717.08899 779.01282 792.0
0.001193 717.00787 779.19916 838.0
0.001229 716.93988 779.36139 814.0
0.001311 716.87189 779.48395 763.0
0.001230 716.80383 779.56250 813.0
0.001258 716.73584 779.59210 795.0
0.001253 716.66779 779.58173 798.0
0.001236 716.59973 779.52850 809.0
0.001284 716.53174 779.45355 779.0
0.001289 716.46375 779.32739 776.0
0.001253 716.39569 779.17377 798.0
0.001339 716.32764 779.00165 747.0
0.001318 716.25964 778.82062 759.0
0.001299 716.19165 778.64032 770.0
0.001351 716.12360 778.47308 740.0
0.001372 716.05554 778.32959 729.0
0.001284 715.98755 778.22070 779.0
0.001252 715.91956 778.16028 799.0
0.001332 715.85150 778.15759 751.0
0.001323 715.78345 778.22406 756.0
0.001305 715.71545 778.36993 766.0
0.001292 715.64746 778.60425 774.0
0.001247 715.57941 779.05548 802.0
0.001305 715.51141 779.49426 766.0
0.001332 715.44336 780.04529 751.0
0.001224 715.37531 780.71594 817.0
0.001372 715.30731 781.51019 729.0
0.001263 715.23932 782.42798 792.0
0.001274 715.17126 783.48865 785.0
0.001256 715.10321 784.68134 796.0
0.001355 715.03522 786.01379 738.0
0.001248 714.96722 787.48657 801.0
0.001259 714.89917 789.10406 794.0
0.001266 714.83112 790.87433 790.0
0.001259 714.76312 792.78125 794.0
0.001200 714.69513 794.83350 833.0
0.001224 714.62708 797.03082 817.0
0.001323 714.55902 799.37213 756.0
0.001274 714.49103 801.85406 785.0
0.001190 714.42303 804.47394 840.0
0.001220 714.35498 807.22784 820.0
0.001211 714.28699 810.10883 826.0
0.001208 714.21893 813.11096 828.0
0.001181 714.15088 816.22607 847.0
0.001389 714.08289 819.44421 720.0
0.001171 714.01489 822.75482 854.0
0.001252 713.94684 826.14362 799.0
0.001189 713.87878 829.59808 841.0
0.001202 713.81079 833.15155 832.0
0.001225 713.74280 836.68958 816.0
0.001147 713.67474 840.25134 872.0
0.001094 713.60669 843.79639 914.0
0.001136 713.53870 847.31232 880.0
0.001155 713.47070 850.77783 866.0
0.001120 713.40265 854.16357 893.0
0.001171 713.33466 857.45020 854.0
0.001091 713.26660 860.60284 917.0
0.001111 713.19861 863.59747 900.0
0.001105 713.13055 866.40802 905.0
0.001112 713.06256 869.00891 899.0
0.001055 712.99451 871.37537 948.0
0.001144 712.92645 873.48773 874.0
0.001080 712.85846 875.33014 926.0
0.001079 712.79047 876.88428 927.0
0.001072 712.72241 878.14520 933.0
0.001153 712.65436 879.10815 867.0
0.001079 712.58636 879.82190 927.0
0.001092 712.51837 880.20288 916.0
0.001152 712.45032 880.30554 868.0
0.001134 712.38226 880.15906 882.0
0.001091 712.31427 879.75433 917.0
0.001131 712.24628 879.12311 884.0
0.001168 712.17822 878.28735 856.0
0.001086 712.11023 877.26465 921.0
0.001136 712.04218 876.07483 880.0
0.001139 711.97418 874.73730 878.0
0.001166 711.90613 873.31976 858.0
0.001136 711.83813 871.73645 880.0
0.001212 711.77008 870.04919 825.0
0.001166 711.70203 868.27002 858.0
0.001089 711.63409 866.40662 918.0
0.001145 711.56604 864.46613 873.0
0.001178 711.49799 862.45471 849.0
0.001149 711.42993 860.37573 870.0
0.001168 711.36194 858.23291 856.0
0.001120 711.29395 856.03046 893.0
0.001179 711.22589 853.77094 848.0
0.001101 711.15784 851.45905 908.0
0.001192 711.08984 849.12421 839.0
0.001127 711.02185 846.72491 887.0
0.001116 710.95380 844.29407 896.0
0.001174 710.88580 841.84009 852.0
0.001225 710.81775 839.37549 816.0
0.001153 710.74976 836.93640 867.0
0.001196 710.68170 834.49133 836.0
0.001233 710.61371 832.08441 811.0
0.001211 710.54565 829.72913 826.0
0.001174 710.47760 827.42285 852.0
0.001211 710.40967 825.19232 826.0
0.001215 710.34161 823.04803 823.0
0.001198 710.27356 821.00238 835.0
0.001282 710.20551 819.06433 780.0
0.001232 710.13751 817.26709 812.0
0.001221 710.06952 815.56555 819.0
0.001299 710.00146 813.98792 770.0
0.001151 709.93347 812.53467 869.0
0.001269 709.86542 811.20532 788.0
0.001295 709.79742 809.99707 772.0
0.001282 709.72937 808.90649 780.0
0.001312 709.66138 807.92651 762.0
0.001314 709.59332 807.05029 761.0
0.001316 709.52533 806.26862 760.0
0.001276 709.45728 805.57233 784.0
0.001335 709.38928 804.95203 749.0
0.001222 709.32123 804.41003 818.0
0.001186 709.25317 803.91119 843.0
0.001247 709.18524 803.45905 802.0
0.001282 709.11719 803.04321 780.0
0.001233 709.04913 802.65765 811.0
0.001221 708.98108 802.29498 819.0
0.001230 708.91309 801.94904 813.0
0.001236 708.84509 801.61725 809.0
0.001181 708.77704 801.29633 847.0
0.001312 708.70905 800.99274 762.0
0.001252 708.64099 800.69598 799.0
0.001221 708.57300 800.41510 819.0
0.001236 708.50494 800.15442 809.0
0.001267 708.43695 799.91821 789.0
0.001189 708.36890 799.71515 841.0
0.001241 708.30090 799.55231 806.0
0.001312 708.23291 799.43854 762.0
0.001259 708.16486 799.38348 794.0
0.001176 708.09680 799.39801 850.0
0.001182 708.02875 799.51068 846.0
0.001225 707.96082 799.69470 816.0
0.001285 707.89276 799.98151 778.0
0.001314 707.82471 800.38074 761.0
0.001225 707.75665 800.90454 816.0
0.001248 707.68866 801.56256 801.0
0.001230 707.62067 802.36414 813.0
0.001264 707.55261 803.31891 791.0
0.001258 707.48462 804.43256 795.0
0.001271 707.41656 805.71014 787.0
0.001229 707.34857 807.15558 814.0
0.001186 707.28052 808.76910 843.0
0.001214 707.21252 810.54871 824.0
0.001295 707.14447 812.49060 772.0
0.001290 707.07648 814.58722 775.0
0.001272 707.00848 816.82935 786.0
0.001143 706.94043 819.20361 875.0
0.001149 706.87238 821.69611 870.0
0.001164 706.80432 824.28802 859.0
0.001225 706.73639 826.95966 816.0
0.001198 706.66833 829.68842 835.0
0.001155 706.60028 832.45129 866.0
0.001206 706.53229 835.22229 829.0
0.001070 706.46423 837.97534 935.0
0.001094 706.39624 840.68445 914.0
0.001171 706.32819 843.32153 854.0
0.001148 706.26019 845.87079 871.0
0.001091 706.19214 848.28760 917.0
0.001050 706.12415 850.55951 952.0
0.001136 706.05609 852.66400 880.0
0.001112 705.98810 854.58380 899.0
0.001003 705.92004 856.30286 997.0
0.001020 705.85205 857.81281 980.0
0.001085 705.78406 859.10541 922.0
0.001035 705.71600 860.17773 966.0
0.001068 705.64795 861.03314 936.0
0.001104 705.57990 861.67743 906.0
0.001055 705.51196 862.12024 948.0
0.001079 705.44391 862.37646 927.0
0.001103 705.37585 862.46283 907.0
0.001028 705.30786 862.39813 973.0
0.001179 705.23981 862.20514 848.0
0.001076 705.17181 861.90540 929.0
0.001159 705.10376 861.52209 863.0
0.001124 705.03577 861.07971 890.0
0.001093 704.96771 860.59900 915.0
0.001081 704.89972 860.10309 925.0
0.001172 704.83173 859.62555 853.0
0.001100 704.76367 859.15826 909.0
0.001094 704.69562 858.72833 914.0
0.001105 704.62756 858.35272 905.0
0.001107 704.55963 858.04352 903.0
0.001074 704.49158 857.81061 931.0
0.001107 704.42352 857.66418 903.0
0.001144 704.35547 857.58112 874.0
0.001135 704.28754 857.62415 881.0
0.001130 704.21948 857.76831 885.0
0.001038 704.15143 858.01740 963.0
0.001115 704.08344 858.37354 897.0
0.001068 704.01538 858.83972 936.0
0.001041 703.94739 859.41486 961.0
0.001089 703.87933 860.09894 918.0
0.001092 703.81134 860.89319 916.0
0.001117 703.74329 861.79523 895.0
0.001227 703.67529 862.83051 815.0
0.001109 703.60730 863.93829 902.0
0.001049 703.53925 865.14069 953.0
0.001160 703.47119 866.43054 862.0
0.001020 703.40314 867.79724 980.0
0.001063 703.33521 869.22955 941.0
0.001109 703.26715 870.71198 902.0
0.001085 703.19910 872.22778 922.0
0.001148 703.13110 873.75885 871.0
0.001140 703.06305 875.28345 877.0
0.001085 702.99506 876.77979 922.0
0.001036 702.92700 878.23029 965.0
0.001078 702.85901 879.59375 928.0
0.001050 702.79095 880.80524 952.0
0.001040 702.72296 881.93146 962.0
0.001014 702.65491 882.89880 986.0
0.001021 702.58691 883.68256 979.0
0.001029 702.51886 884.25928 972.0
0.001031 702.45087 884.60815 970.0
0.000979 702.38287 884.71283 1021.0
0.000992 702.31482 884.55853 1008.0
0.001093 702.24677 884.13745 915.0
0.001070 702.17871 883.44501 935.0
0.000991 702.11078 882.48169 1009.0
0.001122 702.04272 881.25323 891.0
0.001174 701.97467 879.76776 852.0
0.001104 701.90668 878.03986 906.0
0.001070 701.83862 876.08362 935.0
0.001101 701.77063 873.97430 908.0
0.001101 701.70258 871.61755 908.0
0.001114 701.63458 869.08936 898.0
0.001178 701.56653 866.40912 849.0
0.001161 701.49854 863.59747 861.0
0.001167 701.43054 860.67163 857.0
0.001224 701.36249 857.65448 817.0
0.001134 701.29443 854.55499 882.0
0.001230 701.22644 851.38342 813.0
0.001112 701.15845 848.27069 899.0
0.001144 701.09039 844.99792 874.0
0.001224 701.02234 841.68799 817.0
0.001195 700.95428 838.34515 837.0
0.001195 700.88635 834.97748 837.0
0.001167 700.81830 831.58521 857.0
0.001121 700.75024 828.17279 892.0
0.001225 700.68225 824.74152 816.0
0.001214 700.61420 821.29364 824.0
0.001264 700.54620 817.83179 791.0
0.001133 700.47815 814.35828 883.0
0.001200 700.41016 810.87634 833.0
0.001266 700.34210 807.39075 790.0
0.001245 700.27411 803.90778 803.0
0.001230 700.20612 800.43323 813.0
0.001272 700.13806 796.97540 786.0
0.001277 700.07001 793.54224 783.0
0.001236 700.00201 790.15057 809.0
0.001241 699.93402 786.79596 806.0
0.001189 699.86597 783.49713 841.0
0.001287 699.79791 780.25964 777.0
0.001266 699.72992 777.09644 790.0
0.001350 699.66193 774.01715 741.0
0.001300 699.59387 771.03198 769.0
0.001468 699.52582 768.15643 681.0
0.001381 699.45782 765.38873 724.0
0.001393 699.38977 762.74396 718.0
0.001326 699.32178 760.22906 754.0
0.001287 699.25372 757.85376 777.0
0.001342 699.18573 755.62354 745.0
0.001397 699.11768 753.54449 716.0
0.001403 699.04968 751.62347 713.0
0.001410 698.98169 749.86584 709.0
0.001362 698.91364 748.27283 734.0
0.001403 698.84558 746.84998 713.0
0.001339 698.77759 745.59918 747.0
0.001280 698.70959 744.52173 781.0
0.001348 698.64154 743.61792 742.0
0.001439 698.57349 742.88831 695.0
0.001385 698.50549 742.33185 722.0
0.001427 698.43750 741.94745 701.0
0.001333 698.36945 741.73254 750.0
0.001408 698.30139 741.68420 710.0
0.001289 698.23340 741.80029 776.0
0.001427 698.16534 742.07977 701.0
0.001395 698.09735 742.51166 717.0
0.001408 698.02936 743.09497 710.0
0.001372 697.96130 743.82483 729.0
0.001468 697.89325 744.69513 681.0
0.001422 697.82526 745.70306 703.0
0.001462 697.66547 746.74658 684.0
0.001410 697.45129 747.86017 709.0
0.001383 697.23712 749.08905 723.0
0.001332 697.02295 750.42841 751.0
0.001447 696.80896 751.87097 691.0
0.001406 696.59479 753.40784 711.0
0.001377 696.38062 755.03247 726.0
0.001479 696.16663 756.73651 676.0
0.001362 695.95245 758.51184 734.0
0.001372 695.73828 760.34930 729.0
0.001399 695.52411 762.23987 715.0
0.001353 695.31012 764.19373 739.0
0.001297 695.09595 766.16309 771.0
0.001414 694.88177 768.15839 707.0
0.001307 694.66772 770.16925 765.0
0.001364 694.45361 772.18536 733.0
0.001401 694.23944 774.19800 714.0
0.001277 694.02527 776.19855 783.0
0.001355 693.81122 778.17798 738.0
0.001366 693.59705 780.12701 732.0
0.001387 693.38293 782.03998 721.0
0.001297 693.16888 783.90936 771.0
0.001361 692.95471 785.73315 735.0
0.001267 692.74054 787.50037 789.0
0.001305 692.52637 789.21149 766.0
0.001316 692.31238 790.86371 760.0
0.001355 692.09821 792.45490 738.0
0.001323 691.88403 793.98468 756.0
0.001346 691.66986 795.45319 743.0
0.001264 691.45587 796.86273 791.0
0.001515 691.24170 798.21021 660.0
0.001259 691.02753 799.49884 794.0
0.001348 690.81354 800.73077 742.0
0.001339 690.59937 801.87347 747.0
0.001295 690.38519 802.99536 772.0
0.001300 690.17102 804.06573 769.0
0.001255 689.95703 805.08569 797.0
0.001287 689.74286 806.05780 777.0
0.001220 689.52869 806.98364 820.0
0.001225 689.31470 807.86713 816.0
0.001280 689.10052 808.71887 781.0
0.001269 688.88635 809.52356 788.0
0.001348 688.67218 810.29480 742.0
0.001319 688.45819 811.03510 758.0
0.001359 688.24402 811.74774 736.0
0.001230 688.02985 812.43597 813.0
0.001309 687.81586 813.10315 764.0
0.001359 687.60168 813.75262 736.0
0.001242 687.38751 814.38611 805.0
0.001289 687.17334 815.00513 776.0
0.001335 686.95935 815.61450 749.0
0.001300 686.74518 816.20953 769.0
0.001289 686.53101 816.79401 776.0
0.001208 686.31683 817.36578 828.0
0.001307 686.10284 817.92322 765.0
0.001279 685.88867 818.46460 782.0
0.001206 685.67450 818.98682 829.0
0.001277 685.46045 819.48413 783.0
0.001238 685.24628 819.95276 808.0
0.001264 685.03217 820.38690 791.0
0.001307 684.81799 820.78210 765.0
0.001264 684.60394 821.12982 791.0
0.001280 684.38977 821.42413 781.0
0.001277 684.17560 821.65881 783.0
0.001287 683.96161 821.82843 777.0
0.001142 683.74744 821.92767 876.0
0.001312 683.53326 821.95172 762.0
0.001205 683.31909 821.89734 830.0
0.001285 683.10510 821.76221 778.0
0.001182 682.89093 821.54285 846.0
0.001182 682.67676 821.23950 846.0
0.001186 682.46277 820.85181 843.0
0.001233 682.24860 820.38464 811.0
0.001242 682.03442 819.82935 805.0
0.001280 681.82025 819.19159 781.0
0.001314 681.60626 818.49469 761.0
0.001229 681.39209 817.69696 814.0
0.001276 681.17792 816.82275 784.0
0.001287 680.96375 815.87256 777.0
0.001279 680.74976 814.85059 782.0
0.001244 680.53558 813.76019 804.0
0.001325 680.32141 812.60468 755.0
0.001279 680.10742 811.39001 782.0
0.001337 679.89325 810.12048 748.0
0.001227 679.67908 808.80170 815.0
0.001220 679.46490 807.44055 820.0
0.001319 679.25092 806.04443 758.0
0.001258 679.03674 804.61853 795.0
0.001335 678.82257 803.17114 749.0
0.001271 678.60858 801.70789 787.0
0.001279 678.39441 800.23499 782.0
0.001217 678.18024 798.75922 822.0
0.001178 677.96606 797.28369 849.0
0.001297 677.75208 795.81366 771.0
0.001266 677.53790 794.35461 790.0
0.001364 677.32373 792.90613 733.0
0.001247 677.10968 791.47168 802.0
0.001311 676.89551 790.05109 763.0
0.001410 676.68140 788.64618 709.0
0.001326 676.46722 787.25751 754.0
0.001250 676.25317 785.88037 800.0
0.001366 676.03900 784.51349 732.0
0.001309 675.82483 783.16583 764.0
0.001319 675.61072 781.81165 758.0
0.001355 675.39667 780.45996 738.0
0.001248 675.18250 779.10583 801.0
0.001230 674.96832 777.74622 813.0
0.001418 674.75433 776.37854 705.0
0.001294 674.54016 775.00079 773.0
0.001299 674.32599 773.61078 770.0
0.001368 674.11182 772.20911 731.0
0.001220 673.89783 770.79541 820.0
0.001332 673.68365 769.37103 751.0
0.001242 673.46948 767.93896 805.0
0.001300 673.25549 766.50317 769.0
0.001245 673.04132 765.06793 803.0
0.001250 672.82715 763.63824 800.0
0.001312 672.61298 762.22125 762.0
0.001355 672.39899 760.82245 738.0
0.001304 672.18481 759.45001 767.0
0.001238 671.97064 758.10938 808.0
0.001385 671.75665 756.81085 722.0
0.001309 671.54248 755.55890 764.0
0.001399 671.32831 754.36493 715.0
0.001403 671.11414 753.23364 713.0
0.001344 670.90015 752.17462 744.0
0.001416 670.68597 751.19696 706.0
0.001401 670.47180 750.31036 714.0
0.001203 670.25763 749.52167 831.0
0.001318 670.04364 748.84137 759.0
0.001326 669.82947 748.27893 754.0
0.001441 669.61530 747.84363 694.0
0.001304 669.40125 747.54633 767.0
0.001321 669.18713 747.39618 757.0
0.001420 668.97296 747.40198 704.0
0.001387 668.75879 747.57349 721.0
0.001355 668.54474 747.92084 738.0
0.001333 668.33057 748.45233 750.0
0.001319 668.11646 749.17676 758.0
0.001377 667.90240 750.10095 726.0
0.001316 667.68823 751.24640 760.0
0.001312 667.47406 752.59467 762.0
0.001238 667.25995 754.16400 808.0
0.001370 667.04590 755.96063 730.0
0.001359 666.83173 757.98633 736.0
0.001355 666.61755 760.24493 738.0
0.001227 666.40356 762.73676 815.0
0.001381 666.18939 765.46112 724.0
0.001280 665.97522 768.42242 781.0
0.001272 665.76105 771.60248 786.0
0.001326 665.54706 775.00250 754.0
0.001287 665.33289 778.61163 777.0
0.001209 665.11871 782.41888 827.0
0.001239 664.90454 786.41107 807.0
0.001229 664.69055 790.57251 814.0
0.001126 664.47638 794.88293 888.0
0.001215 664.26221 799.32294 823.0
0.001152 664.04822 803.86810 868.0
0.001172 663.83405 808.49310 853.0
0.001156 663.61987 813.17041 865.0
0.001107 663.40570 817.87109 903.0
0.001053 663.19171 822.56445 950.0
0.001087 662.97754 827.21912 920.0
0.001071 662.76337 831.80365 934.0
0.001043 662.54938 836.28693 959.0
0.001041 662.33521 840.63763 961.0
0.001034 662.12103 844.82471 967.0
0.001057 661.90686 848.81970 946.0
0.001085 661.69287 852.60162 922.0
0.001001 661.47870 856.13153 999.0
0.001025 661.26453 859.39117 976.0
0.000991 661.05048 862.35883 1009.0
0.000988 660.83636 865.01379 1012.0
0.001038 660.62219 867.33752 963.0
0.001031 660.40802 869.31598 970.0
0.001009 660.19397 870.93579 991.0
0.000965 659.97980 872.18744 1036.0
0.001040 659.76569 873.06915 962.0
0.001017 659.55151 873.57336 983.0
0.001081 659.33746 873.70538 925.0
0.001082 659.12329 873.47101 924.0
0.001032 658.90912 872.88068 969.0
0.001037 658.69513 871.94684 964.0
0.001126 658.48096 870.68488 888.0
0.001164 658.26678 869.11328 859.0
0.001047 658.05261 867.25067 955.0
0.001121 657.83862 865.11798 892.0
0.001120 657.62445 862.73444 893.0
0.001157 657.41028 860.12030 864.0
0.001111 657.19629 857.29608 900.0
0.001170 656.98212 854.28027 855.0
0.001221 656.76794 851.09143 819.0
0.001153 656.55377 847.74597 867.0
0.001167 656.33978 844.26141 857.0
0.001131 656.12561 840.65100 884.0
0.001166 655.91144 836.93073 858.0
0.001192 655.69745 833.11017 839.0
0.001247 655.48328 829.20197 802.0
0.001171 655.26910 825.21692 854.0
0.001168 655.05493 821.16327 856.0
0.001104 654.84094 817.04974 906.0
0.001176 654.62677 812.88440 850.0
0.001196 654.41260 808.67377 836.0
0.001245 654.19843 804.42450 803.0
0.001202 653.98444 800.14435 832.0
0.001232 653.77026 795.83978 812.0
0.001202 653.55609 791.51862 832.0
0.001135 653.34210 787.19055 881.0
0.001241 653.12793 782.86285 806.0
0.001300 652.91376 778.54803 769.0
0.001229 652.69958 774.27850 814.0
0.001276 652.48560 770.01160 784.0
0.001289 652.27142 765.80151 776.0
0.001244 652.05725 761.62476 804.0
0.001362 651.84320 757.51318 734.0
0.001563 651.62909 753.46643 640.0
0.001314 651.41492 749.49872 761.0
0.001279 651.20074 745.61853 782.0
0.001453 650.98669 741.83380 688.0
0.001307 650.77252 738.15308 765.0
0.001340 650.55841 734.58337 746.0
0.001377 650.34436 731.12933 726.0
0.001353 650.13019 727.81677 739.0
0.001441 649.91602 724.61346 694.0
0.001433 649.70184 721.54309 698.0
0.001401 649.48785 718.60815 714.0
0.001511 649.27368 715.81146 662.0
0.001346 649.05951 713.15717 743.0
0.001524 648.84534 710.64508 656.0
0.001379 648.63135 708.27643 725.0
0.001414 648.41718 706.05139 707.0
0.001351 648.20300 703.96832 740.0
0.001445 647.98901 702.02698 692.0
0.001460 647.77484 700.22314 685.0
0.001506 647.56067 698.55524 664.0
0.001506 647.34650 697.01996 664.0
0.001414 647.13251 695.61353 707.0
0.001435 646.91833 694.32941 697.0
0.001486 646.70416 693.16394 673.0
0.001603 646.49017 692.12634 624.0
0.001645 646.27600 691.18256 608.0
0.001383 646.06183 690.35040 723.0
0.001443 645.84766 689.60760 693.0
0.001534 645.63367 688.95715 652.0
0.001359 645.41949 688.39703 736.0
0.001499 645.20532 687.91693 667.0
0.001361 644.99133 687.52362 735.0
0.001536 644.77716 687.19843 651.0
0.001493 644.56299 686.94458 670.0
0.001404 644.34882 686.75916 712.0
0.001391 644.13483 686.62543 719.0
0.001495 643.92065 686.56934 669.0
0.001536 643.70648 686.58368 651.0
0.001406 643.49231 686.64758 711.0
0.001414 643.27832 686.77472 707.0
0.001464 643.06415 686.94934 683.0
0.001456 642.84998 687.17517 687.0
0.001538 642.63593 687.45062 650.0
0.001437 642.42175 687.76984 696.0
0.001451 642.20764 688.13165 689.0
0.001592 641.99347 688.53052 628.0
0.001546 641.77942 688.96179 647.0
0.001515 641.56525 689.42114 660.0
0.001493 641.35107 689.90320 670.0
0.001429 641.13708 690.40222 700.0
0.001401 640.92291 690.91370 714.0
0.001548 640.70874 691.42871 646.0
0.001389 640.49457 691.94324 720.0
0.001464 640.28058 692.45178 683.0
0.001515 640.06641 692.94818 660.0
0.001515 639.85223 693.42657 660.0
0.001587 639.63824 693.88300 630.0
0.001475 639.42407 694.31226 678.0
0.001460 639.20990 694.71039 685.0
0.001429 638.99573 695.00165 700.0
0.001429 638.78174 695.33191 700.0
0.001517 638.56757 695.62317 659.0
0.001364 638.35339 695.87640 733.0
0.001401 638.13922 696.14679 714.0
0.001462 637.92523 696.32562 684.0
0.001479 637.71106 696.46844 676.0
0.001449 637.49689 696.58221 690.0
0.001414 637.28290 696.66351 707.0
0.001408 637.17365 696.82458 710.0
0.001422 637.09076 696.99097 703.0
0.001340 637.00781 697.14166 746.0
0.001493 636.92493 697.28168 670.0
0.001460 636.84204 697.41724 685.0
0.001471 636.75909 697.55438 680.0
0.001488 636.67621 697.69867 672.0
0.001359 636.59332 697.85608 736.0
0.001527 636.51038 698.03265 655.0
0.001488 636.42743 698.23346 672.0
0.001497 636.34460 698.46460 668.0
0.001567 636.26166 698.72949 638.0
0.001495 636.17877 699.03400 669.0
0.001443 636.09589 699.37952 693.0
0.001563 636.01294 699.76996 640.0
0.001520 635.93005 700.20673 658.0
0.001377 635.84711 700.69159 726.0
0.001466 635.76422 701.22437 682.0
0.001477 635.68134 701.80328 677.0
0.001441 635.59839 702.42792 694.0
0.001403 635.51544 703.09570 713.0
0.001473 635.43262 703.80286 679.0
0.001443 635.34967 704.54578 693.0
0.001401 635.26672 705.32001 714.0
0.001473 635.18390 706.14789 679.0
0.001529 635.10095 706.96979 654.0
0.001370 635.01801 707.80591 730.0
0.001379 634.93512 708.65100 725.0
0.001451 634.85223 709.49890 689.0
0.001372 634.76929 710.34363 729.0
0.001368 634.68640 711.17920 731.0
0.001385 634.60352 711.99902 722.0
0.001401 634.52057 712.79730 714.0
0.001471 634.43768 713.56897 680.0
0.001393 634.35474 714.30743 718.0
0.001437 634.27185 715.00958 696.0
0.001368 634.18896 715.66962 731.0
0.001346 634.10602 716.28870 743.0
0.001332 634.02313 716.85553 751.0
0.001456 633.94025 717.37274 687.0
0.001366 633.85730 717.83789 732.0
0.001342 633.77435 718.25165 745.0
0.001318 633.69153 718.61450 759.0
0.001399 633.60858 718.92889 715.0
0.001330 633.52563 719.19702 752.0
0.001302 633.44275 719.42230 768.0
0.001383 633.35986 719.61035 723.0
0.001325 633.27698 719.76501 755.0
0.001368 633.19403 719.89032 731.0
0.001269 633.11115 719.99969 788.0
0.001374 633.02826 720.09363 728.0
0.001282 632.94531 720.17883 780.0
0.001416 632.86237 720.26447 706.0
0.001508 632.77954 720.35706 663.0
0.001534 632.69659 720.46417 652.0
0.001425 632.61365 720.59009 702.0
0.001323 632.53082 720.74255 756.0
0.001433 632.44788 720.92725 698.0
0.001401 632.36493 721.14984 714.0
0.001335 632.28204 721.41284 749.0
0.001391 632.19916 721.72211 719.0
0.001475 632.11621 722.07867 678.0
0.001429 632.03333 722.48596 700.0
0.001385 631.95044 722.94318 722.0
0.001353 631.86749 723.45135 739.0
0.001333 631.78461 724.01044 750.0
0.001381 631.70166 724.61554 724.0
0.001339 631.61877 725.26495 747.0
0.001325 631.53589 725.95721 755.0
0.001376 631.45294 726.68225 727.0
0.001425 631.37000 727.43890 702.0
0.001344 631.28717 728.21808 744.0
0.001420 631.20422 729.01538 704.0
0.001353 631.12128 729.76215 739.0
0.001239 631.03845 730.57074 807.0
0.001355 630.95551 731.37256 738.0
0.001321 630.87256 732.15894 757.0
0.001393 630.78967 732.92090 718.0
0.001376 630.70679 733.64783 727.0
0.001353 630.62384 734.32947 739.0
0.001346 630.54095 734.95776 743.0
0.001366 630.45807 735.52203 732.0
0.001316 630.37518 736.01337 760.0
0.001406 630.29224 736.42273 711.0
0.001316 630.20929 736.74170 760.0
0.001285 630.12646 736.96350 778.0
0.001387 630.04352 737.08130 721.0
0.001152 629.96057 737.08990 868.0
0.001300 629.87775 736.98572 769.0
0.001295 629.79480 736.76605 772.0
0.001323 629.71185 736.42969 756.0
0.001271 629.62897 735.97845 787.0
0.001379 629.54608 735.41290 725.0
0.001342 629.46313 734.73840 745.0
0.001408 629.38025 733.96185 710.0
0.001333 629.29730 733.07776 750.0
0.001287 629.21442 732.10504 777.0
0.001368 629.13153 731.04749 731.0
0.001346 629.04858 729.91278 743.0
0.001350 628.96570 728.70807 741.0
0.001364 628.88281 727.44330 733.0
0.001357 628.79987 726.12408 737.0
0.001342 628.71692 724.75885 745.0
0.001328 628.63409 723.35413 753.0
0.001420 628.55115 721.91565 704.0
0.001269 628.46820 720.44830 788.0
0.001431 628.38538 718.95941 699.0
0.001362 628.30243 717.44635 734.0
0.001368 628.21948 715.91473 731.0
0.001460 628.13660 714.36597 685.0
0.001493 628.05371 712.80096 670.0
0.001385 627.97076 711.22131 722.0
0.001372 627.88788 709.62634 729.0
0.001466 627.80499 708.01605 682.0
0.001479 627.72205 706.39008 676.0
0.001412 627.63916 704.75494 708.0
0.001443 627.55621 703.09686 693.0
0.001541 627.47333 701.42181 649.0
0.001548 627.39044 699.73083 646.0
0.001418 627.30750 698.02423 705.0
0.001361 627.22455 696.30347 735.0
0.001418 627.14172 694.56964 705.0
0.001460 627.05878 692.82513 685.0
0.001374 626.97589 691.07202 728.0
0.001458 626.89301 689.31598 686.0
0.001497 626.81006 687.55530 668.0
0.001546 626.72717 685.79614 647.0
0.001538 626.64423 684.04156 650.0
0.001493 626.56134 682.29559 670.0
0.001460 626.47845 680.56329 685.0
0.001577 626.39551 678.84668 634.0
0.001484 626.31262 677.15198 674.0
0.001567 626.22974 675.48175 638.0
0.001553 626.14679 673.83984 644.0
0.001577 626.06384 672.23254 634.0
0.001567 625.98102 670.65991 638.0
0.001626 625.89807 669.12677 615.0
0.001538 625.81512 667.63531 650.0
0.001504 625.73230 666.18909 665.0
0.001613 625.64935 664.79028 620.0
0.001675 625.56641 663.44104 597.0
0.001473 625.48352 662.14282 679.0
0.001495 625.40063 660.89728 669.0
0.001580 625.31769 659.70514 633.0
0.001527 625.23480 658.56708 655.0
0.001538 625.15186 657.48456 650.0
0.001479 625.06897 656.45587 676.0
0.001497 624.98608 655.48590 668.0
0.001621 624.90314 654.56604 617.0
0.001511 624.82025 653.69910 662.0
0.001555 624.73737 652.90259 643.0
0.001517 624.65442 652.13812 659.0
0.001488 624.57147 651.42303 672.0
0.001669 624.48865 650.75562 599.0
0.001605 624.40570 650.13434 623.0
0.001541 624.32275 649.55505 649.0
0.001531 624.23993 649.02612 653.0
0.001592 624.15698 648.52832 628.0
0.001634 624.07410 648.06812 612.0
0.001508 623.99115 647.64294 663.0
0.001629 623.90826 647.25067 614.0
0.001577 623.82538 646.88867 634.0
0.001608 623.74243 646.55609 622.0
0.001610 623.65955 646.24994 621.0
0.001592 623.57666 645.96820 628.0
0.001475 623.49371 645.71075 678.0
0.001541 623.41077 645.47205 649.0
0.001536 623.32794 645.25281 651.0
0.001580 623.24500 645.05042 633.0
0.001553 623.16205 644.86328 644.0
0.001560 623.07916 644.69037 641.0
0.001550 622.99628 644.52960 645.0
0.001653 622.91333 644.37946 605.0
0.001605 622.83044 644.23859 623.0
0.001497 622.74756 644.10547 668.0
0.001548 622.66461 643.98016 646.0
0.001456 622.58173 643.86053 687.0
0.001626 622.49878 643.74658 615.0
0.001621 622.41589 643.63708 617.0
0.001520 622.33301 643.53131 658.0
0.001565 622.25006 643.43048 639.0
0.001605 622.16718 643.33264 623.0
0.001464 622.08429 643.24756 683.0
0.001536 622.00134 643.15735 651.0
0.001477 621.91840 643.07538 677.0
0.001610 621.83557 642.99390 621.0
0.001580 621.75262 642.91785 633.0
0.001626 621.66968 642.84753 615.0
0.001548 621.58685 642.78503 646.0
0.001486 621.50391 642.72949 673.0
0.001508 621.42096 642.69598 663.0
0.001538 621.33807 642.66028 650.0
0.001626 621.25519 642.63617 615.0
0.001613 621.17230 642.62524 620.0
0.001597 621.08936 642.62952 626.0
0.001616 621.00641 642.64807 619.0
0.001605 620.92358 642.68451 623.0
0.001541 620.84064 642.74023 649.0
0.001575 620.75769 642.81555 635.0
0.001610 620.67487 642.91296 621.0
0.001534 620.59192 643.03381 652.0
0.001608 620.50897 643.17883 622.0
0.001656 620.42609 643.35022 604.0
0.001558 620.34320 643.54877 642.0
0.001495 620.26025 643.77545 669.0
0.001577 620.17737 644.03253 634.0
0.001499 620.09448 644.32092 667.0
0.001577 620.01154 644.64856 634.0
0.001553 619.92865 645.00208 644.0
0.001595 619.84570 645.39099 627.0
0.001473 619.76282 645.81531 679.0
0.001524 619.67993 646.27704 656.0
0.001497 619.59698 646.77972 668.0
0.001575 619.51410 647.31873 635.0
0.001637 619.43121 647.89825 611.0
0.001575 619.34827 648.51984 635.0
0.001502 619.26532 649.18396 666.0
0.001506 619.18250 649.89233 664.0
0.001479 619.09955 650.64569 676.0
0.001639 619.01660 651.45105 610.0
0.001618 618.93372 652.29688 618.0
0.001553 618.85083 653.18994 644.0
0.001616 618.76788 654.13104 619.0
0.001529 618.68500 655.12018 654.0
0.001522 618.60211 656.15448 657.0
0.001468 618.51917 657.24060 681.0
0.001610 618.43628 658.37323 621.0
0.001538 618.35333 659.55334 650.0
0.001543 618.27051 660.77875 648.0
0.001502 618.18756 662.04913 666.0
0.001534 618.10461 663.36182 652.0
0.001661 618.02179 664.71478 602.0
0.001575 617.93884 666.10565 635.0
0.001502 617.85590 667.53162 666.0
0.001534 617.77301 668.98901 652.0
0.001443 617.69012 670.47479 693.0
0.001453 617.60718 671.98340 688.0
0.001587 617.52429 673.51410 630.0
0.001366 617.44141 675.06012 732.0
0.001538 617.35846 676.61322 650.0
0.001515 617.27557 678.16986 660.0
0.001453 617.19263 679.72363 688.0
0.001484 617.10974 681.26996 674.0
0.001422 617.02686 682.80780 703.0
0.001468 616.94391 684.31659 681.0
0.001379 616.86096 685.79901 725.0
0.001443 616.77814 687.24799 693.0
0.001464 616.69519 688.65131 683.0
0.001422 616.61224 690.00494 703.0
0.001389 616.52942 691.30328 720.0
0.001387 616.44647 692.53003 721.0
0.001397 616.36353 693.69830 716.0
0.001372 616.28064 694.80505 729.0
0.001416 616.19775 695.82037 706.0
0.001468 616.11481 696.75134 681.0
0.001420 616.03192 697.59497 704.0
0.001412 615.94904 698.35046 708.0
0.001412 615.86609 699.00909 708.0
0.001468 615.78320 699.57336 681.0
0.001451 615.70026 700.04083 689.0
0.001449 615.61737 700.41235 690.0
0.001379 615.53448 700.68768 725.0
0.001473 615.45154 700.87286 679.0
0.001453 615.36865 700.96185 688.0
0.001420 615.28577 700.96143 704.0
0.001427 615.20282 700.87549 701.0
0.001332 615.11987 700.70837 751.0
0.001401 615.03705 700.46436 714.0
0.001515 614.95410 700.14868 660.0
0.001451 614.87122 699.77142 689.0
0.001460 614.78827 699.32898 685.0
0.001359 614.70538 698.83075 736.0
0.001379 614.62250 698.28442 725.0
0.001610 614.53955 697.69336 621.0
0.001464 614.45667 697.06372 683.0
0.001412 614.37378 696.40430 708.0
0.001466 614.29083 695.71344 682.0
0.001475 614.20789 694.99921 678.0
0.001425 614.12506 694.26764 702.0
0.001397 614.04211 693.52051 716.0
0.001504 613.95917 692.76294 665.0
0.001466 613.87634 691.99939 682.0
0.001447 613.79340 691.23425 691.0
0.001506 613.65735 690.42401 664.0
0.001437 613.51971 689.61212 696.0
0.001484 613.38220 688.81140 674.0
0.001383 613.24463 688.02454 723.0
0.001506 613.10699 687.25610 664.0
0.001379 612.96948 686.51190 725.0
0.001399 612.83185 685.79413 715.0
0.001408 612.69427 685.10809 710.0
0.001466 612.55664 684.45905 682.0
0.001433 612.41913 683.85132 698.0
0.001499 612.28149 683.29022 667.0
0.001479 612.14392 682.78247 676.0
0.001468 612.00629 682.32837 681.0
0.001439 611.86877 681.93524 695.0
0.001484 611.73114 681.60730 674.0
0.001453 611.59357 681.35162 688.0
0.001414 611.45605 681.16797 707.0
0.001466 611.31842 681.06470 682.0
0.001453 611.18079 681.04108 688.0
0.001522 611.04321 681.10291 657.0
0.001479 610.90570 681.25256 676.0
0.001397 610.76807 681.49255 716.0
0.001534 610.63043 681.82562 652.0
0.001515 610.49292 682.25287 660.0
0.001567 610.35535 682.77466 638.0
0.001536 610.21771 683.39294 651.0
0.001600 610.08008 684.10663 625.0
0.001515 609.94257 684.91449 660.0
0.001493 609.80499 685.83441 670.0
0.001515 609.66736 686.82562 660.0
0.001515 609.52985 687.90527 660.0
0.001506 609.39221 689.06805 664.0
0.001406 609.25464 690.31049 711.0
0.001420 609.11700 691.62653 704.0
0.001443 608.97949 693.01190 693.0
0.001443 608.84186 694.45740 693.0
0.001473 608.70428 695.95685 679.0
0.001481 608.56665 697.50250 675.0
0.001403 608.42914 699.08533 713.0
0.001361 608.29156 700.69617 735.0
0.001362 608.15393 702.32538 734.0
0.001443 608.01642 703.96130 693.0
0.001445 607.87878 705.59546 692.0
0.001422 607.74121 707.21545 703.0
0.001414 607.60358 708.80969 707.0
0.001385 607.46606 710.36902 722.0
0.001385 607.32843 711.87897 722.0
0.001333 607.19086 713.32983 750.0
0.001376 607.05334 714.71234 727.0
0.001366 606.91571 716.01514 732.0
0.001445 606.77808 717.22931 692.0
0.001238 606.64050 718.34692 808.0
0.001406 606.50299 719.36505 711.0
0.001357 606.36536 720.27203 737.0
0.001316 606.22772 721.06702 760.0
0.001305 606.09021 721.74762 766.0
0.001408 605.95264 722.31281 710.0
0.001361 605.81500 722.76215 735.0
0.001412 605.67737 723.09845 708.0
0.001287 605.53986 723.32709 777.0
0.001381 605.40228 723.43646 724.0
0.001305 605.26465 723.43652 766.0
0.001420 605.12701 723.33020 704.0
0.001258 604.98950 723.11761 795.0
0.001323 604.85193 722.80219 756.0
0.001256 604.71429 722.38513 796.0
0.001325 604.57678 721.86768 755.0
0.001376 604.43915 721.25043 727.0
0.001351 604.30157 720.53406 740.0
0.001346 604.16394 719.71973 743.0
0.001366 604.02643 718.80731 732.0
0.001362 603.88879 717.79926 734.0
0.001328 603.75122 716.69489 753.0
0.001335 603.61371 715.49628 749.0
0.001351 603.47607 714.20618 740.0
0.001332 603.33844 712.82715 751.0
0.001359 603.20087 711.36102 736.0
0.001233 603.06335 709.81305 811.0
0.001330 602.92572 708.18671 752.0
0.001351 602.78809 706.48792 740.0
0.001361 602.65057 704.72192 735.0
0.001350 602.51300 702.89496 741.0
0.001314 602.37537 701.01410 761.0
0.001414 602.23773 699.08704 707.0
0.001473 602.10022 697.12030 679.0
0.001439 601.96265 695.11951 695.0
0.001443 601.82501 693.09503 693.0
0.001393 601.68738 691.05298 718.0
0.001404 601.54987 689.00226 712.0
0.001399 601.41229 686.94946 715.0
0.001439 601.27466 684.90033 695.0
0.001414 601.13715 682.86273 707.0
0.001522 600.99951 680.84161 657.0
0.001511 600.86194 678.84277 662.0
0.001575 600.72430 676.87048 635.0
0.001422 600.58679 674.92914 703.0
0.001473 600.44916 673.02191 679.0
0.001543 600.31158 671.15283 648.0
0.001473 600.17407 669.32385 679.0
0.001460 600.03644 667.53699 685.0
0.001443 599.89880 665.79529 693.0
0.001366 599.76123 664.09985 732.0
0.001531 599.62372 662.47223 653.0
0.001531 599.48608 660.87579 653.0
0.001597 599.34845 659.33075 626.0
0.001462 599.21094 657.83997 684.0
0.001506 599.07336 656.40277 664.0
0.001592 598.93573 655.02216 628.0
0.001464 598.79810 653.69775 683.0
0.001560 598.66058 652.43121 641.0
0.001460 598.52301 651.22302 685.0
0.001582 598.38538 650.07318 632.0
0.001517 598.24774 648.98193 659.0
0.001580 598.11023 647.95105 633.0
0.001453 597.97266 646.97607 688.0
0.001548 597.83502 646.05792 646.0
0.001603 597.69751 645.19537 624.0
0.001543 597.55988 644.38586 648.0
0.001567 597.42230 643.62842 638.0
0.001672 597.28467 642.92755 598.0
0.001701 597.14716 642.26752 588.0
0.001481 597.00958 641.65302 675.0
0.001587 596.87195 641.07990 630.0
0.001479 596.73444 640.54767 676.0
0.001513 596.59680 640.05188 661.0
0.001508 596.45923 639.59778 663.0
0.001497 596.32159 639.16687 668.0
0.001511 596.18408 638.76428 662.0
0.001631 596.04645 638.38654 613.0
0.001522 595.90887 638.01312 657.0
0.001587 595.77136 637.67896 630.0
0.001600 595.63373 637.36285 625.0
0.001546 595.49609 637.07092 647.0
0.001642 595.35852 636.78497 609.0
0.001613 595.22101 636.51184 620.0
0.001575 595.08337 636.24988 635.0
0.001580 594.94574 635.99957 633.0
0.001590 594.80817 635.75964 629.0
0.001511 594.67065 635.53149 662.0
0.001572 594.53302 635.31433 636.0
0.001580 594.39539 635.10931 633.0
0.001600 594.25787 634.91730 625.0
0.001560 594.12030 634.73999 641.0
0.001560 593.98267 634.57751 641.0
0.001629 593.84503 634.43292 614.0
0.001621 593.70752 634.30609 617.0
0.001592 593.56995 634.19855 628.0
0.001585 593.43231 634.11200 631.0
0.001623 593.29480 634.05109 616.0
0.001515 593.15717 634.02679 660.0
0.001582 593.01959 634.01141 632.0
0.001555 592.88196 634.02161 643.0
0.001580 592.74445 634.05798 633.0
0.001623 592.60681 634.12164 616.0
0.001506 592.46924 634.21265 664.0
0.001667 592.33173 634.31085 600.0
0.001506 592.19409 634.46246 664.0
0.001546 592.05646 634.63837 647.0
0.001730 591.91888 634.84204 578.0
0.001689 591.78137 635.07343 592.0
0.001575 591.64374 635.33148 635.0
0.001634 591.50610 635.61487 612.0
0.001645 591.36853 635.92358 608.0
0.001610 591.23102 636.25586 621.0
0.001517 591.09338 636.61316 659.0
0.001577 590.95575 636.98706 634.0
0.001572 590.81824 637.37946 636.0
0.001541 590.68066 637.78687 649.0
0.001621 590.54303 638.21698 617.0
0.001618 590.40540 638.64771 618.0
0.001653 590.26788 639.08569 605.0
0.001531 590.13031 639.52679 653.0
0.001506 589.99268 639.96729 664.0
0.001582 589.85516 640.40448 632.0
0.001634 589.71753 640.83392 612.0
0.001605 589.57996 641.25122 623.0
0.001608 589.44232 641.65558 622.0
0.001656 589.30481 642.03625 604.0
0.001675 589.16718 642.39343 597.0
0.001508 589.02960 642.72321 663.0
0.001538 588.89209 643.02148 650.0
0.001563 588.75446 643.28699 640.0
0.001575 588.61682 643.52405 635.0
0.001597 588.47925 643.71613 626.0
0.001520 588.34174 643.87024 658.0
0.001548 588.20410 643.98535 646.0
0.001529 588.06647 644.06238 654.0
0.001541 587.92889 644.10120 649.0
0.001558 587.79138 644.10486 642.0
0.001527 587.65375 644.07300 655.0
0.001597 587.51611 644.00903 626.0
0.001499 587.37860 643.91608 667.0
0.001520 587.24103 643.79492 658.0
0.001565 587.10339 643.64966 639.0
0.001548 586.96576 643.48236 646.0
0.001529 586.82825 643.29602 654.0
0.001650 586.69067 643.09283 606.0
0.001506 586.55304 642.87500 664.0
0.001534 586.41553 642.64447 652.0
0.001497 586.27795 642.41406 668.0
0.001590 586.14032 642.16400 629.0
0.001639 586.00269 641.90558 610.0
0.001575 585.86517 641.63953 635.0
0.001572 585.72760 641.36560 636.0
0.001567 585.58997 641.08502 638.0
0.001565 585.45245 640.79602 639.0
0.001513 585.31482 640.49847 661.0
0.001553 585.17725 640.19177 644.0
0.001506 585.03961 639.87378 664.0
0.001587 584.90210 639.54376 630.0
0.001558 584.76447 639.20215 642.0
0.001543 584.62689 638.84192 648.0
0.001597 584.48926 638.46466 626.0
0.001456 584.35175 638.06842 687.0
0.001613 584.21411 637.65155 620.0
0.001504 584.07654 637.21191 665.0
0.001493 583.93903 636.74829 670.0
0.001473 583.80139 636.25934 679.0
0.001645 583.66376 635.74445 608.0
0.001511 583.52618 635.20184 662.0
0.001550 583.38867 634.63239 645.0
0.001499 583.25104 634.03546 667.0
0.001653 583.11340 633.41089 605.0
0.001462 582.97589 632.76038 684.0
0.001522 582.83832 632.08405 657.0
0.001504 582.70068 631.38397 665.0
0.001543 582.56305 630.66107 648.0
0.001553 582.42554 629.91791 644.0
0.001653 582.28796 629.15704 605.0
0.001572 582.15033 628.38055 636.0
0.001456 582.01282 627.59198 687.0
0.001541 581.87518 626.79944 649.0
0.001536 581.73761 625.99567 651.0
0.001650 581.59998 625.18915 606.0
0.001511 581.46246 624.37738 662.0
0.001642 581.32483 623.57355 609.0
0.001582 581.18726 622.78790 632.0
0.001536 581.04962 621.99762 651.0
0.001582 580.91211 621.21832 632.0
0.001580 580.77448 620.46027 633.0
0.001623 580.63690 619.70685 616.0
0.001543 580.49939 618.96906 648.0
0.001639 580.36176 618.24774 610.0
0.001608 580.22412 617.54327 622.0
0.001678 580.08655 616.85614 596.0
0.001637 579.94904 616.18640 611.0
0.001639 579.81140 615.53784 610.0
0.001603 579.67377 614.90326 624.0
0.001621 579.53625 614.28473 617.0
0.001736 579.39868 613.68176 576.0
0.001681 579.26105 613.09375 595.0
0.001592 579.12341 612.51953 628.0
0.001695 578.98590 611.95825 590.0
0.001637 578.84833 611.40918 611.0
0.001639 578.71069 610.87054 610.0
0.001575 578.57318 610.34094 635.0
0.001567 578.43555 609.82062 638.0
0.001689 578.29797 609.30847 592.0
0.001597 578.16034 608.80402 626.0
0.001642 578.02283 608.30487 609.0
0.001701 577.88519 607.76569 588.0
0.001623 577.74762 607.27802 616.0
0.001733 577.60999 606.79437 577.0
0.001661 577.47247 606.31549 602.0
0.001603 577.33484 605.84351 624.0
0.001656 577.19727 605.37146 604.0
0.001613 577.05975 604.90326 620.0
0.001621 576.92212 604.44434 617.0
0.001565 576.78448 603.98236 639.0
0.001709 576.64691 603.52319 585.0
0.001761 576.50940 603.07153 568.0
0.001681 576.37177 602.61707 595.0
0.001773 576.23413 602.16528 564.0
0.001712 576.09668 601.71552 584.0
0.001575 575.95905 601.26807 635.0
0.001706 575.82141 600.82263 586.0
0.001669 575.68378 600.37817 599.0
0.001639 575.54633 599.93518 610.0
0.001603 575.40869 599.49518 624.0
0.001672 575.27106 599.05322 598.0
0.001770 575.13354 598.61224 565.0
0.001642 574.99597 598.17120 609.0
0.001623 574.87646 597.74762 616.0
0.001739 574.86597 597.43182 575.0
0.001650 574.85541 597.11572 606.0
0.001828 574.84491 596.79822 547.0
0.001721 574.83435 596.47968 581.0
0.001642 574.82379 596.15973 609.0
0.001764 574.81329 595.83862 567.0
0.001802 574.80273 595.51605 555.0
0.001675 574.79224 595.19226 597.0
0.001704 574.78168 594.86804 587.0
0.001709 574.77118 594.54254 585.0
0.001721 574.76062 594.21722 581.0
0.001742 574.75006 593.89203 574.0
0.001724 574.73956 593.56726 580.0
0.001577 574.72900 593.24335 634.0
0.001629 574.71851 592.92102 614.0
0.001678 574.70795 592.60077 596.0
0.001650 574.69745 592.28235 606.0
0.001698 574.68689 591.96686 589.0
0.001650 574.67633 591.65430 606.0
0.001721 574.66583 591.34521 581.0
0.001776 574.65527 591.04004 563.0
0.001639 574.64478 590.73889 610.0
0.001712 574.63422 590.44165 584.0
0.001727 574.62372 590.14935 579.0
0.001664 574.61316 589.86877 601.0
0.001852 574.60260 589.58533 540.0
0.001675 574.59210 589.30878 597.0
0.001642 574.58154 589.03497 609.0
0.001653 574.57104 588.76599 605.0
0.001658 574.56049 588.50098 603.0
0.001776 574.54999 588.24139 563.0
0.001764 574.53943 587.98633 567.0
0.001658 574.52887 587.73633 603.0
0.001689 574.51837 587.49066 592.0
0.001739 574.50781 587.25568 575.0
0.001730 574.49731 587.02026 578.0
0.001898 574.48676 586.79022 527.0
0.001704 574.47626 586.56537 587.0
0.001653 574.46570 586.34576 605.0
0.001684 574.45514 586.13269 594.0
0.001894 574.44464 585.92554 528.0
0.001610 574.43408 585.72455 621.0
0.001934 574.42358 585.53009 517.0
0.001667 574.41302 585.34357 600.0
0.001757 574.40253 585.16370 569.0
0.001866 574.39197 584.99158 536.0
0.001742 574.38141 584.82861 574.0
0.001764 574.37091 584.67395 567.0
0.001672 574.36035 584.52899 598.0
0.001650 574.34985 584.39349 606.0
0.001715 574.33929 584.26831 583.0
0.001883 574.32880 584.15472 531.0
0.001698 574.31824 584.05219 589.0
0.001709 574.30768 583.96240 585.0
0.001681 574.29718 583.88531 595.0
0.001684 574.28662 583.82239 594.0
0.001692 574.27612 583.77716 591.0
0.001815 574.26556 583.75348 551.0
0.001835 574.25507 583.73682 545.0
0.001773 574.24451 583.74139 564.0
0.001727 574.23395 583.76068 579.0
0.001727 574.22345 583.79956 579.0
0.001715 574.21289 583.85992 583.0
0.001642 574.20239 583.94141 609.0
0.001828 574.19183 584.04822 547.0
0.001795 574.18134 584.17676 557.0
0.001764 574.17078 584.33099 567.0
0.001681 574.16028 584.51477 595.0
0.001779 574.14972 584.72473 562.0
0.001866 574.13916 584.96722 536.0
0.001799 574.12866 585.24261 556.0
0.001686 574.11810 585.54419 593.0
0.001776 574.10760 585.87982 563.0
0.001764 574.09705 586.24927 567.0
0.001709 574.08655 586.65485 585.0
0.001616 574.07599 587.09698 619.0
0.001789 574.06543 587.57782 559.0
0.001709 574.05493 588.09692 585.0
0.001701 574.04437 588.65656 588.0
0.001664 574.03387 589.25555 601.0
0.001805 574.02332 589.89648 554.0
0.001789 574.01282 590.57806 559.0
0.001742 574.00226 591.30255 574.0
0.001736 573.99170 592.06744 576.0
0.001686 573.98120 592.87439 593.0
0.001645 573.97064 593.72845 608.0
0.001745 573.96014 594.61615 573.0
0.001522 573.94958 595.54266 657.0
0.001656 573.93909 596.50977 604.0
0.001727 573.92853 597.51471 579.0
0.001727 573.91797 598.55042 579.0
0.001629 573.90747 599.61798 614.0
0.001751 573.89691 600.71539 571.0
0.001637 573.88641 601.83881 611.0
0.001783 573.87585 602.98615 561.0
0.001575 573.86536 604.15369 635.0
0.001776 573.85480 605.33679 563.0
0.001675 573.84424 606.53479 597.0
0.001650 573.83374 607.73981 606.0
0.001577 573.82318 608.94684 634.0
0.001603 573.81268 610.15332 624.0
0.001543 573.80212 611.35382 648.0
0.001661 573.79163 612.54395 602.0
0.001575 573.78107 613.72351 635.0
0.001585 573.77051 614.87836 631.0
0.001567 573.76001 616.00854 638.0
0.001595 573.74945 617.10956 627.0
0.001610 573.73895 618.17725 621.0
0.001603 573.72839 619.20685 624.0
0.001634 573.71790 620.19513 612.0
0.001631 573.70734 621.13806 613.0
0.001642 573.69678 622.03265 609.0
0.001504 573.68628 622.87616 665.0
0.001585 573.67572 623.66815 631.0
0.001597 573.66522 624.40228 626.0
0.001425 573.65466 625.07843 702.0
0.001631 573.64417 625.69794 613.0
0.001600 573.63361 626.25830 625.0
0.001595 573.62305 626.76031 627.0
0.001565 573.61255 627.20490 639.0
0.001597 573.60199 627.59668 626.0
0.001538 573.59149 627.93152 650.0
0.001543 573.58093 628.21558 648.0
0.001572 573.57043 628.45111 636.0
0.001477 573.55988 628.64203 677.0
0.001548 573.54932 628.79382 646.0
0.001656 573.53882 628.90869 604.0
0.001524 573.52826 628.99261 656.0
0.001595 573.51776 629.05084 627.0
0.001661 573.50720 629.08624 602.0
0.001634 573.49670 629.10449 612.0
0.001675 573.48615 629.11127 597.0
0.001567 573.47559 629.10980 638.0
0.001642 573.46509 629.10504 609.0
0.001504 573.45453 629.10217 665.0
0.001534 573.44403 629.10315 652.0
0.001637 573.43347 629.11377 611.0
0.001639 573.42297 629.13568 610.0
0.001613 573.41241 629.17230 620.0
0.001656 573.40186 629.22839 604.0
0.001664 573.39136 629.30493 601.0
0.001653 573.38080 629.40387 605.0
0.001582 573.37030 629.52826 632.0
0.001565 573.35974 629.67883 639.0
0.001592 573.34924 629.85773 628.0
0.001563 573.33868 630.06512 640.0
0.001555 573.32813 630.30225 643.0
0.001570 573.31763 630.56952 637.0
0.001608 573.30707 630.86731 622.0
0.001558 573.29657 631.19519 642.0
0.001541 573.28601 631.55273 649.0
0.001471 573.27551 631.94012 680.0
0.001541 573.26495 632.35571 649.0
0.001538 573.25439 632.76440 650.0
0.001631 573.24390 633.23523 613.0
0.001546 573.23334 633.73230 647.0
0.001595 573.22284 634.25305 627.0
0.001508 573.21228 634.79651 663.0
0.001686 573.20178 635.36005 593.0
0.001490 573.19122 635.94104 671.0
0.001567 573.18066 636.53693 638.0
0.001479 573.17017 637.14447 676.0
0.001626 573.15961 637.76154 615.0
0.001597 573.14911 638.38293 626.0
0.001466 573.13855 639.00592 682.0
0.001527 573.12805 639.62567 655.0
0.001536 573.11749 640.23798 651.0
0.001466 573.10693 640.83978 682.0
0.001439 573.09644 641.42639 695.0
0.001538 573.08588 641.99255 650.0
0.001486 573.07538 642.53613 673.0
0.001473 573.06482 643.05292 679.0
0.001437 573.05432 643.53937 696.0
0.001490 573.04376 643.99323 671.0
0.001456 573.03320 644.41132 687.0
0.001548 573.02271 644.79272 646.0
0.001484 573.01215 645.13416 674.0
0.001420 573.00165 645.43652 704.0
0.001520 572.99109 645.69818 658.0
0.001543 572.98059 645.91931 648.0
0.001404 572.97003 646.10046 712.0
0.001479 572.95947 646.24164 676.0
0.001499 572.94897 646.34467 667.0
0.001527 572.93842 646.40961 655.0
0.001513 572.92792 646.43909 661.0
0.001629 572.91736 646.43384 614.0
0.001529 572.90686 646.39587 654.0
0.001572 572.89630 646.32709 636.0
0.001513 572.88574 646.22876 661.0
0.001490 572.87524 646.10394 671.0
0.001575 572.86469 645.95349 635.0
0.001631 572.85419 645.77887 613.0
0.001520 572.84363 645.58221 658.0
0.001669 572.83313 645.36536 599.0
0.001585 572.82257 645.12885 631.0
0.001456 572.81201 644.87384 687.0
0.001447 572.80151 644.60083 691.0
0.001590 572.79095 644.31061 629.0
0.001515 572.78046 644.00513 660.0
0.001555 572.76990 643.68176 643.0
0.001560 572.75940 643.34314 641.0
0.001605 572.74884 642.98792 623.0
0.001493 572.73828 642.62366 670.0
0.001517 572.72778 642.23553 659.0
0.001621 572.71722 641.83209 617.0
0.001531 572.70673 641.41431 653.0
0.001477 572.69617 640.97815 677.0
0.001572 572.68567 640.52686 636.0
0.001445 572.67511 640.06104 692.0
0.001464 572.66455 639.58118 683.0
0.001490 572.65405 639.08807 671.0
0.001497 572.64349 638.58429 668.0
0.001447 572.63300 638.07080 691.0
0.001517 572.62244 637.55103 659.0
0.001490 572.61194 637.02374 671.0
0.001511 572.60138 636.49408 662.0
0.001605 572.59082 635.96460 623.0
0.001477 572.58032 635.43677 677.0
0.001605 572.56976 634.91718 623.0
0.001515 572.55927 634.40283 660.0
0.001477 572.54871 633.90576 677.0
0.001642 572.53821 633.41730 609.0
0.001567 572.52765 632.94507 638.0
0.001642 572.51709 632.49304 609.0
0.001529 572.50659 632.06238 654.0
0.001558 572.49603 631.65643 642.0
0.001667 572.48553 631.27643 600.0
0.001522 572.47498 630.92450 657.0
0.001577 572.46448 630.60291 634.0
0.001590 572.45392 630.31024 629.0
0.001529 572.44336 630.05029 654.0
0.001689 572.43286 629.82184 592.0
0.001555 572.42230 629.62543 643.0
0.001618 572.41180 629.46112 618.0
0.001538 572.40125 629.32928 650.0
0.001689 572.39075 629.23181 592.0
0.001520 572.38019 629.16260 658.0
0.001661 572.36963 629.12354 602.0
0.001529 572.35913 629.11438 654.0
0.001546 572.34857 629.13416 647.0
0.001477 572.33807 629.18402 677.0
0.001637 572.32751 629.25885 611.0
0.001550 572.31702 629.36029 645.0
0.001488 572.30646 629.48669 672.0
0.001645 572.29596 629.63812 608.0
0.001558 572.28540 629.81360 642.0
0.001541 572.27484 630.01227 649.0
0.001610 572.26434 630.23505 621.0
0.001572 572.25378 630.47943 636.0
0.001486 572.24329 630.74689 673.0
0.001580 572.23273 631.03540 633.0
0.001642 572.22223 631.34711 609.0
0.001616 572.21167 631.67883 619.0
0.001577 572.20111 632.03174 634.0
0.001560 572.19061 632.40790 641.0
0.001458 572.18005 632.80176 686.0
0.001538 572.16956 633.21515 650.0
0.001433 572.15900 633.64752 698.0
0.001718 572.14850 634.09906 582.0
0.001675 572.13794 634.56842 597.0
0.001637 572.12738 635.05896 611.0
0.001605 572.11688 635.56042 623.0
0.001543 572.10632 636.07825 648.0
0.001575 572.09583 636.60699 635.0
0.001538 572.08527 637.14661 650.0
0.001637 572.07477 637.69464 611.0
0.001631 572.06421 638.25189 613.0
0.001616 572.05365 638.81104 619.0
0.001490 572.04315 639.37134 671.0
0.001608 572.03259 639.93024 622.0
0.001555 572.02209 640.48920 643.0
0.001623 572.01154 641.03644 616.0
0.001499 572.00104 641.57349 667.0
0.001511 571.99048 642.09680 662.0
0.001531 571.97992 642.60364 653.0
0.001616 571.96942 643.09070 619.0
0.001642 571.95886 643.55505 609.0
0.001555 571.94836 643.99445 643.0
0.001433 571.93781 644.40460 698.0
0.001563 571.92725 644.78516 640.0
0.001558 571.91675 645.13281 642.0
0.001508 571.90619 645.44592 663.0
0.001508 571.86841 645.69385 663.0
0.001555 571.77124 645.84247 643.0
0.001592 571.67401 645.94971 628.0
0.001447 571.57672 646.01459 691.0
0.001477 571.47949 646.03278 677.0
0.001441 571.38232 646.00488 694.0
0.001504 571.28503 645.92944 665.0
0.001422 571.18781 645.80365 703.0
0.001479 571.09064 645.62897 676.0
0.001404 570.99341 645.40253 712.0
0.001389 570.89612 645.12720 720.0
0.001692 570.79889 644.79944 591.0
0.001462 570.70172 644.42041 684.0
0.001488 570.60449 643.99164 672.0
0.001493 570.50720 643.51416 670.0
0.001481 570.41003 642.98871 675.0
0.001506 570.31281 642.41907 664.0
0.001653 570.21552 641.80560 605.0
0.001511 570.11829 641.15350 662.0
0.001623 570.02112 640.46204 616.0
0.001529 569.92389 639.73688 654.0
0.001585 569.82660 638.98090 631.0
0.001504 569.72937 638.19763 665.0
0.001575 569.63220 637.39081 635.0
0.001664 569.53497 636.56415 601.0
0.001600 569.43768 635.72064 625.0
0.001511 569.34052 634.86395 662.0
0.001550 569.24329 633.99915 645.0
0.001585 569.14600 633.12689 631.0
0.001733 569.04877 632.25330 577.0
0.001642 568.95160 631.37964 609.0
0.001493 568.85437 630.51031 670.0
0.001597 568.75708 629.64496 626.0
0.001621 568.65991 628.78882 617.0
0.001543 568.56268 627.94269 648.0
0.001548 568.46545 627.10876 646.0
0.001513 568.36816 626.28833 661.0
0.001647 568.27100 625.48364 607.0
0.001458 568.17377 624.69366 686.0
0.001575 568.07648 623.92065 635.0
0.001577 567.97931 623.16498 634.0
0.001678 567.88208 622.42694 596.0
0.001560 567.78485 621.70605 641.0
0.001484 567.68756 621.00336 674.0
0.001592 567.59039 620.31866 628.0
0.001645 567.49316 619.65179 608.0
0.001597 567.39594 619.00183 626.0
0.001689 567.29865 618.36938 592.0
0.001603 567.20148 617.76038 624.0
0.001590 567.10425 617.16150 629.0
0.001692 567.00696 616.58478 591.0
0.001597 566.90979 616.01721 626.0
0.001603 566.81256 615.46429 624.0
0.001543 566.71533 614.92603 648.0
0.001605 566.61804 614.40021 623.0
0.001600 566.52087 613.88660 625.0
0.001715 566.42365 613.38525 583.0
0.001623 566.32642 612.89288 616.0
0.001563 566.22919 612.41022 640.0
0.001629 566.13196 611.93585 614.0
0.001608 566.03473 611.46716 622.0
0.001534 565.93744 611.00446 652.0
0.001653 565.84027 610.54590 605.0
0.001730 565.74304 610.09015 578.0
0.001634 565.64581 609.63593 612.0
0.001642 565.54865 609.18311 609.0
0.001664 565.45135 608.72919 601.0
0.001818 565.35413 608.27496 550.0
0.001531 565.25690 607.81921 653.0
0.001608 565.15967 607.36133 622.0
0.001692 565.06244 606.90076 591.0
0.001595 564.96521 606.43793 627.0
0.001613 564.86798 605.97247 620.0
0.001675 564.77075 605.50464 597.0
0.001698 564.67352 605.03491 589.0
0.001678 564.57629 604.56378 596.0
0.001597 564.47913 604.09149 626.0
0.001684 564.38184 603.61945 594.0
0.001645 564.28461 603.14758 608.0
0.001779 564.18738 602.67804 562.0
0.001748 564.09021 602.21118 572.0
0.001631 563.99292 601.74774 613.0
0.001779 563.89569 601.29114 562.0
0.001730 563.79852 600.84186 578.0
0.001658 563.70123 600.39575 603.0
0.001706 563.60400 599.96124 586.0
0.001821 563.50677 599.53052 549.0
0.001786 563.40961 599.11011 560.0
0.001634 563.31232 598.69794 612.0
0.001818 563.21509 598.29669 550.0
0.001742 563.11792 597.90405 574.0
0.001736 563.02069 597.52112 576.0
0.001572 562.92340 597.14746 636.0
0.001802 562.82617 596.78357 555.0
0.001786 562.72900 596.42938 560.0
0.001724 562.63171 596.08289 580.0
0.001715 562.53448 595.74463 583.0
0.001712 562.43726 595.41321 584.0
0.001639 562.34009 595.08978 610.0
0.001709 562.24280 594.77277 585.0
0.001572 562.14557 594.46045 636.0
0.001658 562.04840 594.15381 603.0
0.001733 561.95117 593.85187 577.0
0.001848 561.85388 593.55402 541.0
0.001767 561.75665 593.25952 566.0
0.001664 561.65948 592.96857 601.0
0.001727 561.56219 592.68060 579.0
0.001887 561.46497 592.39441 530.0
0.001626 561.36780 592.11157 615.0
0.001742 561.27057 591.83020 574.0
0.001835 561.17328 591.55182 545.0
0.001592 561.07605 591.27582 628.0
0.001802 560.97888 591.00311 555.0
0.001770 560.88165 590.73865 565.0
0.001757 560.78436 590.47168 569.0
0.001718 560.68719 590.20978 582.0
0.001842 560.58997 589.95056 543.0
0.001852 560.49268 589.69617 540.0
0.001739 560.39545 589.45105 575.0
0.001686 560.29828 589.20813 593.0
0.001767 560.20105 588.97070 566.0
0.001748 560.10376 588.74182 572.0
0.001721 560.00653 588.51959 581.0
0.001736 559.90936 588.29431 576.0
0.001721 559.81213 588.08929 581.0
0.001855 559.71484 587.89307 539.0
0.001715 559.61768 587.70679 583.0
0.001783 559.52045 587.52930 561.0
0.001783 559.42316 587.36249 561.0
0.001776 559.32593 587.20581 563.0
0.001783 559.22876 587.05969 561.0
0.001739 559.13153 586.92371 575.0
0.001639 559.03424 586.79742 610.0
0.001613 558.93707 586.68207 620.0
0.001730 558.83984 586.57538 578.0
0.001590 558.74261 586.47809 629.0
0.001795 558.64532 586.38934 557.0
0.001650 558.54816 586.30914 606.0
0.001855 558.45093 586.24152 539.0
0.001808 558.35364 586.17529 553.0
0.001795 558.25647 586.11566 557.0
0.001815 558.15924 586.06128 551.0
0.001736 558.06201 586.01196 576.0
0.001815 557.96472 585.96698 551.0
0.001764 557.86755 585.92676 567.0
0.001799 557.77032 585.88818 556.0
0.001669 557.67310 585.85565 599.0
0.001821 557.57581 585.82251 549.0
0.001901 557.47864 585.79102 526.0
0.001695 557.38141 585.76099 590.0
0.001795 557.28418 585.73218 557.0
0.001767 557.18695 585.68335 566.0
0.001718 557.08972 585.65680 582.0
0.001919 556.99249 585.63062 521.0
0.001709 556.89520 585.60425 585.0
0.001664 556.79803 585.57764 601.0
0.001692 556.70081 585.55170 591.0
0.001742 556.60358 585.52490 574.0
0.001712 556.50641 585.49792 584.0
0.001701 556.40912 585.46936 588.0
0.001792 556.31189 585.43945 558.0
0.001876 556.21466 585.40796 533.0
0.001792 556.11743 585.37476 558.0
0.001742 556.02020 585.33881 574.0
0.001739 555.92297 585.29950 575.0
0.001658 555.82581 585.25726 603.0
0.001742 555.72852 585.21082 574.0
0.001859 555.63129 585.16022 538.0
0.001605 555.53406 585.10645 623.0
0.001770 555.43689 585.04498 565.0
0.001745 555.33960 584.97760 573.0
0.001786 555.24237 584.90344 560.0
0.001855 555.14514 584.82263 539.0
0.001802 555.04791 584.73663 555.0
0.001761 554.95068 584.63947 568.0
0.001661 554.85345 584.53430 602.0
0.001818 554.75629 584.42133 550.0
0.001825 554.65900 584.29938 548.0
0.001805 554.56177 584.16870 554.0
0.001869 554.46454 584.02930 535.0
0.001799 554.36737 583.88129 556.0
0.001883 554.27008 583.72614 531.0
0.001761 554.17285 583.56244 568.0
0.001669 554.07568 583.39209 599.0
0.001764 553.97839 583.21509 567.0
0.001692 553.88116 583.03235 591.0
0.001721 553.78394 582.84412 581.0
0.001783 553.68677 582.65161 561.0
0.001706 553.58948 582.45612 586.0
0.001905 553.49225 582.25732 525.0
0.001852 553.39508 582.05634 540.0
0.001672 553.29785 581.85425 598.0
0.001812 553.20056 581.64990 552.0
0.001695 553.10333 581.45447 590.0
0.001828 553.00616 581.25055 547.0
0.001805 552.90887 581.04639 554.0
0.001704 552.81165 580.84259 587.0
0.001592 552.71442 580.63959 628.0
0.001647 552.61725 580.43744 607.0
0.001629 552.51996 580.23529 614.0
0.001825 552.42273 580.03290 548.0
0.001727 552.32556 579.83142 579.0
0.001653 552.22833 579.63019 605.0
0.001689 552.13104 579.42737 592.0
0.001712 552.03381 579.22327 584.0
0.001761 551.93665 579.02283 568.0
0.001701 551.83936 578.81488 588.0
0.001603 551.74213 578.60510 624.0
0.001522 551.64496 578.39148 657.0
0.001672 551.54773 578.17419 598.0
0.001709 551.45044 577.95313 585.0
0.001764 551.35321 577.72815 567.0
0.001658 551.25604 577.49854 603.0
0.001869 551.15881 577.26465 535.0
0.001661 551.06152 577.02710 602.0
0.001645 550.96436 576.78595 608.0
0.001692 550.86713 576.54102 591.0
0.001721 550.76984 576.29395 581.0
0.001637 550.67261 576.04535 611.0
0.001779 550.57544 575.79633 562.0
0.001736 550.47821 575.54773 576.0
0.001859 550.38092 575.30139 538.0
0.001748 550.28369 575.05835 572.0
0.001859 550.18652 574.82037 538.0
0.001603 550.08929 574.58820 624.0
0.001776 549.99200 574.36505 563.0
0.001686 549.89484 574.15112 593.0
0.001931 549.79761 573.94897 518.0
0.001757 549.70038 573.75946 569.0
0.001629 549.60309 573.58856 614.0
0.001805 549.50592 573.42932 554.0
0.001695 549.40869 573.28693 590.0
0.001675 549.31140 573.16333 597.0
0.001721 549.21423 573.05859 581.0
0.001770 549.11700 572.97552 565.0
0.001692 549.01978 572.91382 591.0
0.001786 548.92249 572.87335 560.0
0.001855 548.82532 572.85718 539.0
0.001684 548.72809 572.86420 594.0
0.001792 548.63086 572.89453 558.0
0.001709 548.53363 572.95233 585.0
0.001848 548.43640 573.03253 541.0
0.001792 548.33917 573.14032 558.0
0.001818 548.24188 573.27344 550.0
0.001721 548.14471 573.42792 581.0
0.001842 548.04749 573.60547 543.0
0.001880 547.95026 573.80780 532.0
0.001835 547.85297 574.03241 545.0
0.001727 547.75580 574.28131 579.0
0.001667 547.65857 574.55072 600.0
0.001908 547.56134 574.84131 524.0
0.001802 547.46411 575.15186 555.0
0.001695 547.36688 575.48169 590.0
0.001742 547.26965 575.82928 574.0
0.001742 547.17236 576.19348 574.0
0.001616 547.07520 576.57214 619.0
0.001783 546.97797 576.90405 561.0
0.001553 546.88074 577.30786 644.0
0.001642 546.78357 577.72211 609.0
0.001783 546.68628 578.14838 561.0
0.001681 546.58905 578.57562 595.0
0.001672 546.49182 579.00610 598.0
0.001748 546.39459 579.43707 572.0
0.001825 546.29736 579.86774 548.0
0.001789 546.20013 580.29254 559.0
0.001698 546.10297 580.71173 589.0
0.001757 546.00568 581.12061 569.0
0.001656 545.90845 581.51770 604.0
0.001658 545.81122 581.90027 603.0
0.001779 545.71405 582.26624 562.0
0.001709 545.61676 582.61285 585.0
0.001818 545.51953 582.95142 550.0
0.001686 545.42230 583.25354 593.0
0.001767 545.32507 583.53235 566.0
0.001727 545.22784 583.78540 579.0
0.001745 545.13062 584.01105 573.0
0.001616 545.03345 584.21033 619.0
0.001616 544.93616 584.38336 619.0
0.001642 544.83893 584.52753 609.0
0.001667 544.74170 584.64410 600.0
0.001563 544.64453 584.73462 640.0
0.001706 544.54724 584.80066 586.0
0.001812 544.45001 584.84161 552.0
0.001698 544.39056 584.89618 589.0
0.001647 544.37109 584.96936 607.0
0.001730 544.35162 585.02148 578.0
0.001795 544.33215 585.05505 557.0
0.001773 544.31268 585.07141 564.0
0.001626 544.29321 585.07172 615.0
0.001626 544.27374 585.05890 615.0
0.001718 544.25427 585.03223 582.0
0.001880 544.23474 584.99536 532.0
0.001739 544.21527 584.94800 575.0
0.001730 544.19580 584.89465 578.0
0.001721 544.17633 584.83124 581.0
0.001631 544.15686 584.76141 613.0
0.001730 544.13739 584.68500 578.0
0.001712 544.11792 584.60352 584.0
0.001748 544.09845 584.51727 572.0
0.001629 544.07898 584.42633 614.0
0.001718 544.05951 584.33264 582.0
0.001634 544.04004 584.23334 612.0
0.001642 544.02057 584.13062 609.0
0.001675 544.00110 584.02338 597.0
0.001631 543.98157 583.91223 613.0
0.001664 543.96210 583.79669 601.0
0.001764 543.94263 583.68243 567.0
0.001623 543.92316 583.55750 616.0
0.001621 543.90369 583.42780 617.0
0.001664 543.88422 583.29340 601.0
0.001838 543.86475 583.15295 544.0
0.001709 543.84528 583.00769 585.0
0.001730 543.82581 582.85693 578.0
0.001779 543.80634 582.69989 562.0
0.001647 543.78687 582.53796 607.0
0.001653 543.76740 582.37292 605.0
0.001672 543.74792 582.19812 598.0
0.001650 543.72845 582.01782 606.0
0.001553 543.70892 581.83105 644.0
0.001704 543.68945 581.63837 587.0
0.001658 543.66998 581.43964 603.0
0.001761 543.65051 581.23529 568.0
0.001692 543.63104 581.02448 591.0
0.001736 543.61157 580.80823 576.0
0.001642 543.59210 580.58679 609.0
0.001835 543.57263 580.35901 545.0
0.001805 543.55316 580.12573 554.0
0.001623 543.53369 579.88837 616.0
0.001582 543.51422 579.64557 632.0
0.001751 543.49475 579.39850 571.0
0.001669 543.47528 579.14618 599.0
0.001701 543.45581 578.88916 588.0
0.001709 543.43628 578.62787 585.0
0.001658 543.41681 578.36188 603.0
0.001672 543.39734 578.09314 598.0
0.001704 543.37787 577.81842 587.0
0.001727 543.35840 577.53949 579.0
0.001664 543.33893 577.25592 601.0
0.001724 543.31946 576.96759 580.0
0.001745 543.29999 576.67413 573.0
0.001751 543.28052 576.37177 571.0
0.001603 543.26105 576.06940 624.0
0.001669 543.24158 575.76013 599.0
0.001724 543.22211 575.44495 580.0
0.001610 543.20264 575.12299 621.0
0.001718 543.18317 574.79504 582.0
0.001637 543.16364 574.46063 611.0
0.001669 543.14417 574.11890 599.0
0.001592 543.12469 573.77118 628.0
0.001560 543.10522 573.41620 641.0
0.001838 543.08575 573.05505 544.0
0.001704 543.06628 572.68738 587.0
0.001709 543.04681 572.31329 585.0
0.001757 543.02734 571.93567 569.0
0.001745 543.00787 571.55072 573.0
0.001692 542.98840 571.16058 591.0
0.001623 542.96893 570.76672 616.0
0.001779 542.94946 570.36859 562.0
0.001786 542.92999 569.96735 560.0
0.001779 542.91052 569.56512 562.0
0.001773 542.89099 569.15997 564.0
0.001745 542.87152 568.76587 573.0
0.001792 542.85205 568.36023 558.0
0.001698 542.83258 567.95441 589.0
0.001692 542.81311 567.54938 591.0
0.001859 542.79364 567.14886 538.0
0.001603 542.77417 566.74799 624.0
0.001792 542.75470 566.35034 558.0
0.001757 542.73523 565.95636 569.0
0.001818 542.71576 565.55011 550.0
0.001721 542.69629 565.16425 581.0
0.001658 542.67682 564.78137 603.0
0.001721 542.65729 564.40613 581.0
0.001805 542.63782 564.04041 554.0
0.001838 542.61835 563.67657 544.0
0.001724 542.59888 563.31927 580.0
0.001715 542.57941 562.96906 583.0
0.001712 542.55994 562.62714 584.0
0.001709 542.54047 562.29138 585.0
0.001745 542.52100 561.96338 573.0
0.001783 542.50153 561.64258 561.0
0.001692 542.48206 561.32959 591.0
0.001832 542.46259 561.02502 546.0
0.001838 542.44312 560.72974 544.0
0.001754 542.42365 560.44385 570.0
0.001838 542.40417 560.16638 544.0
0.001715 542.38464 559.89880 583.0
0.001852 542.36517 559.64124 540.0
0.001894 542.34570 559.39459 528.0
0.001672 542.32623 559.15875 598.0
0.001618 542.30676 558.93475 618.0
0.001842 542.28729 558.72235 543.0
0.001667 542.26782 558.52295 600.0
0.001745 542.24835 558.33563 573.0
0.001678 542.22888 558.16162 596.0
0.001742 542.20941 558.00140 574.0
0.001821 542.18994 557.85455 549.0
0.001795 542.17047 557.72113 557.0
0.001838 542.15100 557.60260 544.0
0.001712 542.13153 557.49750 584.0
0.001825 542.11200 557.40808 548.0
0.001828 542.09253 557.33936 547.0
0.001949 542.07306 557.27850 513.0
0.001692 542.05359 557.23138 591.0
0.001898 542.03412 557.19891 527.0
0.001776 542.01465 557.17926 563.0
0.001739 541.99518 557.17438 575.0
0.001859 541.97571 557.18182 538.0
0.001805 541.95624 557.20233 554.0
0.001898 541.93677 557.23389 527.0
0.001661 541.91730 557.27924 602.0
0.001757 541.89783 557.33392 569.0
0.001698 541.87836 557.39825 589.0
0.001805 541.85889 557.47266 554.0
0.001825 541.83936 557.55396 548.0
0.001842 541.81989 557.64325 543.0
0.001812 541.80042 557.73883 552.0
0.001754 541.78094 557.84021 570.0
0.001698 541.76147 557.94568 589.0
0.001739 541.74200 558.05469 575.0
0.001664 541.72253 558.16632 601.0
0.001745 541.70306 558.28052 573.0
0.001832 541.68359 558.39563 546.0
0.001721 541.66412 558.51117 581.0
0.001678 541.64465 558.62628 596.0
0.001767 541.62518 558.74011 566.0
0.001672 541.60571 558.85675 598.0
0.001709 541.58624 558.96704 585.0
0.001626 541.56671 559.07446 615.0
0.001721 541.54724 559.17963 581.0
0.001799 541.52777 559.28198 556.0
0.001805 541.50830 559.38196 554.0
0.001704 541.48883 559.47839 587.0
0.001845 541.46936 559.57239 542.0
0.001799 541.44989 559.66357 556.0
0.001770 541.43042 559.75250 565.0
0.001852 541.41095 559.84369 540.0
0.001812 541.39148 559.92944 552.0
0.001815 541.37201 560.01495 551.0
0.001855 541.35254 560.09961 539.0
0.001869 541.33307 560.18365 535.0
0.001927 541.31360 560.26886 519.0
0.001672 541.29407 560.35468 598.0
0.001672 541.27460 560.44183 598.0
0.001733 541.25513 560.53094 577.0
0.001672 541.23566 560.62292 598.0
0.001773 541.21619 560.71796 564.0
0.001845 541.19672 560.81543 542.0
0.001828 541.17725 560.91681 547.0
0.001709 541.15778 561.02222 585.0
0.001789 541.13831 561.13196 559.0
0.001799 541.11884 561.24567 556.0
0.001742 541.09937 561.36353 574.0
0.001825 541.07990 561.48773 548.0
0.001805 541.06036 561.61566 554.0
0.001815 541.04095 561.75061 551.0
0.001818 541.02142 561.88965 550.0
0.001908 541.00195 562.03351 524.0
0.001689 540.98248 562.18359 592.0
0.001597 540.96301 562.33942 626.0
0.001835 540.94354 562.50153 545.0
0.001629 540.92407 562.66980 614.0
0.001667 540.90460 562.84760 600.0
0.001770 540.88513 563.03009 565.0
0.001742 540.86566 563.22076 574.0
0.001880 540.84619 563.41937 532.0
0.001706 540.82672 563.62646 586.0
0.001887 540.80725 563.84332 530.0
0.001832 540.78772 564.06958 546.0
0.001745 540.76831 564.30688 573.0
0.001845 540.74878 564.55542 542.0
0.001883 540.72931 564.81665 531.0
0.001686 540.70984 565.09375 593.0
0.001866 540.69037 565.37958 536.0
0.001883 540.67090 565.67841 531.0
0.001838 540.65143 565.99176 544.0
0.001898 540.63196 566.31946 527.0
0.001880 540.61249 566.66205 532.0
0.001876 540.59302 567.02045 533.0
0.001736 540.57355 567.39392 576.0
0.001835 540.55408 567.78436 545.0
0.001639 540.53461 568.19055 610.0
0.001667 540.51508 568.61292 600.0
0.001799 540.49567 569.05304 556.0
0.001818 540.47614 569.50940 550.0
0.001745 540.45667 569.98248 573.0
0.001745 540.43719 570.47137 573.0
0.001704 540.41772 570.97632 587.0
0.001727 540.39825 571.49689 579.0
0.001767 540.37878 572.03326 566.0
0.001764 540.35931 572.58453 567.0
0.001695 540.33984 573.14954 590.0
0.001739 540.32037 573.72852 575.0
0.001779 540.30090 574.32013 562.0
0.001799 540.28143 574.92297 556.0
0.001727 540.26196 575.53735 579.0
0.001770 540.24243 576.16235 565.0
0.001739 540.22296 576.79645 575.0
0.001751 540.20349 577.44006 571.0
0.001686 540.18402 578.08923 593.0
0.001647 540.16455 578.74323 607.0
0.001605 540.14508 579.40369 623.0
0.001802 540.12561 580.06641 555.0
0.001621 540.10614 580.73071 617.0
0.001761 540.08667 581.39667 568.0
0.001675 540.06720 582.06079 597.0
0.001727 540.04773 582.72363 579.0
0.001754 540.02826 583.38080 570.0
0.001748 540.00879 584.03308 572.0
0.001621 539.98932 584.67810 617.0
0.001565 539.96979 585.31354 639.0
0.001626 539.95032 585.93854 615.0
0.001795 539.93085 586.55139 557.0
0.001835 539.91138 587.15277 545.0
0.001695 539.89191 587.73669 590.0
0.001783 539.87244 588.30225 561.0
0.001715 539.85297 588.85016 583.0
0.001603 539.83350 589.37701 624.0
0.001623 539.81403 589.88342 616.0
0.001610 539.79456 590.36780 621.0
0.001656 539.77509 590.82794 604.0
0.001761 539.75562 591.26422 568.0
0.001527 539.73608 591.67523 655.0
0.001742 539.71667 592.06085 574.0
0.001835 539.69714 592.42059 545.0
0.001818 539.67767 592.75403 550.0
0.001692 539.65820 593.06213 591.0
0.001590 539.63873 593.34473 629.0
0.001608 539.61926 593.60150 622.0
0.001546 539.59979 593.83459 647.0
0.001656 539.58032 594.04443 604.0
0.001621 539.56085 594.23145 617.0
0.001623 539.54138 594.39832 616.0
0.001706 539.52191 594.54590 586.0
0.001520 539.50244 594.67358 658.0
0.001595 539.48297 594.78497 627.0
0.001631 539.46344 594.88171 613.0
0.001748 539.44403 594.96692 572.0
0.001534 539.42450 595.03839 652.0
0.001667 539.40503 595.09943 600.0
0.001727 539.38556 595.15222 579.0
0.001658 539.36609 595.19781 603.0
0.001631 539.34662 595.23676 613.0
0.001661 539.32715 595.27185 602.0
0.001678 539.30768 595.30292 596.0
0.001757 539.28821 595.33148 569.0
0.001767 539.26874 595.35889 566.0
0.001751 539.24927 595.38446 571.0
0.001667 539.22980 595.41040 600.0
0.001692 539.21033 595.43616 591.0
0.001709 539.19080 595.46179 585.0
0.001684 539.17139 595.48694 594.0
0.001634 539.15186 595.51270 612.0
0.001645 539.13239 595.53668 608.0
0.001603 539.11292 595.55872 624.0
0.001642 539.09344 595.57764 609.0
0.001610 539.07397 595.59351 621.0
0.001558 539.05450 595.60516 642.0
0.001639 539.03503 595.61115 610.0
0.001692 539.01556 595.61005 591.0
0.001572 538.99609 595.60156 636.0
0.001689 538.97662 595.58368 592.0
0.001678 538.95715 595.55609 596.0
0.001789 538.93768 595.51733 559.0
0.001550 538.91815 595.46631 645.0
0.001626 538.89874 595.40179 615.0
0.001661 538.83435 595.27936 602.0
0.001634 538.74664 595.11890 612.0
0.001706 538.65887 594.94427 586.0
0.001560 538.57117 594.75562 641.0
0.001570 538.48340 594.55151 637.0
0.001695 538.39563 594.33405 590.0
0.001698 538.30786 594.10352 589.0
0.001508 538.22015 593.85962 663.0
0.001524 538.13239 593.60461 656.0
0.001686 538.04462 593.33838 593.0
0.001618 537.95691 593.06329 618.0
0.001773 537.86920 592.78009 564.0
0.001748 537.78143 592.49036 572.0
0.001786 537.69366 592.19507 560.0
0.001623 537.60596 591.89777 616.0
0.001712 537.51819 591.59802 584.0
0.001770 537.43042 591.29852 565.0
0.001534 537.34271 591.00098 652.0
0.001795 537.25494 590.70667 557.0
0.001805 537.16718 590.41644 554.0
0.001629 537.07941 590.13214 614.0
0.001555 536.99170 589.85553 643.0
0.001718 536.90399 589.58923 582.0
0.001681 536.81622 589.32782 595.0
0.001595 536.72852 589.07520 627.0
0.001727 536.64075 588.83240 579.0
0.001621 536.55298 588.59845 617.0
0.001825 536.46521 588.37177 548.0
0.001745 536.37750 588.15302 573.0
0.001689 536.28973 587.94147 592.0
0.001754 536.20197 587.73657 570.0
0.001684 536.11420 587.53595 594.0
0.001730 536.02649 587.34009 578.0
0.001692 535.93878 587.14587 591.0
0.001650 535.85101 586.95245 606.0
0.001757 535.76331 586.75702 569.0
0.001667 535.67554 586.55969 600.0
0.001656 535.58777 586.35583 604.0
0.001779 535.50000 586.14624 562.0
0.001832 535.41229 585.92810 546.0
0.001698 535.32452 585.69934 589.0
0.001645 535.23676 585.45825 608.0
0.001631 535.14905 585.20380 613.0
0.001639 535.06128 584.93469 610.0
0.001761 534.97357 584.64972 568.0
0.001701 534.88580 584.34631 588.0
0.001773 534.79810 584.02594 564.0
0.001585 534.71033 583.68726 631.0
0.001563 534.62256 583.32983 640.0
0.001724 534.53485 582.95343 580.0
0.001742 534.44708 582.55890 574.0
0.001739 534.35931 582.14636 575.0
0.001647 534.27155 581.71667 607.0
0.001709 534.18384 581.26996 585.0
0.001686 534.09613 580.80750 593.0
0.001672 534.00836 580.33081 598.0
0.001808 533.92059 579.84003 553.0
0.001802 533.83289 579.33685 555.0
0.001773 533.74512 578.82263 564.0
0.001669 533.65735 578.30035 599.0
0.001845 533.56964 577.76752 542.0
0.001779 533.48187 577.23004 562.0
0.001718 533.39410 576.68500 582.0
0.001748 533.30634 576.13495 572.0
0.001686 533.21863 575.58246 593.0
0.001887 533.13092 575.02728 530.0
0.001799 533.04315 574.47113 556.0
0.001736 532.95544 573.91602 576.0
0.001859 532.86768 573.36151 538.0
0.001669 532.77991 572.81177 599.0
0.001808 532.69214 572.26331 553.0
0.001938 532.60443 571.71820 516.0
0.001789 532.51666 571.17914 559.0
0.001821 532.42889 570.64532 549.0
0.001852 532.34119 570.11688 540.0
0.001916 532.25342 569.59399 522.0
0.001783 532.16571 569.07751 561.0
0.002008 532.07794 568.56641 498.0
0.001969 531.99023 568.06299 508.0
0.001815 531.90247 567.56580 551.0
0.001832 531.81470 567.07520 546.0
0.001876 531.72693 566.59119 533.0
0.001996 531.63922 566.11322 501.0
0.001821 531.55145 565.64203 549.0
0.001730 531.46368 565.17706 578.0
0.002070 531.37598 564.71753 483.0
0.001757 531.28821 564.26434 569.0
0.001802 531.20050 563.81714 555.0
0.001815 531.11273 563.37567 551.0
0.001767 531.02502 562.94025 566.0
0.001848 530.93726 562.51044 541.0
0.001789 530.84949 562.08569 559.0
0.001709 530.76178 561.66632 585.0
0.001776 530.67401 561.25214 563.0
0.001880 530.58624 560.84424 532.0
0.001923 530.49847 560.45056 520.0
0.001818 530.41077 560.05347 550.0
0.001880 530.32306 559.66156 532.0
0.001792 530.23529 559.27600 558.0
0.001742 530.14758 558.89594 574.0
0.001686 530.05981 558.52258 593.0
0.001757 529.97205 558.15588 569.0
0.001733 529.88428 557.79480 577.0
0.001812 529.79657 557.44141 552.0
0.001838 529.70880 557.09418 544.0
0.001764 529.62103 556.75397 567.0
0.001946 529.53326 556.42206 514.0
0.001678 529.44556 556.09747 596.0
0.001786 529.35785 555.78253 560.0
0.001672 529.27008 555.47461 598.0
0.001718 529.18237 555.17535 582.0
0.001712 529.09460 554.88330 584.0
0.001808 529.00684 554.60071 553.0
0.001869 528.91907 554.32751 535.0
0.001698 528.83136 554.06189 589.0
0.001869 528.74359 553.80457 535.0
0.001799 528.65582 553.55682 556.0
0.001988 528.56812 553.31720 503.0
0.001852 528.48035 553.08569 540.0
0.001898 528.39264 552.86243 527.0
0.001739 528.30487 552.64667 575.0
0.001869 528.21716 552.43884 535.0
0.001757 528.12939 552.23865 569.0
0.001828 528.04163 552.04584 547.0
0.001887 527.95392 551.86188 530.0
0.001815 527.86615 551.68274 551.0
0.001792 527.77838 551.51062 558.0
0.001812 527.69061 551.34473 552.0
0.001934 527.60291 551.18420 517.0
0.001916 527.51514 551.03088 522.0
0.001818 527.42743 550.88550 550.0
0.001789 527.33966 550.74255 559.0
0.001789 527.25195 550.60449 559.0
0.001842 527.16418 550.47174 543.0
0.001855 527.07642 550.34833 539.0
0.001835 526.98871 550.22400 545.0
0.001880 526.90094 550.10419 532.0
0.001880 526.81317 549.98828 532.0
0.001838 526.72540 549.87628 544.0
0.001873 526.63770 549.76697 534.0
0.001859 526.54993 549.66077 538.0
0.001894 526.46222 549.55768 528.0
0.001862 526.37451 549.45746 537.0
0.001805 526.28674 549.35938 554.0
0.001842 526.19897 549.26306 543.0
0.001961 526.11121 549.16986 510.0
0.001821 526.02350 549.07776 549.0
0.001802 525.93573 548.98779 555.0
0.001898 525.84796 548.90021 527.0
0.001789 525.76025 548.81384 559.0
0.001802 525.67249 548.72955 555.0
0.001783 525.58478 548.64545 561.0
0.001883 525.49701 548.56476 531.0
0.001681 525.40930 548.48584 595.0
0.001883 525.32153 548.40851 531.0
0.001761 525.23376 548.33380 568.0
0.001701 525.14600 548.26166 588.0
0.001825 525.05829 548.19257 548.0
0.001916 524.97052 548.12585 522.0
0.001828 524.88275 548.06250 547.0
0.001802 524.79504 548.00348 555.0
0.001876 524.70728 547.94885 533.0
0.001825 524.61957 547.89862 548.0
0.001835 524.53180 547.85333 545.0
0.001887 524.44409 547.81238 530.0
0.001739 524.35632 547.77673 575.0
0.001792 524.26855 547.74738 558.0
0.001931 524.18085 547.72443 518.0
0.001887 524.09308 547.70789 530.0
0.001739 524.00531 547.69910 575.0
0.001866 523.91754 547.69598 536.0
0.001942 523.82983 547.69910 515.0
0.001812 523.74207 547.71008 552.0
0.001905 523.65436 547.72833 525.0
0.001848 523.56665 547.75336 541.0
0.001869 523.47888 547.78510 535.0
0.001802 523.39111 547.82397 555.0
0.001876 523.30334 547.86963 533.0
0.001949 523.21564 547.92200 513.0
0.001946 523.12787 547.98090 514.0
0.001808 523.04010 548.04523 553.0
0.001764 522.95233 548.11603 567.0
0.001848 522.86462 548.19135 541.0
0.001996 522.77686 548.27203 501.0
0.001931 522.68915 548.35754 518.0
0.001916 522.60144 548.44653 522.0
0.001912 522.51367 548.53986 523.0
0.001783 522.42590 548.63611 561.0
0.001852 522.33813 548.73553 540.0
0.001855 522.25043 548.83667 539.0
0.001838 522.16266 548.93951 544.0
0.001890 522.07489 549.04480 529.0
0.001876 521.98718 549.14905 533.0
0.001704 521.89941 549.25330 587.0
0.001832 521.81171 549.35626 546.0
0.001876 521.72394 549.45691 533.0
0.001835 521.63623 549.55505 545.0
0.001890 521.54846 549.65057 529.0
0.001742 521.46069 549.74182 574.0
0.001757 521.37299 549.82751 569.0
0.001754 521.28522 549.90826 570.0
0.001942 521.19745 549.98206 515.0
0.001984 521.10968 550.04956 504.0
0.001825 521.02197 550.10950 548.0
0.001818 520.93420 550.16180 550.0
0.001838 520.84650 550.20496 544.0
0.001776 520.75873 550.23932 563.0
0.001876 520.67102 550.26440 533.0
0.001953 520.58325 550.27979 512.0
0.001783 520.49548 550.28406 561.0
0.001704 520.40778 550.28033 587.0
0.001754 520.32001 550.26935 570.0
0.001808 520.23224 550.24658 553.0
0.001862 520.14447 550.21350 537.0
0.001859 520.05676 550.17163 538.0
0.001739 519.96899 550.11975 575.0
0.001828 519.88129 550.05896 547.0
0.001912 519.79358 549.98956 523.0
0.001664 519.70581 549.91125 601.0
0.001848 519.61804 549.82446 541.0
0.001855 519.53027 549.73004 539.0
0.001828 519.44257 549.62787 547.0
0.001789 519.35480 549.51801 559.0
0.001776 519.26703 549.40051 563.0
0.001869 519.17932 549.27625 535.0
0.001859 519.09155 549.15100 538.0
0.001832 519.00378 549.01251 546.0
0.001754 518.91608 548.86829 570.0
0.001818 518.82837 548.71625 550.0
0.001901 518.74060 548.55975 526.0
0.001869 518.65283 548.39496 535.0
0.001942 518.56506 548.22327 515.0
0.001869 518.47736 548.04590 535.0
0.001661 518.38959 547.86090 602.0
0.001761 518.30182 547.66925 568.0
0.001916 518.21411 547.47003 522.0
0.001859 518.12634 547.26416 538.0
0.001799 518.03857 547.05017 556.0
0.001799 517.95087 546.82928 556.0
0.001832 517.86316 546.60278 546.0
0.001873 517.77539 546.33917 534.0
0.001812 517.68762 546.09509 552.0
0.001946 517.59991 545.84564 514.0
0.001792 517.51215 545.58881 558.0
0.001786 517.42438 545.32538 560.0
0.001898 517.33661 545.05554 527.0
0.001859 517.24890 544.77893 538.0
0.001783 517.16113 544.49829 561.0
0.001838 517.07343 544.21155 544.0
0.001818 516.98572 543.91693 550.0
0.001880 516.89795 543.62225 532.0
0.001912 516.81018 543.32428 523.0
0.001923 516.72241 543.02423 520.0
0.001946 516.63470 542.72168 514.0
0.001880 516.54694 542.41809 532.0
0.002000 516.45917 542.11383 500.0
0.001859 516.37140 541.80945 538.0
0.001805 516.28369 541.50549 554.0
0.001957 516.19592 541.20264 511.0
0.001832 516.10822 540.90137 546.0
0.001912 516.02051 540.60260 523.0
0.001931 515.93274 540.30621 518.0
0.001825 515.84497 540.01215 548.0
0.001812 515.75720 539.72241 552.0
0.001887 515.66949 539.43628 530.0
0.001842 515.58173 539.15381 543.0
0.001976 515.49396 538.87616 506.0
0.001912 515.40625 538.60388 523.0
0.001848 515.31848 538.33582 541.0
0.001923 515.23071 538.07306 520.0
0.001770 515.14301 537.81525 565.0
0.001802 515.05530 537.56384 555.0
0.001942 514.96753 537.31714 515.0
0.001898 514.87976 537.07635 527.0
0.001953 514.79205 536.84131 512.0
0.001692 514.70428 536.61169 591.0
0.001783 514.61652 536.38739 561.0
0.001808 514.52875 536.16962 553.0
0.001919 514.44104 535.95685 521.0
0.001795 514.35327 535.75012 557.0
0.001972 514.26550 535.51733 507.0
0.001799 514.17780 535.32275 556.0
0.001916 514.09009 535.13251 522.0
0.001916 514.10309 535.04755 522.0
0.001773 514.13696 534.98975 564.0
0.001916 514.17078 534.93536 522.0
0.001938 514.20465 534.88654 516.0
0.001821 514.23853 534.84125 549.0
0.001908 514.27240 534.80066 524.0
0.001859 514.30627 534.76453 538.0
0.001912 514.34015 534.73096 523.0
0.002016 514.37402 534.70111 496.0
0.001916 514.40790 534.67413 522.0
0.001838 514.44177 534.65057 544.0
0.001761 514.47565 534.62897 568.0
0.001848 514.50952 534.60956 541.0
0.001795 514.54333 534.59167 557.0
0.001770 514.57721 534.57520 565.0
0.001848 514.61108 534.55939 541.0
0.001661 514.64496 534.54407 602.0
0.001828 514.67883 534.53003 547.0
0.001786 514.71271 534.51587 560.0
0.001883 514.74658 534.50128 531.0
0.001776 514.78046 534.48645 563.0
0.001916 514.81433 534.47125 522.0
0.001972 514.84821 534.45557 507.0
0.001792 514.88208 534.43945 558.0
0.001799 514.91589 534.42279 556.0
0.001953 514.94977 534.40430 512.0
0.001751 514.98364 534.38513 571.0
0.001890 515.01752 534.36475 529.0
0.001876 515.05139 534.34375 533.0
0.001721 515.08527 534.32141 581.0
0.001905 515.11914 534.29846 525.0
0.001754 515.15302 534.27405 570.0
0.001799 515.18689 534.24866 556.0
0.001828 515.22076 534.22247 547.0
0.001783 515.25458 534.19629 561.0
0.001965 515.28845 534.16870 509.0
0.001855 515.32233 534.14069 539.0
0.001927 515.35620 534.11230 519.0
0.001852 515.39008 534.08405 540.0
0.001832 515.42395 534.05518 546.0
0.001866 515.45782 533.98547 536.0
0.001923 515.49170 533.95715 520.0
0.001701 515.52557 533.92896 588.0
0.001927 515.55945 533.90173 519.0
0.001883 515.59332 533.87531 531.0
0.001923 515.62714 533.84998 520.0
0.001866 515.66101 533.82605 536.0
0.001972 515.69489 533.80463 507.0
0.001773 515.72876 533.78424 564.0
0.001869 515.76263 533.76660 535.0
0.001730 515.79651 533.75085 578.0
0.001869 515.83038 533.73798 535.0
0.001905 515.86420 533.72803 525.0
0.001828 515.89813 533.72192 547.0
0.001779 515.93201 533.71863 562.0
0.001873 515.96588 533.71973 534.0
0.001825 515.99969 533.72424 548.0
0.001751 516.03357 533.73364 571.0
0.001931 516.06744 533.74768 518.0
0.001855 516.10132 533.76691 539.0
0.001848 516.13519 533.79077 541.0
0.001905 516.16907 533.82031 525.0
0.001855 516.20294 533.85553 539.0
0.001799 516.23676 533.89685 556.0
0.001828 516.27063 533.94421 547.0
0.001965 516.30450 533.99756 509.0
0.001919 516.33838 534.05884 521.0
0.001923 516.37225 534.12616 520.0
0.001880 516.40613 534.20026 532.0
0.001984 516.44000 534.28229 504.0
0.001695 516.47388 534.37164 590.0
0.001832 516.50775 534.46881 546.0
0.001838 516.54163 534.57355 544.0
0.001808 516.57550 534.68640 553.0
0.001842 516.60931 534.80878 543.0
0.001718 516.64319 534.93890 582.0
0.001880 516.67706 535.07831 532.0
0.001869 516.71094 535.22638 535.0
0.001767 516.74481 535.36383 566.0
0.001887 516.77869 535.53186 530.0
0.001931 516.81256 535.71039 518.0
0.001742 516.84644 535.89917 574.0
0.001901 516.88031 536.09943 526.0
0.001721 516.91418 536.31104 581.0
0.001828 516.94800 536.53424 547.0
0.001821 516.98187 536.77002 549.0
0.001799 517.01575 537.01868 556.0
0.001887 517.04962 537.26282 530.0
0.001733 517.08350 537.53735 577.0
0.001730 517.11737 537.82501 578.0
0.001883 517.15125 538.12793 531.0
0.001890 517.18512 538.44385 529.0
0.001842 517.21899 538.77527 543.0
0.001838 517.25287 539.12012 544.0
0.001976 517.28674 539.47968 506.0
0.001835 517.32056 539.85419 545.0
0.001664 517.35443 540.24310 601.0
0.001770 517.38831 540.64563 565.0
0.001890 517.42218 541.06177 529.0
0.001745 517.45605 541.49133 573.0
0.001698 517.48993 541.93359 589.0
0.001923 517.52380 542.38824 520.0
0.001815 517.55768 542.85352 551.0
0.001946 517.59155 543.32965 514.0
0.001812 517.62543 543.81567 552.0
0.001876 517.65930 544.30920 533.0
0.001883 517.69312 544.80945 531.0
0.001733 517.72699 545.31567 577.0
0.001802 517.76086 545.82556 555.0
0.001848 517.79474 546.34540 541.0
0.001852 517.82861 546.85779 540.0
0.001773 517.86249 547.37061 564.0
0.001818 517.89636 547.87964 550.0
0.001880 517.93024 548.38562 532.0
0.001821 517.96411 548.88330 549.0
0.001742 517.99799 549.37219 574.0
0.001751 518.03180 549.85022 571.0
0.001795 518.06567 550.31702 557.0
0.001681 518.09955 550.76788 595.0
0.001890 518.13342 551.20386 529.0
0.001592 518.16730 551.62115 628.0
0.001764 518.20117 552.01978 567.0
0.001748 518.23505 552.39740 572.0
0.001736 518.26892 552.75201 576.0
0.001658 518.30273 553.08441 603.0
0.001681 518.33661 553.38306 595.0
0.001658 518.37054 553.66577 603.0
0.001789 518.40436 553.92242 559.0
0.001718 518.43823 554.15356 582.0
0.001639 518.47211 554.35767 610.0
0.001767 518.50598 554.53510 566.0
0.001745 518.53986 554.68658 573.0
0.001783 518.57373 554.81189 561.0
0.001832 518.60760 554.91302 546.0
0.001776 518.64142 554.98743 563.0
0.001692 518.67529 555.03943 591.0
0.001724 518.70917 555.06805 580.0
0.001751 518.74304 555.07526 571.0
0.001761 518.77692 555.06207 568.0
0.001761 518.81079 555.02991 568.0
0.001669 518.84467 554.98022 599.0
0.001927 518.87854 554.90887 519.0
0.001832 518.91241 554.82867 546.0
0.001795 518.94629 554.73578 557.0
0.001890 518.98016 554.63208 529.0
0.001832 519.01398 554.51959 546.0
0.001727 519.04785 554.39954 579.0
0.001866 519.08173 554.27191 536.0
0.001919 519.11560 554.14056 521.0
0.001862 519.14948 554.00934 537.0
0.001866 519.18335 553.87244 536.0
0.001776 519.21722 553.73376 563.0
0.001773 519.25110 553.59460 564.0
0.001873 519.28497 553.45776 534.0
0.001773 519.31885 553.32062 564.0
0.001786 519.35272 553.18500 560.0
0.001859 519.38654 553.05084 538.0
0.001996 519.42041 552.91901 501.0
0.001992 519.45428 552.78821 502.0
0.001773 519.48816 552.65942 564.0
0.001957 519.52203 552.53162 511.0
0.001686 519.55591 552.40430 593.0
0.001919 519.58978 552.27740 521.0
0.001919 519.62366 552.15002 521.0
0.001792 519.65753 552.02039 558.0
0.001642 519.69141 551.88928 609.0
0.001739 519.72522 551.75464 575.0
0.001799 519.75909 551.61627 556.0
0.001869 519.79297 551.47211 535.0
0.001786 519.82684 551.32294 560.0
0.001812 519.86072 551.16632 552.0
0.001927 519.89459 551.00299 519.0
0.001946 519.92847 550.83191 514.0
0.001678 519.96234 550.65247 596.0
0.001776 519.99622 550.42505 563.0
0.001842 520.03009 550.22705 543.0
0.001792 520.06396 550.01874 558.0
0.001848 520.09778 549.80042 541.0
0.001748 520.13165 549.57343 572.0
0.001757 520.16553 549.33594 569.0
0.001835 520.19940 549.09021 545.0
0.001727 520.23328 548.83417 579.0
0.001789 520.26715 548.57098 559.0
0.001825 520.30103 548.29938 548.0
0.001901 520.33484 548.02087 526.0
0.001835 520.36871 547.73694 545.0
0.001949 520.40265 547.44775 513.0
0.001656 520.43652 547.15405 604.0
0.001783 520.47034 546.85724 561.0
0.001821 520.50421 546.55902 549.0
0.001842 520.53809 546.26001 543.0
0.001818 520.57196 545.96149 550.0
0.001848 520.60583 545.66473 541.0
0.001848 520.63971 545.36987 541.0
0.001852 520.67358 545.07910 540.0
0.001876 520.70740 544.79266 533.0
0.001969 520.74127 544.51239 508.0
0.001880 520.77515 544.23816 532.0
0.001876 520.80902 543.97119 533.0
0.001938 520.84290 543.71167 516.0
0.001805 520.87677 543.46051 554.0
0.001764 520.91064 543.21735 567.0
0.001730 520.94452 542.98315 578.0
0.001812 520.97839 542.75830 552.0
0.001799 521.01227 542.54199 556.0
0.001859 521.04614 542.33478 538.0
0.001869 521.07996 542.13617 535.0
0.001808 521.11383 541.94482 553.0
0.001779 521.14771 541.76196 562.0
0.001799 521.18158 541.58716 556.0
0.001876 521.21545 541.41888 533.0
0.001754 521.24933 541.25775 570.0
0.001783 521.28320 541.10077 561.0
0.001802 521.31708 540.95001 555.0
0.001887 521.35095 540.80280 530.0
0.001880 521.38483 540.65979 532.0
0.001866 521.41864 540.51990 536.0
0.001757 521.45251 540.38226 569.0
0.001795 521.48639 540.24609 557.0
0.001767 521.52026 540.11212 566.0
0.001742 521.55414 539.97882 574.0
0.001883 521.58801 539.84528 531.0
0.001799 521.62189 539.71228 556.0
0.001912 521.65576 539.57947 523.0
0.002028 521.68964 539.44611 493.0
0.001908 521.72351 539.31195 524.0
0.001736 521.75739 539.17737 576.0
0.002049 521.79120 539.04224 488.0
0.001770 521.82507 538.91290 565.0
0.002058 521.85895 538.77771 486.0
0.001845 521.89282 538.64148 542.0
0.001942 521.92670 538.50543 515.0
0.001923 521.96057 538.36975 520.0
0.001949 521.99445 538.23535 513.0
0.001887 522.02832 538.10181 530.0
0.001894 522.06219 537.96997 528.0
0.001946 522.09607 537.83972 514.0
0.001901 522.12994 537.71185 526.0
0.001912 522.16376 537.58636 523.0
0.001808 522.19763 537.46490 553.0
0.001869 522.23151 537.34656 535.0
0.001855 522.26538 537.23138 539.0
0.001818 522.29926 537.12042 550.0
0.002053 522.33313 537.01379 487.0
0.001799 522.36700 536.91217 556.0
0.001848 522.40082 536.81500 541.0
0.001848 522.43475 536.72400 541.0
0.001969 522.46863 536.63708 508.0
0.001855 522.50250 536.55603 539.0
0.001828 522.53632 536.48029 547.0
0.001898 522.57019 536.41132 527.0
0.001965 522.60406 536.34680 509.0
0.001799 522.63794 536.28815 556.0
0.002000 522.67181 536.23590 500.0
0.001767 522.70569 536.18927 566.0
0.001786 522.73956 536.14838 560.0
0.001862 522.77338 536.11340 537.0
0.001852 522.80725 536.08411 540.0
0.001855 522.84113 536.06110 539.0
0.002083 522.87500 536.04285 480.0
0.001919 522.90887 536.03174 521.0
0.001808 522.94275 536.02673 553.0
0.001745 522.97662 536.02661 573.0
0.001927 523.01050 536.03351 519.0
0.001880 523.04437 536.04706 532.0
0.001852 523.07825 536.06653 540.0
0.001745 523.11206 536.09198 573.0
0.001946 523.14594 536.12360 514.0
0.001845 523.17981 536.16248 542.0
0.001912 523.21368 536.20819 523.0
0.001931 523.24756 536.26593 518.0
0.002075 523.28143 536.32623 482.0
0.001812 523.31531 536.39465 552.0
0.001805 523.34918 536.47137 554.0
0.001927 523.38306 536.55609 519.0
0.002028 523.41693 536.64984 493.0
0.001754 523.45081 536.75232 570.0
0.001855 523.48462 536.86377 539.0
0.001818 523.51849 536.98511 550.0
0.001931 523.55237 537.11688 518.0
0.001965 523.58624 537.25806 509.0
0.001912 523.62012 537.41016 523.0
0.001890 523.65399 537.57349 529.0
. . . 552.0
. . . 553.0
. . . 539.0
. . . 555.0
. . . 487.0
. . . 491.0
. . . 525.0
. . . 525.0
. . . 533.0
. . . 503.0
. . . 510.0
. . . 578.0
. . . 519.0
. . . 557.0
. . . 534.0
. . . 533.0
. . . 501.0
. . . 534.0
. . . 542.0
. . . 571.0
. . . 542.0
. . . 524.0
. . . 530.0
. . . 534.0
. . . 533.0
. . . 512.0
. . . 550.0
. . . 533.0
. . . 574.0
. . . 552.0
. . . 551.0
. . . 530.0
. . . 566.0
. . . 527.0
. . . 563.0
. . . 536.0
. . . 606.0
. . . 538.0
. . . 541.0
. . . 567.0
. . . 561.0
. . . 523.0
. . . 552.0
. . . 557.0
. . . 542.0
. . . 604.0
. . . 573.0
. . . 576.0
. . . 557.0
. . . 560.0
. . . 549.0
. . . 559.0
. . . 575.0
. . . 521.0
. . . 554.0
. . . 561.0
. . . 554.0
. . . 568.0
. . . 556.0
. . . 562.0
. . . 542.0
. . . 542.0
. . . 560.0
. . . 570.0
. . . 510.0
. . . 553.0
. . . 540.0
. . . 547.0
. . . 525.0
. . . 552.0
. . . 534.0
. . . 593.0
. . . 517.0
. . . 509.0
. . . 559.0
. . . 559.0
. . . 506.0
. . . 579.0
. . . 540.0
. . . 516.0
. . . 563.0
. . . 558.0
. . . 543.0
. . . 539.0
. . . 543.0
. . . 543.0
. . . 594.0
. . . 532.0
. . . 600.0
. . . 538.0
. . . 603.0
. . . 543.0
. . . 530.0
. . . 553.0
. . . 558.0
. . . 523.0
. . . 530.0
. . . 554.0
. . . 555.0
. . . 528.0
. . . 568.0
. . . 535.0
. . . 510.0
. . . 559.0
. . . 550.0
. . . 533.0
. . . 575.0
. . . 580.0
. . . 556.0
. . . 529.0
. . . 497.0
loop_
_refln_index_h
_refln_index_k
_refln_index_l
_pd_refln_wavelength_id
_refln_observed_status
_refln_F_squared_meas
_refln_F_squared_calc
_refln_phase_calc
_refln_d_spacing
_gsas_i100_meas
1 1 0 1 o 1228.061 1225.229 0.00 9.22704 95.41
1 1 0 2 o 1234.019 1225.229 0.00 9.22704 47.70
0 2 0 1 o 1238.092 1190.639 0.00 6.98600 15.72
0 2 0 2 o 1239.414 1190.639 0.00 6.98600 7.83
2 0 0 1 o 2898.358 2909.490 180.00 6.14384 92.08
2 0 0 2 o 2909.735 2909.490 180.00 6.14384 45.99
1 2 0 1 o 169.628 165.640 180.00 6.07310 4.07
1 2 0 2 o 172.311 165.640 180.00 6.07310 2.06
2 1 0 1 o 181.420 176.223 -180.00 5.62412 7.50
2 1 0 2 o 173.465 176.223 -180.00 5.62412 3.57
2 2 0 1 o 52.443 71.812 180.00 4.61352 0.98
2 2 0 2 o 53.236 71.812 180.00 4.61352 0.50
1 3 0 1 o 1183.827 1107.309 0.00 4.35501 12.70
1 3 0 2 o 1142.745 1107.309 0.00 4.35501 6.10
0 0 1 1 o 5322.680 5347.361 164.47 3.93043 20.70
0 0 1 2 o 5318.154 5347.361 164.47 3.93043 10.28
3 1 0 1 o 258.227 259.156 0.00 3.93048 5.72
3 1 0 2 o 258.069 259.156 0.00 3.93048 2.84
1 1 1 1 o 661.703 671.549 178.57 3.61604 9.29
1 1 1 2 o 660.436 671.549 178.57 3.61604 4.61
2 3 0 1 o 369.983 358.627 0.00 3.71148 3.55
2 3 0 2 o 350.748 358.627 0.00 3.71148 1.68
3 2 0 1 o 889.062 878.458 -180.00 3.53337 11.96
3 2 0 2 o 877.726 878.458 -180.00 3.53337 5.87
0 2 1 1 o 5510.118 5470.496 -174.32 3.42550 32.03
0 2 1 2 o 5500.987 5470.496 -174.32 3.42550 15.91
2 0 1 1 o 697.775 692.457 72.84 3.31089 4.86
2 0 1 2 o 693.193 692.457 72.84 3.31089 2.40
0 4 0 1 o 3025.558 2867.080 180.00 3.49300 9.21
0 4 0 2 o 3010.205 2867.080 180.00 3.49300 4.56
1 2 1 1 o 8762.088 8766.545 -71.64 3.29968 100.00
1 2 1 2 o 8744.245 8766.545 -71.64 3.29968 49.63
2 1 1 1 o 664.474 679.919 169.57 3.22167 8.67
2 1 1 2 o 674.318 679.919 169.57 3.22167 4.37
1 4 0 1 o 80.198 91.651 180.00 3.35988 0.48
1 4 0 2 o 82.544 91.651 180.00 3.35988 0.24
4 0 0 1 o 137.439 131.174 180.00 3.07192 1.03
4 0 0 2 o 133.249 131.174 180.00 3.07192 0.50
2 2 1 1 o 354.135 353.733 -16.28 2.99189 3.77
2 2 1 2 o 364.895 353.733 -16.28 2.99189 1.93
3 3 0 1 o 563.426 528.915 -180.00 3.07568 4.53
3 3 0 2 o 541.385 528.915 -180.00 3.07568 2.17
4 1 0 1 o 50.023 51.494 -180.00 3.00026 0.67
4 1 0 2 o 51.288 51.494 -180.00 3.00026 0.34
2 4 0 1 o 40.265 39.732 0.00 3.03655 0.23
2 4 0 2 o 41.324 39.732 0.00 3.03655 0.12
1 3 1 1 o 131.157 137.524 -146.49 2.91783 1.13
1 3 1 2 o 129.314 137.524 -146.49 2.91783 0.56
3 1 1 1 o 9.823 21.306 61.76 2.77925 0.12
3 1 1 2 o 9.564 21.306 61.76 2.77925 0.06
4 2 0 1 o 184.127 171.702 0.00 2.81206 1.74
4 2 0 2 o 169.233 171.702 0.00 2.81206 0.80
2 3 1 1 o 618.188 580.702 -83.11 2.69850 5.05
2 3 1 2 o 609.828 580.702 -83.11 2.69850 2.48
3 2 1 1 o 208.247 236.961 -86.85 2.62767 1.99
1 5 0 1 o 405.080 377.271 -180.00 2.72483 1.49
3 2 1 2 o 215.371 236.961 -86.85 2.62767 1.02
1 5 0 2 o 411.381 377.271 -180.00 2.72483 0.75
3 4 0 1 o 225.694 205.479 0.00 2.65777 1.10
0 4 1 1 o 1029.346 1053.237 -102.77 2.61094 3.33
3 4 0 2 o 217.562 205.479 0.00 2.65777 0.53
0 4 1 2 o 1064.035 1053.237 -102.77 2.61094 1.71
1 4 1 1 o 379.348 354.383 159.54 2.55392 2.41
1 4 1 2 o 368.668 354.383 159.54 2.55392 1.17
4 3 0 1 o 15.777 13.643 -180.00 2.56434 0.10
4 3 0 2 o 15.045 13.643 -180.00 2.56434 0.05
2 5 0 1 o 8.666 8.466 -180.00 2.54366 0.03
2 5 0 2 o 8.163 8.466 -180.00 2.54366 0.01
4 0 1 1 o 74.327 73.139 -146.73 2.42037 0.37
4 0 1 2 o 72.950 73.139 -146.73 2.42037 0.18
3 3 1 1 o 488.524 480.427 -160.30 2.42221 3.63
3 3 1 2 o 479.242 480.427 -160.30 2.42221 1.77
4 1 1 1 o 443.121 474.553 -88.43 2.38485 4.24
4 1 1 2 o 436.963 474.553 -88.43 2.38485 2.08
2 4 1 1 o 10.867 11.094 -136.28 2.40295 0.07
5 1 0 1 o 951.967 941.156 180.00 2.42038 7.91
2 4 1 2 o 10.872 11.094 -136.28 2.40295 0.03
5 1 0 2 o 929.015 941.156 180.00 2.42038 3.84
4 2 1 1 o 1.421 1.403 -67.07 2.28700 0.01
4 2 1 2 o 1.407 1.403 -67.07 2.28700 0.01
5 2 0 1 o 419.334 399.965 -180.00 2.31827 2.78
5 2 0 2 o 409.405 399.965 -180.00 2.31827 1.35
0 6 0 1 o 1178.747 1054.540 0.00 2.32867 1.47
0 6 0 2 o 1146.770 1054.540 0.00 2.32867 0.71
4 4 0 1 o 71.518 68.727 0.00 2.30676 0.30
4 4 0 2 o 73.902 68.727 0.00 2.30676 0.15
3 5 0 1 o 1612.598 1561.829 0.00 2.30835 5.20
3 5 0 2 o 1668.141 1561.829 0.00 2.30835 2.67
1 6 0 1 o 750.660 739.123 0.00 2.28794 1.85
1 6 0 2 o 753.395 739.123 0.00 2.28794 0.92
1 5 1 1 o 209.200 223.236 119.69 2.23933 0.98
1 5 1 2 o 216.309 223.236 119.69 2.23933 0.50
3 4 1 1 o 80.418 108.043 129.45 2.20166 0.46
3 4 1 2 o 87.623 108.043 129.45 2.20166 0.25
4 3 1 1 o 62.969 56.381 -148.25 2.14766 0.41
4 3 1 2 o 56.324 56.381 -148.25 2.14766 0.18
5 3 0 1 o 2.044 1.246 0.00 2.17350 0.01
5 3 0 2 o 2.008 1.246 0.00 2.17350 0.01
2 6 0 1 o 43.124 29.048 0.00 2.17750 0.10
2 6 0 2 o 46.394 29.048 0.00 2.17750 0.05
2 5 1 1 o 576.046 626.714 -41.41 2.13547 2.59
2 5 1 2 o 597.355 626.714 -41.41 2.13547 1.33
5 1 1 1 o 325.110 298.092 -30.04 2.06095 2.50
5 1 1 2 o 311.563 298.092 -30.04 2.06095 1.19
6 0 0 1 o 2742.763 2692.166 180.00 2.04795 8.12
6 0 0 2 o 2597.826 2692.166 180.00 2.04795 3.83
4 5 0 1 o 384.799 338.837 0.00 2.06710 1.11
4 5 0 2 o 364.812 338.837 0.00 2.06710 0.52
0 0 2 1 o 897.495 920.632 -121.16 1.96522 0.75
5 2 1 1 o 349.622 359.023 -94.21 1.99681 2.35
0 0 2 2 o 887.550 920.632 -121.16 1.96522 0.37
5 2 1 2 o 361.644 359.023 -94.21 1.99681 1.21
6 1 0 1 o 393.904 405.930 0.00 2.02629 2.21
6 1 0 2 o 387.673 405.930 0.00 2.02629 1.08
4 4 1 1 o 67.647 65.397 151.64 1.98944 0.34
1 1 2 1 o 81.434 64.099 71.51 1.92210 0.26
4 4 1 2 o 70.351 65.397 151.64 1.98944 0.18
1 1 2 2 o 87.355 64.099 71.51 1.92210 0.14
3 5 1 1 o 348.165 339.775 -121.38 1.99046 1.47
3 6 0 1 o 181.607 187.573 0.00 2.02437 0.40
3 5 1 2 o 363.146 339.775 -121.38 1.99046 0.76
5 4 0 1 o 202.088 201.555 0.00 2.00992 0.70
3 6 0 2 o 176.594 187.573 0.00 2.02437 0.20
5 4 0 2 o 197.802 201.555 0.00 2.00992 0.34
0 6 1 1 o 274.569 283.676 55.32 2.00344 0.48
0 6 1 2 o 270.736 283.676 55.32 2.00344 0.24
6 2 0 1 o 87.906 92.895 -180.00 1.96524 0.41
1 6 1 1 o 55.331 49.772 51.93 1.97733 0.19
0 2 2 1 o 978.839 992.385 40.00 1.89179 1.49
2 0 2 1 o 93.274 99.126 77.30 1.87179 0.15
6 2 0 2 o 86.488 92.895 -180.00 1.96524 0.20
1 6 1 2 o 50.328 49.772 51.93 1.97733 0.09
0 2 2 2 o 952.330 992.385 40.00 1.89179 0.72
2 0 2 2 o 94.936 99.126 77.30 1.87179 0.08
1 7 0 1 o 17.475 18.101 180.00 1.97018 0.03
2 1 2 1 o 156.724 172.637 112.43 1.85522 0.49
1 7 0 2 o 16.999 18.101 180.00 1.97018 0.01
1 2 2 1 o 343.924 362.460 65.00 1.86976 1.04
2 1 2 2 o 156.459 172.637 112.43 1.85522 0.24
1 2 2 2 o 348.860 362.460 65.00 1.86976 0.52
5 3 1 1 o 373.318 370.251 59.22 1.90205 2.09
5 3 1 2 o 375.683 370.251 59.22 1.90205 1.04
2 6 1 1 o 165.581 167.181 159.13 1.90473 0.55
2 6 1 2 o 168.861 167.181 159.13 1.90473 0.28
2 2 2 1 o 56.338 54.372 -90.12 1.80802 0.17
2 2 2 2 o 56.066 54.372 -90.12 1.80802 0.08
2 7 0 1 o 466.676 459.101 -180.00 1.89833 0.78
6 3 0 1 o 10.050 10.987 0.00 1.87471 0.04
2 7 0 2 o 453.346 459.101 -180.00 1.89833 0.38
6 3 0 2 o 10.431 10.987 0.00 1.87471 0.02
6 0 1 1 o 540.130 526.235 -29.89 1.81619 1.72
6 0 1 2 o 548.638 526.235 -29.89 1.81619 0.87
1 3 2 1 o 440.722 447.709 -54.37 1.79128 1.20
6 1 1 1 o 24.472 23.981 58.13 1.80104 0.15
1 3 2 2 o 468.464 447.709 -54.37 1.79128 0.63
6 1 1 2 o 23.249 23.981 58.13 1.80104 0.07
4 5 1 1 o 499.572 486.699 105.84 1.82951 1.94
4 5 1 2 o 496.620 486.699 105.84 1.82951 0.96
4 6 0 1 o 0.350 0.399 0.00 1.85574 0.00
3 1 2 1 o 26.650 26.883 -43.68 1.75775 0.08
5 5 0 1 o 9.302 10.126 180.00 1.84541 0.02
4 6 0 2 o 0.353 0.399 0.00 1.85574 0.00
5 5 0 2 o 9.855 10.126 180.00 1.84541 0.01
3 1 2 2 o 27.638 26.883 -43.68 1.75775 0.04
5 4 1 1 o 10.512 10.565 19.99 1.78951 0.05
5 4 1 2 o 11.404 10.565 19.99 1.78951 0.03
3 6 1 1 o 41.794 42.026 95.93 1.79968 0.13
2 3 2 1 o 132.851 110.141 125.96 1.73677 0.35
3 6 1 2 o 39.482 42.026 95.93 1.79968 0.06
2 3 2 2 o 141.090 110.141 125.96 1.73677 0.18
6 2 1 1 o 113.832 117.256 24.26 1.75776 0.62
3 2 2 1 o 161.902 160.260 3.03 1.71745 0.45
6 2 1 2 o 119.031 117.256 24.26 1.75776 0.32
3 2 2 2 o 147.735 160.260 3.03 1.71745 0.21
3 7 0 1 o 951.132 1024.782 0.00 1.79429 1.50
3 7 0 2 o 1013.583 1024.782 0.00 1.79429 0.80
6 4 0 1 o 293.481 284.424 0.00 1.76669 0.82
6 4 0 2 o 273.691 284.424 0.00 1.76669 0.38
0 4 2 1 o 1370.351 1531.192 14.88 1.71275 1.65
0 4 2 2 o 1380.135 1531.192 14.88 1.71275 0.82
1 7 1 1 o 100.926 106.500 16.82 1.76129 0.26
7 1 0 1 o 8.673 7.470 -180.00 1.74169 0.03
1 7 1 2 o 101.522 106.500 16.82 1.76129 0.13
7 1 0 2 o 9.035 7.470 -180.00 1.74169 0.02
1 4 2 1 o 989.904 1027.259 116.48 1.69635 2.35
4 0 2 1 o 24.339 26.701 93.18 1.65544 0.04
1 4 2 2 o 1098.366 1027.259 116.48 1.69635 1.29
4 0 2 2 o 24.807 26.701 93.18 1.65544 0.02
0 8 0 1 o 8.176 7.093 180.00 1.74650 0.01
0 8 0 2 o 8.216 7.093 180.00 1.74650 0.00
4 1 2 1 o 165.069 168.728 -21.92 1.64395 0.46
6 3 1 1 o 58.493 54.549 131.31 1.69208 0.27
3 3 2 1 o 421.339 467.321 52.68 1.65603 1.07
4 1 2 2 o 180.826 168.728 -21.92 1.64395 0.25
6 3 1 2 o 64.772 54.549 131.31 1.69208 0.15
3 3 2 2 o 431.327 467.321 52.68 1.65603 0.55
7 2 0 1 o 10.417 11.588 180.00 1.70246 0.04
7 2 0 2 o 10.562 11.588 180.00 1.70246 0.02
1 8 0 1 o 234.717 163.821 -180.00 1.72912 0.29
2 4 2 1 o 38.100 41.099 -106.97 1.64984 0.09
2 7 1 1 o 141.389 161.324 109.73 1.70940 0.36
1 8 0 2 o 226.938 163.821 -180.00 1.72912 0.14
2 4 2 2 o 38.678 41.099 -106.97 1.64984 0.04
2 7 1 2 o 145.453 161.324 109.73 1.70940 0.18
5 5 1 1 o 84.853 78.544 19.08 1.67045 0.29
4 6 1 1 o 68.604 58.192 -166.19 1.67810 0.20
5 5 1 2 o 81.588 78.544 19.08 1.67045 0.14
4 6 1 2 o 64.857 58.192 -166.19 1.67810 0.10
5 6 0 1 o 13.273 11.532 0.00 1.69034 0.02
5 6 0 2 o 14.521 11.532 0.00 1.69034 0.01
4 2 2 1 o 22.966 24.790 -33.02 1.61084 0.06
4 2 2 2 o 23.864 24.790 -33.02 1.61084 0.03
4 7 0 1 o 92.868 83.606 0.00 1.67372 0.14
2 8 0 1 o 244.506 201.512 0.00 1.67994 0.30
4 7 0 2 o 89.705 83.606 0.00 1.67372 0.07
2 8 0 2 o 230.216 201.512 0.00 1.67994 0.14
6 5 0 1 o 33.877 37.042 -180.00 1.65183 0.07
7 3 0 1 o 0.156 0.157 -180.00 1.64258 0.00
6 5 0 2 o 33.507 37.042 -180.00 1.65183 0.04
7 3 0 2 o 0.176 0.157 -180.00 1.64258 0.00
6 4 1 1 o 41.527 45.756 87.81 1.61139 0.16
6 4 1 2 o 44.945 45.756 87.81 1.61139 0.09
3 7 1 1 o 458.477 391.615 158.19 1.63225 1.11
1 5 2 1 o 27.316 34.201 8.18 1.59391 0.06
7 1 1 1 o 42.936 52.126 115.49 1.59235 0.21
3 4 2 1 o 14.938 13.626 -151.92 1.58016 0.03
3 7 1 2 o 441.683 391.615 158.19 1.63225 0.53
1 5 2 2 o 29.937 34.201 8.18 1.59391 0.03
7 1 1 2 o 48.276 52.126 115.49 1.59235 0.12
3 4 2 2 o 14.226 13.626 -151.92 1.58016 0.02
4 3 2 1 o 83.719 82.618 -6.82 1.55984 0.20
4 3 2 2 o 83.321 82.618 -6.82 1.55984 0.10
7 2 1 1 o 244.409 242.163 114.79 1.56221 1.08
7 2 1 2 o 244.087 242.163 114.79 1.56221 0.54
5 1 2 1 o 17.559 14.177 -94.35 1.52565 0.04
2 5 2 1 o 133.096 132.646 106.74 1.55515 0.26
5 1 2 2 o 15.768 14.177 -94.35 1.52565 0.02
2 5 2 2 o 139.046 132.646 106.74 1.55515 0.14
3 8 0 1 o 67.752 66.324 180.00 1.60655 0.08
3 8 0 2 o 59.791 66.324 180.00 1.60655 0.03
0 8 1 1 o 292.639 398.835 127.13 1.59603 0.30
0 8 1 2 o 318.158 398.835 127.13 1.59603 0.16
1 8 1 1 o 52.835 45.166 -69.03 1.58273 0.11
7 4 0 1 o 50.717 56.959 0.00 1.56846 0.12
1 8 1 2 o 50.566 45.166 -69.03 1.58273 0.05
7 4 0 2 o 55.355 56.959 0.00 1.56846 0.06
5 2 2 1 o 29.847 33.166 57.48 1.49907 0.07
5 6 1 1 o 100.183 98.824 119.17 1.55283 0.27
5 2 2 2 o 32.796 33.166 57.48 1.49907 0.04
5 6 1 2 o 107.233 98.824 119.17 1.55283 0.15
8 0 0 1 o 0.370 0.264 0.00 1.53596 0.00
7 3 1 1 o 114.889 121.671 -37.82 1.51556 0.45
4 4 2 1 o 14.485 14.981 25.07 1.49594 0.03
8 0 0 2 o 0.342 0.264 0.00 1.53596 0.00
7 3 1 2 o 114.153 121.671 -37.82 1.51556 0.22
4 4 2 2 o 16.181 14.981 25.07 1.49594 0.02
8 1 0 1 o 99.629 75.448 -180.00 1.52676 0.28
5 7 0 1 o 236.768 218.579 180.00 1.54935 0.32
4 7 1 1 o 58.522 43.989 -106.64 1.53991 0.13
3 5 2 1 o 44.008 46.320 -7.72 1.49638 0.08
8 1 0 2 o 88.629 75.448 -180.00 1.52676 0.13
6 5 1 1 o 8.454 7.255 -67.74 1.52282 0.03
5 7 0 2 o 250.426 218.579 180.00 1.54935 0.17
2 8 1 1 o 10.914 9.417 -162.98 1.54475 0.02
4 7 1 2 o 63.757 43.989 -106.64 1.53991 0.07
3 5 2 2 o 49.257 46.320 -7.72 1.49638 0.05
6 5 1 2 o 7.116 7.255 -67.74 1.52282 0.01
2 8 1 2 o 12.071 9.417 -162.98 1.54475 0.01
6 6 0 1 o 15.184 10.583 180.00 1.53784 0.02
6 6 0 2 o 14.841 10.583 180.00 1.53784 0.01
0 6 2 1 o 135.972 161.420 -87.79 1.50187 0.12
1 6 2 1 o 52.200 45.776 -149.34 1.49078 0.09
0 6 2 2 o 143.343 161.420 -87.79 1.50187 0.06
1 9 0 1 o 24.330 18.323 0.00 1.54020 0.02
1 6 2 2 o 57.133 45.776 -149.34 1.49078 0.05
5 3 2 1 o 260.465 283.992 -175.19 1.45771 0.58
1 9 0 2 o 27.200 18.323 0.00 1.54020 0.01
5 3 2 2 o 263.748 283.992 -175.19 1.45771 0.29
8 2 0 2 o 3.090 3.313 -180.00 1.50013 0.00
8 2 0 1 o 2.770 3.313 -180.00 1.50013 0.01
4 8 0 1 o 42.373 45.799 0.00 1.51827 0.05
4 8 0 2 o 42.439 45.799 0.00 1.51827 0.02
2 6 2 1 o 6.143 6.834 46.72 1.45891 0.01
2 9 0 1 o 31.909 39.403 0.00 1.50514 0.03
7 5 0 1 o 4.909 3.831 -180.00 1.48643 0.01
2 6 2 2 o 5.991 6.834 46.72 1.45891 0.01
6 0 2 1 o 51.181 52.436 20.81 1.41796 0.06
2 9 0 2 o 31.843 39.403 0.00 1.50514 0.01
7 5 0 2 o 4.353 3.831 -180.00 1.48643 0.00
6 0 2 2 o 50.310 52.436 20.81 1.41796 0.03
3 8 1 1 o 10.932 8.507 -73.58 1.48711 0.02
7 4 1 1 o 21.302 24.507 89.64 1.45675 0.07
3 8 1 2 o 9.756 8.507 -73.58 1.48711 0.01
6 1 2 1 o 55.698 60.501 -109.28 1.41072 0.13
7 4 1 2 o 22.237 24.507 89.64 1.45675 0.04
6 1 2 2 o 56.546 60.501 -109.28 1.41072 0.07
8 0 1 1 o 286.894 271.823 -71.27 1.43060 0.58
8 3 0 1 o 40.880 47.058 -180.00 1.45868 0.09
8 0 1 2 o 270.021 271.823 -71.27 1.43060 0.27
8 3 0 2 o 39.887 47.058 -180.00 1.45868 0.04
4 5 2 1 o 48.809 49.833 157.31 1.42428 0.09
8 1 1 1 o 11.434 11.661 14.42 1.42316 0.04
4 5 2 2 o 49.014 49.833 157.31 1.42428 0.05
8 1 1 2 o 11.426 11.661 14.42 1.42316 0.02
5 4 2 1 o 5.264 5.275 -138.14 1.40516 0.01
5 7 1 1 o 32.864 23.285 -84.80 1.44141 0.07
5 4 2 2 o 6.042 5.275 -138.14 1.40516 0.01
6 6 1 1 o 59.752 55.374 -97.03 1.43212 0.15
5 7 1 2 o 31.181 23.285 -84.80 1.44141 0.03
6 2 2 1 o 60.993 50.138 -173.77 1.38963 0.13
3 6 2 2 o 10.249 11.081 -123.47 1.41007 0.01
6 6 1 2 o 55.781 55.374 -97.03 1.43212 0.07
6 2 2 2 o 62.127 50.138 -173.77 1.38963 0.07
3 6 2 1 o 9.813 11.081 -123.47 1.41007 0.02
8 2 1 1 o 79.226 68.202 109.71 1.40152 0.29
3 9 0 1 o 2.106 2.239 0.00 1.45167 0.00
8 2 1 2 o 82.744 68.202 109.71 1.40152 0.15
3 9 0 2 o 2.741 2.239 0.00 1.45167 0.00
6 7 0 1 o 0.948 0.933 0.00 1.42940 0.00
1 9 1 1 o 13.348 11.848 -108.71 1.43403 0.02
6 7 0 2 o 0.888 0.933 0.00 1.42940 0.00
1 9 1 2 o 12.262 11.848 -108.71 1.43403 0.01
4 8 1 1 o 16.920 17.718 -79.13 1.41628 0.03
4 8 1 2 o 16.727 17.718 -79.13 1.41628 0.02
5 8 0 1 o 11.976 12.397 -180.00 1.42361 0.01
8 4 0 1 o 0.786 0.842 -180.00 1.40603 0.00
1 7 2 1 o 11.362 9.528 65.19 1.39137 0.02
7 5 1 1 o 28.797 23.536 -123.94 1.39033 0.08
5 8 0 2 o 12.130 12.397 -180.00 1.42361 0.01
8 4 0 2 o 0.951 0.842 -180.00 1.40603 0.00
1 7 2 2 o 12.331 9.528 65.19 1.39137 0.01
6 3 2 1 o 14.631 16.160 -148.27 1.35649 0.03
7 5 1 2 o 30.852 23.536 -123.94 1.39033 0.04
6 3 2 2 o 11.688 16.160 -148.27 1.35649 0.01
7 6 0 1 o 2.356 1.993 0.00 1.40173 0.00
7 6 0 2 o 2.481 1.993 0.00 1.40173 0.00
2 9 1 1 o 34.658 36.293 73.43 1.40560 0.05
8 3 1 1 o 27.385 46.445 57.82 1.36754 0.09
2 9 1 2 o 42.768 36.293 73.43 1.40560 0.03
2 7 2 1 o 1.977 3.265 85.08 1.36536 0.00
8 3 1 2 o 29.884 46.445 57.82 1.36754 0.05
2 7 2 2 o 2.283 3.265 85.08 1.36536 0.00
5 5 2 1 o 17.310 23.048 -135.88 1.34526 0.03
0 0 3 1 o 197.136 177.505 -71.43 1.31014 0.06
5 5 2 2 o 23.817 23.048 -135.88 1.34526 0.02
0 10 0 1 o 0.617 0.478 180.00 1.39720 0.00
4 6 2 1 o 7.710 15.717 65.65 1.34925 0.01
0 0 3 2 o 202.058 177.505 -71.43 1.31014 0.03
0 10 0 2 o 0.564 0.478 180.00 1.39720 0.00
4 6 2 2 o 10.933 15.717 65.65 1.34925 0.01
4 9 0 1 o 26.072 19.062 -180.00 1.38556 0.02
1 10 0 1 o 41.464 30.816 -180.00 1.38825 0.03
4 9 0 2 o 21.405 19.062 -180.00 1.38556 0.01
9 1 0 1 o 1.847 2.055 180.00 1.35882 0.00
1 10 0 2 o 40.708 30.816 -180.00 1.38825 0.01
1 1 3 1 o 10.658 12.232 137.73 1.29713 0.01
9 1 0 2 o 1.974 2.055 180.00 1.35882 0.00
1 1 3 2 o 10.107 12.232 137.73 1.29713 0.01
2 0 3 1 o 17.329 18.898 -175.26 1.28133 0.01
6 4 2 1 o 124.629 113.644 -174.16 1.31384 0.23
7 1 2 1 o 12.878 11.361 -88.76 1.30346 0.03
2 0 3 2 o 17.665 18.898 -175.26 1.28133 0.01
6 4 2 2 o 126.815 113.644 -174.16 1.31384 0.12
3 9 1 1 o 58.220 82.017 174.10 1.36176 0.09
6 7 1 1 o 13.048 14.117 17.64 1.34332 0.03
7 1 2 2 o 11.392 11.361 -88.76 1.30346 0.01
3 9 1 2 o 79.136 82.017 174.10 1.36176 0.06
8 5 0 1 o 13.483 20.463 0.00 1.34603 0.02
6 7 1 2 o 17.439 14.117 17.64 1.34332 0.02
9 2 0 1 o 259.537 211.385 0.00 1.33995 0.52
1 2 3 1 o 19.997 21.790 -151.76 1.28068 0.02
3 7 2 1 o 1.751 2.187 174.55 1.32507 0.00
0 2 3 1 o 38.860 47.215 103.01 1.28770 0.02
8 5 0 2 o 20.444 20.463 0.00 1.34603 0.02
2 10 0 1 o 0.019 0.029 0.00 1.36241 0.00
9 2 0 2 o 240.325 211.385 0.00 1.33995 0.24
8 4 1 1 o 124.008 144.367 55.35 1.32387 0.35
1 2 3 2 o 20.459 21.790 -151.76 1.28068 0.01
3 7 2 2 o 2.028 2.187 174.55 1.32507 0.00
0 2 3 2 o 42.037 47.215 103.01 1.28770 0.01
2 10 0 2 o 0.027 0.029 0.00 1.36241 0.00
2 1 3 1 o 98.585 101.716 19.99 1.27598 0.12
8 4 1 2 o 138.975 144.367 55.35 1.32387 0.19
5 8 1 1 o 24.417 19.317 -89.31 1.33852 0.04
2 1 3 2 o 107.888 101.716 19.99 1.27598 0.07
5 8 1 2 o 19.582 19.317 -89.31 1.33852 0.02
7 2 2 1 o 58.881 69.947 -60.50 1.28677 0.12
7 6 1 1 o 21.952 22.575 152.67 1.32028 0.05
7 2 2 2 o 63.430 69.947 -60.50 1.28677 0.06
7 6 1 2 o 24.041 22.575 152.67 1.32028 0.03
2 2 3 1 o 21.575 22.362 -171.73 1.26031 0.03
6 8 0 1 o 6.838 12.033 -180.00 1.32889 0.01
2 2 3 2 o 21.946 22.362 -171.73 1.26031 0.01
9 3 0 1 o 2.961 2.601 0.00 1.31016 0.01
6 8 0 2 o 9.325 12.033 -180.00 1.32889 0.00
9 1 1 1 o 17.110 19.001 -88.53 1.28424 0.06
0 8 2 2 o 117.051 101.560 90.95 1.30547 0.04
7 7 0 1 o 44.035 42.526 0.00 1.31815 0.05
9 3 0 2 o 3.114 2.601 0.00 1.31016 0.00
5 6 2 1 o 9.752 10.641 141.95 1.28151 0.02
9 1 1 2 o 17.397 19.001 -88.53 1.28424 0.03
0 8 2 1 o 122.790 101.560 90.95 1.30547 0.08
3 1 3 1 o 118.811 116.327 -128.81 1.24291 0.14
7 7 0 2 o 47.682 42.526 0.00 1.31815 0.03
1 8 2 1 o 150.523 174.625 -19.26 1.29816 0.19
5 6 2 2 o 9.744 10.641 141.95 1.28151 0.01
3 1 3 2 o 109.645 116.327 -128.81 1.24291 0.07
1 3 3 1 o 3.763 3.823 115.51 1.25460 0.00
1 8 2 2 o 137.087 174.625 -19.26 1.29816 0.09
7 3 2 1 o 27.071 28.236 82.50 1.26032 0.05
3 10 0 1 o 15.759 17.083 180.00 1.32238 0.01
1 3 3 2 o 3.788 3.823 115.51 1.25460 0.00
4 9 1 1 o 152.446 126.814 -121.84 1.30674 0.22
6 5 2 1 o 2.396 2.404 -21.34 1.26448 0.00
7 3 2 2 o 27.750 28.236 82.50 1.26032 0.03
3 10 0 2 o 17.264 17.083 180.00 1.32238 0.01
4 9 1 2 o 155.239 126.814 -121.84 1.30674 0.11
0 10 1 1 o 537.493 488.551 -97.66 1.31649 0.34
5 9 0 1 o 0.050 0.043 0.00 1.31250 0.00
6 5 2 2 o 2.285 2.404 -21.34 1.26448 0.00
4 7 2 1 o 6.969 6.777 -13.85 1.27422 0.01
0 10 1 2 o 552.867 488.551 -97.66 1.31649 0.17
5 9 0 2 o 0.051 0.043 0.00 1.31250 0.00
4 7 2 2 o 7.734 6.777 -13.85 1.27422 0.01
2 3 3 1 o 49.619 56.978 -41.71 1.23543 0.06
9 2 1 1 o 76.978 68.923 59.87 1.26827 0.23
1 10 1 1 o 173.536 150.267 137.14 1.30900 0.22
3 2 3 2 o 0.976 1.008 73.88 1.22842 0.00
8 5 1 1 o 100.307 93.457 122.33 1.27342 0.24
2 3 3 2 o 50.297 56.978 -41.71 1.23543 0.03
1 10 1 2 o 185.396 150.267 137.14 1.30900 0.12
9 2 1 2 o 69.873 68.923 59.87 1.26827 0.11
2 8 2 1 o 37.859 41.044 -79.68 1.27696 0.05
8 5 1 2 o 107.604 93.457 122.33 1.27342 0.13
3 2 3 1 o 0.944 1.008 73.88 1.22842 0.00
2 8 2 2 o 43.269 41.044 -79.68 1.27696 0.03
8 6 0 1 o 275.473 297.344 -180.00 1.28217 0.34
8 6 0 2 o 267.866 297.344 -180.00 1.28217 0.16
9 4 0 1 o 409.102 353.273 -180.00 1.27161 0.62
4 0 3 1 o 21.649 22.108 134.52 1.20512 0.01
0 4 3 1 o 232.277 241.240 171.07 1.22670 0.13
2 10 1 1 o 19.967 25.112 107.64 1.28727 0.03
9 4 0 2 o 403.112 353.273 -180.00 1.27161 0.31
4 0 3 2 o 19.885 22.108 134.52 1.20512 0.01
0 4 3 2 o 233.745 241.240 171.07 1.22670 0.06
2 10 1 2 o 23.146 25.112 107.64 1.28727 0.01
1 4 3 1 o 127.468 127.228 -32.62 1.22063 0.14
7 4 2 1 o 145.992 150.721 -70.84 1.22589 0.25
1 4 3 2 o 137.700 127.228 -32.62 1.22063 0.07
9 3 1 1 o 81.246 77.999 25.48 1.24293 0.22
7 4 2 2 o 145.862 150.721 -70.84 1.22589 0.13
4 1 3 1 o 19.073 21.823 115.58 1.20066 0.02
9 3 1 2 o 72.375 77.999 25.48 1.24293 0.10
7 7 1 1 o 13.105 12.713 -111.64 1.24974 0.02
3 3 3 1 o 19.517 19.883 146.79 1.20535 0.02
3 8 2 1 o 2.278 2.117 38.72 1.24382 0.00
4 1 3 2 o 18.012 21.823 115.58 1.20066 0.01
6 8 1 1 o 12.878 13.368 -88.97 1.25888 0.02
8 0 2 1 o 64.837 49.923 -63.45 1.21018 0.06
7 7 1 2 o 14.252 12.713 -111.64 1.24974 0.01
3 8 2 2 o 2.024 2.117 38.72 1.24382 0.00
3 3 3 2 o 17.798 19.883 146.79 1.20535 0.01
6 8 1 2 o 13.308 13.368 -88.97 1.25888 0.01
4 10 0 1 o 0.020 0.018 0.00 1.27183 0.00
8 0 2 2 o 54.927 49.923 -63.45 1.21018 0.03
8 1 2 1 o 5.169 5.207 15.54 1.20567 0.01
4 10 0 2 o 0.020 0.018 0.00 1.27183 0.00
2 4 3 1 o 11.442 12.690 72.10 1.20295 0.01
8 1 2 2 o 4.661 5.207 15.54 1.20567 0.00
4 2 3 1 o 7.028 8.519 -124.99 1.18758 0.01
1 11 0 1 o 14.744 15.613 0.00 1.26345 0.01
2 4 3 2 o 10.901 12.690 72.10 1.20295 0.01
4 2 3 2 o 7.372 8.519 -124.99 1.18758 0.00
1 11 0 2 o 14.586 15.613 0.00 1.26345 0.00
3 10 1 1 o 13.588 14.218 -49.93 1.25334 0.02
5 9 1 1 o 17.164 15.356 28.42 1.24492 0.02
10 0 0 1 o 17.034 18.479 0.00 1.22877 0.02
3 10 1 2 o 14.314 14.218 -49.93 1.25334 0.01
8 2 2 1 o 33.404 40.405 -178.55 1.19242 0.06
6 6 2 1 o 12.925 9.433 76.39 1.21110 0.02
5 9 1 2 o 15.413 15.356 28.42 1.24492 0.01
5 7 2 1 o 15.261 13.716 -29.33 1.21670 0.02
10 0 0 2 o 18.016 18.479 0.00 1.22877 0.01
8 2 2 2 o 32.782 40.405 -178.55 1.19242 0.03
6 6 2 2 o 11.249 9.433 76.39 1.21110 0.01
5 7 2 2 o 17.463 13.716 -29.33 1.21670 0.01
8 6 1 1 o 326.684 313.254 -25.45 1.21895 0.66
10 1 0 1 o 6.109 6.356 -180.00 1.22404 0.01
7 8 0 1 o 9.516 10.953 0.00 1.23809 0.01
9 5 0 1 o 332.122 339.786 180.00 1.22671 0.43
8 6 1 2 o 357.369 313.254 -25.45 1.21895 0.36
7 8 0 2 o 8.978 10.953 0.00 1.23809 0.00
10 1 0 2 o 6.196 6.356 -180.00 1.22404 0.01
9 4 1 1 o 33.039 24.165 -59.51 1.20987 0.08
6 9 0 1 o 11.291 13.377 -180.00 1.23716 0.01
9 5 0 2 o 324.279 339.786 180.00 1.22671 0.21
9 4 1 2 o 25.839 24.165 -59.51 1.20987 0.03
3 4 3 1 o 1.396 1.390 166.34 1.17512 0.00
6 9 0 2 o 11.055 13.377 -180.00 1.23716 0.00
2 11 0 1 o 0.948 0.861 -180.00 1.24388 0.00
1 5 3 1 o 27.727 29.510 152.38 1.18075 0.03
4 3 3 1 o 6.811 6.679 126.82 1.16669 0.01
3 4 3 2 o 1.466 1.390 166.34 1.17512 0.00
2 11 0 2 o 0.815 0.861 -180.00 1.24388 0.00
1 9 2 1 o 18.993 13.580 -27.18 1.21226 0.02
1 5 3 2 o 29.171 29.510 152.38 1.18075 0.01
4 8 2 1 o 10.064 11.552 -0.01 1.20148 0.01
4 3 3 2 o 7.016 6.679 126.82 1.16669 0.00
10 2 0 1 o 0.232 0.165 180.00 1.21019 0.00
1 9 2 2 o 18.420 13.580 -27.18 1.21226 0.01
4 8 2 2 o 9.277 11.552 -0.01 1.20148 0.01
8 7 0 1 o 38.817 35.604 0.00 1.21727 0.04
7 5 2 1 o 64.566 76.924 122.49 1.18551 0.10
10 2 0 2 o 0.181 0.165 180.00 1.21019 0.00
5 1 3 1 o 53.832 50.005 63.60 1.15218 0.06
8 3 2 1 o 55.298 51.796 -42.72 1.17129 0.10
8 7 0 2 o 44.273 35.604 0.00 1.21727 0.02
7 5 2 2 o 68.944 76.924 122.49 1.18551 0.05
5 1 3 2 o 44.200 50.005 63.60 1.15218 0.03
8 3 2 2 o 53.743 51.796 -42.72 1.17129 0.05
2 5 3 1 o 58.916 57.574 -128.64 1.16473 0.06
2 9 2 1 o 206.178 255.953 -77.63 1.19494 0.22
2 5 3 2 o 64.250 57.574 -128.64 1.16473 0.03
5 10 0 1 o 1.317 1.074 0.00 1.21462 0.00
10 0 1 1 o 25.339 23.952 136.96 1.17279 0.04
4 10 1 1 o 25.361 17.223 156.11 1.21005 0.03
5 2 3 1 o 19.282 25.002 95.41 1.14060 0.02
2 9 2 2 o 209.260 255.953 -77.63 1.19494 0.11
5 10 0 2 o 1.615 1.074 0.00 1.21462 0.00
10 0 1 2 o 25.586 23.952 136.96 1.17279 0.02
4 10 1 2 o 18.623 17.223 156.11 1.21005 0.01
5 2 3 2 o 21.171 25.002 95.41 1.14060 0.01
10 3 0 1 o 3.130 4.009 0.00 1.18811 0.00
3 11 0 1 o 0.000 0.000 0.00 1.21319 0.00
10 3 0 2 o 3.340 4.009 0.00 1.18811 0.00
3 11 0 2 o 0.000 0.000 0.00 1.21319 0.00
4 4 3 1 o 3.202 3.955 -100.82 1.13922 0.00
10 1 1 1 o 6.366 6.082 123.28 1.16868 0.02
10 1 1 2 o 6.072 6.082 123.28 1.16868 0.01
9 5 1 1 o 180.814 166.301 34.37 1.17100 0.39
4 4 3 2 o 3.466 3.955 -100.82 1.13922 0.00
9 5 1 2 o 171.509 166.301 34.37 1.17100 0.18
1 11 1 1 o 77.459 90.946 -177.37 1.20283 0.08
3 5 3 1 o 7.538 9.412 -125.52 1.13941 0.01
7 8 1 1 o 14.230 15.249 -134.84 1.18089 0.02
1 11 1 2 o 76.696 90.946 -177.37 1.20283 0.04
3 5 3 2 o 8.181 9.412 -125.52 1.13941 0.00
7 8 1 2 o 15.329 15.249 -134.84 1.18089 0.01
9 6 0 1 o 73.203 72.854 -180.00 1.17779 0.08
3 9 2 1 o 35.393 34.785 19.40 1.16765 0.04
6 9 1 1 o 14.554 15.052 108.66 1.18008 0.02
10 2 1 1 o 53.427 41.994 -61.64 1.15661 0.14
6 7 2 1 o 15.194 11.972 -68.89 1.15596 0.02
9 6 0 2 o 72.484 72.854 -180.00 1.17779 0.04
3 9 2 2 o 34.701 34.785 19.40 1.16765 0.02
8 4 2 1 o 64.967 99.102 -168.82 1.14350 0.11
6 9 1 2 o 14.940 15.052 108.66 1.18008 0.01
5 3 3 2 o 4.485 5.111 -42.60 1.12206 0.00
10 2 1 2 o 50.772 41.994 -61.64 1.15661 0.07
1 6 3 1 o 65.045 75.714 -92.49 1.13694 0.06
6 7 2 2 o 14.110 11.972 -68.89 1.15596 0.01
0 6 3 1 o 253.461 355.140 -132.09 1.14183 0.12
8 4 2 2 o 74.979 99.102 -168.82 1.14350 0.06
1 6 3 2 o 70.609 75.714 -92.49 1.13694 0.03
5 3 3 1 o 4.908 5.111 -42.60 1.12206 0.01
0 6 3 2 o 287.818 355.140 -132.09 1.14183 0.07
2 11 1 1 o 12.995 16.073 100.63 1.18591 0.01
8 7 1 1 o 33.015 30.926 -131.33 1.16278 0.06
5 8 2 1 o 26.906 22.913 -6.81 1.15290 0.03
2 11 1 2 o 14.101 16.073 100.63 1.18591 0.01
7 6 2 1 o 1.865 2.532 -10.27 1.14119 0.00
8 7 1 2 o 38.488 30.926 -131.33 1.16278 0.03
5 8 2 2 o 21.522 22.913 -6.81 1.15290 0.01
10 4 0 1 o 70.364 54.761 -180.00 1.15914 0.09
6 0 3 1 o 2.385 2.800 178.10 1.10363 0.00
7 6 2 2 o 2.098 2.532 -10.27 1.14119 0.00
10 4 0 2 o 71.038 54.761 -180.00 1.15914 0.05
6 0 3 2 o 2.201 2.800 178.10 1.10363 0.00
6 1 3 1 o 7.214 9.212 -40.35 1.10020 0.01
9 1 2 1 o 24.270 28.243 156.17 1.11767 0.04
2 6 3 1 o 47.670 48.466 67.98 1.12261 0.05
10 3 1 1 o 45.072 53.070 -63.21 1.13729 0.11
6 1 3 2 o 7.666 9.212 -40.35 1.10020 0.00
9 1 2 2 o 25.092 28.243 156.17 1.11767 0.02
4 11 0 1 o 37.121 35.753 0.00 1.17380 0.02
2 6 3 2 o 42.520 48.466 67.98 1.12261 0.02
5 10 1 1 o 2.196 1.792 -144.94 1.16047 0.00
10 3 1 2 o 48.748 53.070 -63.21 1.13729 0.06
7 9 0 1 o 9.402 8.911 180.00 1.16290 0.01
4 11 0 2 o 39.817 35.753 0.00 1.17380 0.01
5 10 1 2 o 2.369 1.792 -144.94 1.16047 0.00
7 9 0 2 o 11.203 8.911 180.00 1.16290 0.00
0 12 0 1 o 281.505 283.446 0.00 1.16433 0.07
8 8 0 1 o 471.728 381.467 180.00 1.15338 0.40
9 2 2 1 o 76.353 74.674 -154.61 1.10709 0.14
4 5 3 1 o 34.917 34.839 -101.89 1.10660 0.04
3 11 1 1 o 20.801 15.807 -62.57 1.15922 0.02
0 12 0 2 o 326.207 283.446 0.00 1.16433 0.04
6 2 3 2 o 3.191 3.249 -58.27 1.09011 0.00
8 8 0 2 o 380.511 381.467 180.00 1.15338 0.16
9 2 2 2 o 65.687 74.674 -154.61 1.10709 0.06
3 11 1 2 o 20.944 15.807 -62.57 1.15922 0.01
4 5 3 2 o 29.594 34.839 -101.89 1.10660 0.02
5 4 3 1 o 11.181 13.501 -69.17 1.09756 0.01
9 6 1 1 o 149.956 116.688 -55.33 1.12822 0.28
4 9 2 1 o 47.468 48.198 20.21 1.13241 0.05
6 10 0 1 o 12.057 9.355 0.00 1.15418 0.01
1 12 0 1 o 510.401 386.788 0.00 1.15914 0.25
6 2 3 1 o 3.154 3.249 -58.27 1.09011 0.00
0 10 2 1 o 168.114 207.078 38.04 1.13873 0.08
5 4 3 2 o 11.695 13.501 -69.17 1.09756 0.01
9 6 1 2 o 138.506 116.688 -55.33 1.12822 0.13
3 6 3 1 o 0.470 0.614 -49.49 1.09989 0.00
4 9 2 2 o 57.617 48.198 20.21 1.13241 0.03
8 5 2 1 o 40.387 39.300 -74.09 1.11052 0.06
6 10 0 2 o 10.117 9.355 0.00 1.15418 0.00
1 12 0 2 o 511.510 386.788 0.00 1.15914 0.13
0 10 2 2 o 180.206 207.078 38.04 1.13873 0.04
8 5 2 2 o 41.077 39.300 -74.09 1.11052 0.03
3 6 3 2 o 0.510 0.614 -49.49 1.09989 0.00
1 10 2 1 o 67.876 72.815 -12.56 1.13388 0.07
1 10 2 2 o 77.345 72.815 -12.56 1.13388 0.04
10 4 1 1 o 31.875 31.609 -49.75 1.11180 0.07
10 5 0 1 o 6.129 5.319 -180.00 1.12482 0.01
9 3 2 1 o 102.594 104.823 -145.89 1.09012 0.18
10 4 1 2 o 33.400 31.609 -49.75 1.11180 0.04
10 5 0 2 o 4.935 5.319 -180.00 1.12482 0.00
9 3 2 2 o 102.653 104.823 -145.89 1.09012 0.09
9 7 0 2 o 457.498 418.991 -180.00 1.12689 0.21
2 10 2 1 o 21.392 25.427 -63.77 1.11966 0.02
2 12 0 1 o 17.385 31.454 180.00 1.14397 0.01
9 7 0 1 o 548.758 418.991 -180.00 1.12689 0.52
11 1 0 1 o 20.518 22.174 180.00 1.11351 0.03
6 3 3 1 o 16.249 17.246 62.83 1.07389 0.02
2 10 2 2 o 20.998 25.427 -63.77 1.11966 0.01
2 12 0 2 o 22.429 31.454 180.00 1.14397 0.01
11 1 0 2 o 23.081 22.174 180.00 1.11351 0.02
6 3 3 2 o 16.720 17.246 62.83 1.07389 0.01
6 8 2 1 o 0.123 0.168 179.21 1.10083 0.00
1 7 3 1 o 100.819 103.591 -160.80 1.09095 0.09
7 7 2 1 o 8.150 9.518 -149.90 1.09470 0.01
7 9 1 1 o 4.333 5.131 -7.31 1.11512 0.01
4 11 1 1 o 12.896 11.201 143.85 1.12471 0.01
6 8 2 2 o 0.139 0.168 179.21 1.10083 0.00
1 7 3 2 o 101.682 103.591 -160.80 1.09095 0.05
7 7 2 2 o 9.029 9.518 -149.90 1.09470 0.01
5 11 0 1 o 0.046 0.038 -180.00 1.12838 0.00
7 9 1 2 o 5.114 5.131 -7.31 1.11512 0.00
4 11 1 2 o 10.208 11.201 143.85 1.12471 0.01
11 2 0 1 o 9.678 12.793 0.00 1.10305 0.01
8 8 1 1 o 61.144 57.620 -12.34 1.10671 0.09
5 11 0 2 o 0.043 0.038 -180.00 1.12838 0.00
5 5 3 1 o 6.687 6.275 -5.07 1.06830 0.01
2 7 3 1 o 11.836 11.173 95.38 1.07828 0.01
11 2 0 2 o 9.180 12.793 0.00 1.10305 0.01
8 8 1 2 o 48.057 57.620 -12.34 1.10671 0.04
5 5 3 2 o 6.316 6.275 -5.07 1.06830 0.00
2 7 3 2 o 10.872 11.173 95.38 1.07828 0.01
4 6 3 1 o 3.735 3.719 -142.42 1.07029 0.00
3 10 2 1 o 2.111 2.537 -143.89 1.09712 0.00
6 10 1 1 o 42.983 39.333 70.41 1.10742 0.05
5 9 2 1 o 26.291 27.039 -162.17 1.09146 0.03
7 1 3 1 o 7.296 6.507 -36.16 1.04700 0.01
4 6 3 2 o 4.003 3.719 -142.42 1.07029 0.00
3 10 2 2 o 2.165 2.537 -143.89 1.09712 0.00
6 10 1 2 o 35.644 39.333 70.41 1.10742 0.02
3 12 0 1 o 4.897 5.928 0.00 1.11996 0.00
5 9 2 2 o 26.698 27.039 -162.17 1.09146 0.01
7 1 3 2 o 7.271 6.507 -36.16 1.04700 0.00
8 6 2 1 o 4.511 4.882 -158.35 1.07383 0.01
3 12 0 2 o 4.783 5.928 0.00 1.11996 0.00
0 12 1 1 o 115.236 141.494 -143.34 1.11638 0.05
10 5 1 1 o 81.065 70.193 -66.65 1.08141 0.17
9 4 2 1 o 62.729 57.602 83.84 1.06761 0.10
6 4 3 1 o 24.324 25.553 -17.14 1.05235 0.03
11 1 1 1 o 40.949 42.927 -17.44 1.07134 0.10
8 6 2 2 o 4.707 4.882 -158.35 1.07383 0.00
0 12 1 2 o 128.853 141.494 -143.34 1.11638 0.03
10 5 1 2 o 76.011 70.193 -66.65 1.08141 0.08
9 4 2 2 o 56.292 57.602 83.84 1.06761 0.05
6 4 3 2 o 27.197 25.553 -17.14 1.05235 0.02
11 3 0 1 o 22.154 22.895 180.00 1.08625 0.03
11 1 1 2 o 46.727 42.927 -17.44 1.07134 0.06
1 12 1 1 o 64.503 62.110 143.15 1.11180 0.06
3 7 3 1 o 2.349 5.898 -26.28 1.05810 0.00
11 3 0 2 o 24.891 22.895 180.00 1.08625 0.02
9 7 1 1 o 149.265 135.242 -2.18 1.08325 0.25
10 6 0 1 o 0.238 0.246 -180.00 1.08675 0.00
1 12 1 2 o 67.279 62.110 143.15 1.11180 0.03
3 7 3 2 o 3.288 5.898 -26.28 1.05810 0.00
9 7 1 2 o 156.033 135.242 -2.18 1.08325 0.13
10 6 0 2 o 0.259 0.246 -180.00 1.08675 0.00
7 2 3 1 o 23.700 22.103 98.90 1.03829 0.03
8 9 0 1 o 11.197 11.575 0.00 1.09187 0.01
7 10 0 1 o 8.043 9.035 0.00 1.09319 0.01
7 2 3 2 o 22.776 22.103 98.90 1.03829 0.01
8 9 0 2 o 11.543 11.575 0.00 1.09187 0.00
7 10 0 2 o 9.104 9.035 0.00 1.09319 0.00
11 2 1 1 o 6.899 8.895 -118.97 1.06202 0.02
2 12 1 1 o 8.971 11.104 86.16 1.09839 0.01
10 0 2 1 o 56.689 51.985 147.10 1.04187 0.05
11 2 1 2 o 4.330 8.895 -118.97 1.06202 0.01
2 12 1 2 o 9.152 11.104 86.16 1.09839 0.00
10 0 2 2 o 55.938 51.985 147.10 1.04187 0.03
10 1 2 1 o 70.962 65.771 117.40 1.03899 0.13
5 11 1 1 o 28.550 28.029 30.66 1.08457 0.03
4 10 2 1 o 6.857 5.986 101.09 1.06773 0.01
10 1 2 2 o 70.126 65.771 117.40 1.03899 0.06
5 11 1 2 o 33.319 28.029 30.66 1.08457 0.02
9 8 0 1 o 56.968 58.794 0.00 1.07564 0.05
5 6 3 1 o 1.619 1.557 -103.25 1.03552 0.00
4 10 2 2 o 6.032 5.986 101.09 1.06773 0.00
4 12 0 1 o 4.676 4.703 0.00 1.08875 0.00
0 8 3 1 o 54.125 47.188 -119.39 1.04804 0.02
11 4 0 1 o 13.499 14.659 0.00 1.06398 0.02
7 3 3 1 o 12.911 18.408 -112.30 1.02424 0.02
9 8 0 2 o 51.747 58.794 0.00 1.07564 0.02
5 6 3 2 o 1.368 1.557 -103.25 1.03552 0.00
4 12 0 2 o 4.486 4.703 0.00 1.08875 0.00
11 4 0 2 o 10.595 14.659 0.00 1.06398 0.01
0 8 3 2 o 54.488 47.188 -119.39 1.04804 0.01
6 11 0 1 o 1.998 1.767 180.00 1.07942 0.00
9 5 2 1 o 25.361 23.536 -141.91 1.04062 0.04
7 3 3 2 o 17.065 18.408 -112.30 1.02424 0.01
6 5 3 1 o 11.503 20.122 112.22 1.02647 0.01
1 8 3 1 o 90.173 78.908 165.81 1.04425 0.08
10 2 2 1 o 6.387 9.555 111.67 1.03047 0.01
7 8 2 1 o 23.326 20.023 101.27 1.04754 0.03
6 11 0 2 o 1.795 1.767 180.00 1.07942 0.00
11 3 1 1 o 11.964 10.238 141.34 1.04700 0.03
9 5 2 2 o 25.726 23.536 -141.91 1.04062 0.02
6 5 3 2 o 14.516 20.122 112.22 1.02647 0.01
1 8 3 2 o 86.142 78.908 165.81 1.04425 0.04
10 2 2 2 o 5.386 9.555 111.67 1.03047 0.00
7 8 2 2 o 23.146 20.023 101.27 1.04754 0.01
1 11 2 1 o 7.209 8.681 17.00 1.06276 0.01
4 7 3 1 o 2.454 3.245 -155.63 1.03166 0.00
11 3 1 2 o 11.779 10.238 141.34 1.04700 0.01
10 6 1 1 o 51.786 44.034 96.98 1.04745 0.10
3 12 1 1 o 15.958 15.518 66.95 1.07709 0.02
6 9 2 1 o 4.409 3.738 155.45 1.04697 0.00
1 11 2 2 o 4.895 8.681 17.00 1.06276 0.00
4 7 3 2 o 1.892 3.245 -155.63 1.03166 0.00
2 8 3 1 o 16.600 18.506 118.23 1.03311 0.01
3 12 1 2 o 14.084 15.518 66.95 1.07709 0.01
10 6 1 2 o 51.147 44.034 96.98 1.04745 0.05
6 9 2 2 o 4.327 3.738 155.45 1.04697 0.00
8 7 2 1 o 8.569 8.311 103.35 1.03483 0.01
2 8 3 2 o 12.098 18.506 118.23 1.03311 0.01
8 9 1 1 o 63.824 60.995 -95.47 1.05203 0.09
2 11 2 1 o 9.717 9.134 -63.79 1.05103 0.01
8 7 2 2 o 6.720 8.311 103.35 1.03483 0.00
1 13 0 1 o 60.217 61.425 0.00 1.07068 0.03
7 10 1 1 o 29.752 30.787 -77.52 1.05321 0.04
8 9 1 2 o 67.935 60.995 -95.47 1.05203 0.05
2 11 2 2 o 10.625 9.134 -63.79 1.05103 0.00
1 13 0 2 o 72.862 61.425 0.00 1.07068 0.02
10 3 2 1 o 66.923 62.822 127.03 1.01674 0.12
7 10 1 2 o 33.017 30.787 -77.52 1.05321 0.02
8 0 3 1 o 41.150 37.262 55.63 0.99678 0.03
10 7 0 1 o 63.408 53.339 -180.00 1.04638 0.06
7 4 3 1 o 27.708 21.665 143.40 1.00551 0.03
10 3 2 2 o 75.577 62.822 127.03 1.01674 0.07
8 0 3 2 o 39.409 37.262 55.63 0.99678 0.01
10 7 0 2 o 61.642 53.339 -180.00 1.04638 0.03
8 1 3 1 o 32.057 30.326 172.50 0.99426 0.04
7 4 3 2 o 24.036 21.665 143.40 1.00551 0.01
3 8 3 1 o 9.825 8.606 71.50 1.01533 0.01
11 4 1 1 o 6.627 13.126 -128.36 1.02701 0.01
8 1 3 2 o 27.926 30.326 172.50 0.99426 0.02
9 8 1 1 o 39.036 34.803 99.88 1.03749 0.06
11 5 0 1 o 46.897 41.794 0.00 1.03725 0.05
5 10 2 1 o 15.140 16.547 -6.75 1.03321 0.02
2 13 0 1 o 0.015 0.054 0.00 1.05869 0.00
3 8 3 2 o 11.108 8.606 71.50 1.01533 0.01
11 4 1 2 o 8.093 13.126 -128.36 1.02701 0.01
9 8 1 2 o 36.796 34.803 99.88 1.03749 0.03
11 5 0 2 o 43.740 41.794 0.00 1.03725 0.02
5 10 2 2 o 10.348 16.547 -6.75 1.03321 0.01
2 13 0 2 o 0.016 0.054 0.00 1.05869 0.00
0 0 4 1 o 3.362 3.974 -161.74 0.98261 0.00
8 2 3 1 o 40.940 49.168 25.97 0.98679 0.05
5 12 0 1 o 24.189 22.600 0.00 1.05221 0.01
12 0 0 1 o 27.814 41.917 180.00 1.02397 0.02
4 12 1 1 o 1.398 1.234 -81.54 1.04924 0.00
0 0 4 2 o 3.602 3.974 -161.74 0.98261 0.00
6 11 1 1 o 13.874 12.856 -42.77 1.04088 0.02
3 11 2 1 o 30.120 37.277 -21.47 1.03232 0.03
5 12 0 2 o 25.115 22.600 0.00 1.05221 0.01
8 2 3 2 o 40.850 49.168 25.97 0.98679 0.03
9 6 2 1 o 12.214 8.992 32.35 1.01025 0.02
12 0 0 2 o 42.081 41.917 180.00 1.02397 0.01
6 6 3 1 o 28.310 25.343 28.12 0.99730 0.03
12 1 0 1 o 24.249 23.971 0.00 1.02123 0.03
4 12 1 2 o 1.487 1.234 -81.54 1.04924 0.00
5 7 3 1 o 40.293 38.704 54.72 1.00042 0.04
6 11 1 2 o 14.454 12.856 -42.77 1.04088 0.01
3 11 2 2 o 20.353 37.277 -21.47 1.03232 0.01
1 1 4 1 o 22.062 21.662 -58.62 0.97708 0.02
9 6 2 2 o 12.165 8.992 32.35 1.01025 0.01
12 1 0 2 o 23.318 23.971 0.00 1.02123 0.02
6 6 3 2 o 27.674 25.343 28.12 0.99730 0.01
10 4 2 1 o 7.495 6.779 47.59 0.99841 0.01
5 7 3 2 o 43.083 38.704 54.72 1.00042 0.02
2 0 4 1 o 20.087 15.279 -5.52 0.97028 0.01
1 1 4 2 o 26.079 21.662 -58.62 0.97708 0.01
8 10 0 1 o 1.650 1.709 0.00 1.03355 0.00
10 4 2 2 o 7.621 6.779 47.59 0.99841 0.01
2 1 4 1 o 6.882 5.494 96.25 0.96795 0.01
2 0 4 2 o 18.993 15.279 -5.52 0.97028 0.00
8 10 0 2 o 1.035 1.709 0.00 1.03355 0.00
3 13 0 1 o 1.190 1.100 180.00 1.03958 0.00
10 7 1 1 o 27.393 19.884 81.57 1.01116 0.05
2 1 4 2 o 6.084 5.494 96.25 0.96795 0.00
1 2 4 1 o 18.839 14.196 -133.36 0.96999 0.02
7 5 3 1 o 6.317 7.666 -3.69 0.98286 0.01
9 9 0 1 o 6.941 14.258 180.00 1.02523 0.01
12 2 0 1 o 24.883 19.264 -180.00 1.01315 0.03
0 2 4 1 o 8.385 6.503 -45.97 0.97303 0.00
3 13 0 2 o 1.255 1.100 180.00 1.03958 0.00
10 7 1 2 o 27.133 19.884 81.57 1.01116 0.02
8 3 3 2 o 39.299 29.830 176.72 0.97471 0.03
1 2 4 2 o 17.564 14.196 -133.36 0.96999 0.01
7 5 3 2 o 6.823 7.666 -3.69 0.98286 0.00
9 9 0 2 o 12.752 14.258 180.00 1.02523 0.00
12 2 0 2 o 26.510 19.264 -180.00 1.01315 0.02
7 11 0 1 o 14.503 30.117 -180.00 1.02904 0.01
4 8 3 1 o 8.754 9.535 -97.83 0.99190 0.01
0 2 4 2 o 8.648 6.503 -45.97 0.97303 0.00
11 5 1 1 o 8.459 7.880 -86.03 1.00292 0.02
8 3 3 1 o 36.145 29.830 176.72 0.97471 0.05
2 2 4 1 o 3.340 3.726 14.85 0.96105 0.00
1 13 1 1 o 10.483 11.512 -152.03 1.03304 0.01
1 9 3 1 o 6.574 5.859 -168.46 0.99794 0.01
7 11 0 2 o 13.056 30.117 -180.00 1.02904 0.00
7 9 2 1 o 3.626 3.610 90.97 1.00081 0.00
4 8 3 2 o 7.325 9.535 -97.83 0.99190 0.00
11 5 1 2 o 8.042 7.880 -86.03 1.00292 0.01
1 13 1 2 o 6.582 11.512 -152.03 1.03304 0.00
2 2 4 2 o 2.964 3.726 14.85 0.96105 0.00
1 9 3 2 o 6.603 5.859 -168.46 0.99794 0.00
7 9 2 2 o 4.027 3.610 90.97 1.00081 0.00
8 8 2 1 o 31.885 28.747 123.16 0.99472 0.04
12 0 1 1 o 25.341 30.833 52.62 0.99090 0.03
4 11 2 1 o 4.934 3.612 85.85 1.00773 0.00
11 6 0 1 o 0.495 0.358 0.00 1.00717 0.00
8 8 2 2 o 27.313 28.747 123.16 0.99472 0.02
12 0 1 2 o 24.286 30.833 52.62 0.99090 0.02
12 1 1 1 o 0.722 0.922 46.34 0.98841 0.00
4 11 2 2 o 4.843 3.612 85.85 1.00773 0.00
2 9 3 1 o 5.385 6.752 101.18 0.98821 0.00
11 6 0 2 o 0.463 0.358 0.00 1.00717 0.00
1 3 4 1 o 1.318 1.696 131.46 0.95851 0.00
5 12 1 1 o 30.616 28.327 145.06 1.01642 0.03
12 3 0 1 o 2.283 2.210 0.00 1.00009 0.00
12 1 1 2 o 0.753 0.922 46.34 0.98841 0.00
2 9 3 2 o 5.542 6.752 101.18 0.98821 0.00
2 13 1 1 o 2.576 2.603 179.57 1.02226 0.00
6 10 2 1 o 29.884 26.338 -131.19 0.99523 0.03
11 1 2 1 o 5.121 3.883 116.68 0.96880 0.01
5 12 1 2 o 35.610 28.327 145.06 1.01642 0.02
12 3 0 2 o 2.519 2.210 0.00 1.00009 0.00
10 5 2 1 o 1.480 1.379 131.40 0.97623 0.00
2 13 1 2 o 2.524 2.603 179.57 1.02226 0.00
10 8 0 1 o 12.106 9.054 0.00 1.00496 0.01
6 10 2 2 o 26.367 26.338 -131.19 0.99523 0.01
11 1 2 2 o 4.477 3.883 116.68 0.96880 0.00
10 5 2 2 o 1.777 1.379 131.40 0.97623 0.00
12 2 1 1 o 18.772 21.851 8.34 0.98108 0.05
10 8 0 2 o 9.084 9.054 0.00 1.00496 0.00
8 10 1 1 o 21.086 19.819 20.22 0.99957 0.03
4 13 0 1 o 24.649 20.356 0.00 1.01447 0.01
12 2 1 2 o 19.846 21.851 8.34 0.98108 0.02
8 10 1 2 o 22.866 19.819 20.22 0.99957 0.01
8 4 3 1 o 12.897 16.800 -25.54 0.95852 0.02
6 12 0 1 o 40.005 28.957 180.00 1.01218 0.02
9 7 2 1 o 1.649 1.740 -138.92 0.97758 0.00
4 13 0 2 o 28.529 20.356 0.00 1.01447 0.01
0 12 2 1 o 14.630 15.318 38.65 1.00172 0.01
6 7 3 1 o 1.361 1.221 -95.20 0.96582 0.00
1 12 2 1 o 28.914 25.640 -96.82 0.99841 0.03
3 9 3 1 o 5.965 4.415 143.15 0.97261 0.01
9 9 1 1 o 39.628 42.633 -8.79 0.99203 0.06
6 12 0 2 o 40.345 28.957 180.00 1.01218 0.01
9 7 2 2 o 2.086 1.740 -138.92 0.97758 0.00
0 12 2 2 o 16.627 15.318 38.65 1.00172 0.00
6 7 3 2 o 1.256 1.221 -95.20 0.96582 0.00
1 12 2 2 o 29.749 25.640 -96.82 0.99841 0.01
7 11 1 1 o 7.310 6.336 21.89 0.99549 0.01
3 9 3 2 o 6.100 4.415 143.15 0.97261 0.00
9 9 1 2 o 30.221 42.633 -8.79 0.99203 0.02
11 2 2 1 o 13.208 14.016 99.20 0.96189 0.03
7 11 1 2 o 6.549 6.336 21.89 0.99549 0.00
3 13 1 1 o 16.669 12.170 114.41 1.00502 0.02
5 8 3 1 o 10.735 10.280 174.87 0.96403 0.01
11 2 2 2 o 10.992 14.016 99.20 0.96189 0.01
2 12 2 1 o 5.715 7.675 -6.21 0.98866 0.01
12 4 0 1 o 7.508 9.601 180.00 0.98262 0.01
12 3 1 1 o 11.979 8.745 126.29 0.96920 0.03
3 13 1 2 o 11.995 12.170 114.41 1.00502 0.01
11 6 1 1 o 0.648 0.563 -150.21 0.97565 0.00
5 8 3 2 o 9.464 10.280 174.87 0.96403 0.00
2 12 2 2 o 6.266 7.675 -6.21 0.98866 0.00
12 4 0 2 o 8.541 9.601 180.00 0.98262 0.01
12 3 1 2 o 10.420 8.745 126.29 0.96920 0.01
11 6 1 2 o 0.762 0.563 -150.21 0.97565 0.00
5 11 2 1 o 20.253 22.787 -175.23 0.97855 0.02
0 14 0 1 o 237.326 207.210 0.00 0.99800 0.05
10 8 1 1 o 7.404 5.484 68.53 0.97364 0.01
5 11 2 2 o 24.699 22.787 -175.23 0.97855 0.01
0 14 0 2 o 241.344 207.210 0.00 0.99800 0.03
1 14 0 1 o 45.007 39.357 0.00 0.99472 0.02
10 8 1 2 o 7.683 5.484 68.53 0.97364 0.01
1 14 0 2 o 38.045 39.357 0.00 0.99472 0.01
11 7 0 1 o 4.922 3.848 0.00 0.97479 0.00
11 7 0 2 o 5.335 3.848 0.00 0.97479 0.00
6 12 1 1 o 15.551 17.438 42.61 0.98020 0.02
3 12 2 1 o 8.327 6.045 -113.78 0.97304 0.01
9 10 0 1 o 3.070 3.015 0.00 0.97649 0.00
2 14 0 1 o 0.179 0.223 0.00 0.98509 0.00
6 12 1 2 o 15.364 17.438 42.61 0.98020 0.01
5 13 0 1 o 26.256 33.183 180.00 0.98472 0.01
3 12 2 2 o 8.584 6.045 -113.78 0.97304 0.00
8 11 0 1 o 5.697 6.475 0.00 0.97884 0.00
8 11 0 2 o 6.631 6.475 0.00 0.97884 0.00
9 10 0 2 o 4.081 3.015 0.00 0.97649 0.00
2 14 0 2 o 0.169 0.223 0.00 0.98509 0.00
4 13 1 1 o 2.592 3.423 134.98 0.98228 0.00
5 13 0 2 o 25.156 33.183 180.00 0.98472 0.01
12 5 0 1 o 5.841 6.585 -180.00 0.96145 0.01
4 13 1 2 o 3.068 3.423 134.98 0.98228 0.00
12 5 0 2 o 4.676 6.585 -180.00 0.96145 0.00
10 9 0 1 o 0.086 0.083 -180.00 0.96349 0.00
7 12 0 1 o 18.331 12.760 -180.00 0.97029 0.01
10 9 0 2 o 0.073 0.083 -180.00 0.96349 0.00
7 12 0 2 o 17.198 12.760 -180.00 0.97029 0.01
3 14 0 1 o 8.317 5.783 -180.00 0.96963 0.00
0 14 1 1 o 229.434 178.810 144.82 0.96730 0.10
3 14 0 2 o 7.343 5.783 -180.00 0.96963 0.00
0 14 1 2 o 182.576 178.810 144.82 0.96730 0.04
1 14 1 1 o 40.057 38.731 -140.32 0.96432 0.04
1 14 1 2 o 36.951 38.731 -140.32 0.96432 0.02
