#------------------------------------------------------------------------------
#$Date: 2019-06-12 07:25:17 +0300 (Wed, 12 Jun 2019) $
#$Revision: 215867 $
#$URL: file:///home/coder/svn-repositories/cod/cif/2/02/16/2021665.cif $
#------------------------------------------------------------------------------
#
# This file is available in the Crystallography Open Database (COD),
# http://www.crystallography.net/. The original data for this entry
# were provided by IUCr Journals, http://journals.iucr.org/.
#
# The file may be used within the scientific community so long as
# proper attribution is given to the journal article from which the
# data were obtained.
#
data_2021665
loop_
_publ_author_name
'Casti\~neiras, Alfonso'
'Garc\'ia-Santos, Isabel'
'Saa, Manuel'
_publ_section_title
;
 Design and synthesis of methyl
 2-{[4-phenyl-5-(pyridin-2-yl)-4<i>H</i>-1,2,4-triazol-3-yl]sulfanyl}acetate
 (phpy2NS) as a ligand for complexes of Group 12 elements: structural
 assessment and hydrogen-bonded supramolecular assembly analysis
;
_journal_coeditor_code           LG3239
_journal_issue                   7
_journal_name_full               'Acta Crystallographica Section C'
_journal_page_first
;
;
_journal_paper_doi               10.1107/S205322961900682X
_journal_volume                  75
_journal_year                    2019
_chemical_formula_iupac          '[Hg Cl2 (C16 H14 N4 O2 S)]'
_chemical_formula_moiety         'C16 H14 Cl2 Hg N4 O2 S'
_chemical_formula_sum            'C16 H14 Cl2 Hg N4 O2 S'
_chemical_formula_weight         597.86
_chemical_name_systematic
;Dichlorido(methyl
2-{[4-phenyl-5-(pyridin-2-yl)-4<i>H</i>-1,2,4-triazol-3-yl-\k</i>^2^<i>N</i>^1^,<i>N</i>^5^]sulfanyl}acetato)mercury(II)
;
_space_group_crystal_system      triclinic
_space_group_IT_number           2
_space_group_name_Hall           '-P 1'
_space_group_name_H-M_alt        'P -1'
_symmetry_space_group_name_Hall  '-P 1'
_symmetry_space_group_name_H-M   'P -1'
_atom_sites_solution_hydrogens   difmap
_atom_sites_solution_primary     direct
_atom_sites_solution_secondary   difmap
_audit_creation_method           SHELXL-2013
_cell_angle_alpha                105.050(3)
_cell_angle_beta                 95.083(3)
_cell_angle_gamma                115.081(2)
_cell_formula_units_Z            2
_cell_length_a                   8.5198(3)
_cell_length_b                   9.4709(3)
_cell_length_c                   13.9682(7)
_cell_measurement_reflns_used    1863
_cell_measurement_temperature    100(2)
_cell_measurement_theta_max      23.317
_cell_measurement_theta_min      2.515
_cell_volume                     960.04(7)
_computing_cell_refinement
;
APEX2 (Bruker, 2005)
;
_computing_data_collection
;
APEX2 (Bruker, 2005)
;
_computing_data_reduction
;
APEX2 (Bruker, 2005)
;
_computing_molecular_graphics
;
PLATON (Spek, 2009)
;
_computing_publication_material
;
SHELXL2013 (Sheldrick, 2015b)
;
_computing_structure_refinement
;
SHELXL2013 (Sheldrick, 2015b)
;
_computing_structure_solution
;
SHELXS2013 (Sheldrick, 2015a)
;
_diffrn_ambient_temperature      100(2)
_diffrn_measured_fraction_theta_full 0.999
_diffrn_measured_fraction_theta_max 0.998
_diffrn_measurement_device_type  'Bruker X8 KappaAPEXII CCD'
_diffrn_measurement_method       'omega and phi scans'
_diffrn_radiation_type           MoK\a
_diffrn_radiation_wavelength     0.71073
_diffrn_reflns_av_R_equivalents  0.0521
_diffrn_reflns_av_unetI/netI     0.0372
_diffrn_reflns_limit_h_max       10
_diffrn_reflns_limit_h_min       -10
_diffrn_reflns_limit_k_max       11
_diffrn_reflns_limit_k_min       -11
_diffrn_reflns_limit_l_max       17
_diffrn_reflns_limit_l_min       0
_diffrn_reflns_number            21983
_diffrn_reflns_theta_full        25.242
_diffrn_reflns_theta_max         26.011
_diffrn_reflns_theta_min         1.550
_diffrn_source                   'fine-focus sealed tube'
_exptl_absorpt_coefficient_mu    8.421
_exptl_absorpt_correction_T_max  1.000
_exptl_absorpt_correction_T_min  0.656
_exptl_absorpt_correction_type   multi-scan
_exptl_absorpt_process_details   SADABS
_exptl_crystal_colour            Colourless
_exptl_crystal_density_diffrn    2.068
_exptl_crystal_description       prism
_exptl_crystal_F_000             568
_exptl_crystal_size_max          0.080
_exptl_crystal_size_mid          0.040
_exptl_crystal_size_min          0.030
_refine_diff_density_max         1.830
_refine_diff_density_min         -1.155
_refine_ls_extinction_method     none
_refine_ls_goodness_of_fit_ref   1.040
_refine_ls_hydrogen_treatment    constr
_refine_ls_matrix_type           full
_refine_ls_number_parameters     236
_refine_ls_number_reflns         3765
_refine_ls_number_restraints     0
_refine_ls_restrained_S_all      1.040
_refine_ls_R_factor_all          0.0352
_refine_ls_R_factor_gt           0.0279
_refine_ls_shift/su_max          0.002
_refine_ls_shift/su_mean         0.000
_refine_ls_structure_factor_coef Fsqd
_refine_ls_weighting_details
'w=1/[\s^2^(Fo^2^)+(0.0212P)^2^+3.2485P] where P=(Fo^2^+2Fc^2^)/3'
_refine_ls_weighting_scheme      calc
_refine_ls_wR_factor_gt          0.0576
_refine_ls_wR_factor_ref         0.0598
_reflns_number_gt                3341
_reflns_number_total             3765
_reflns_threshold_expression     'I > 2\s(I)'
_cod_data_source_file            lg3239sup1.cif
_cod_data_source_block           Compound_4
_cod_database_code               2021665
_shelx_space_group_comment
;
The symmetry employed for this shelxl refinement is uniquely defined
by the following loop, which should always be used as a source of
symmetry information in preference to the above space-group names.
They are only intended as comments.
;
_shelx_estimated_absorpt_t_min   0.552
_shelx_estimated_absorpt_t_max   0.786
_shelx_hkl_file
;
   1   0   0   22.52    0.38
   2   0   0  253.76    2.48
   3   0   0  207.18    2.35
   4   0   0   24.92    0.75
   5   0   0  112.81    1.75
   6   0   0   25.74    1.13
   7   0   0   55.13    2.19
   8   0   0   31.76    2.21
   9   0   0    1.46    1.53
  -9   1   0   47.86    2.85
  -8   1   0    6.46    1.13
  -7   1   0   10.71    0.99
  -6   1   0   58.01    1.51
  -5   1   0    5.18    0.43
  -4   1   0  124.07    1.64
  -3   1   0   21.77    0.43
  -2   1   0   63.20    0.68
  -1   1   0  415.13    3.16
   0   1   0   13.89    0.30
   1   1   0  465.35    4.72
   2   1   0  614.17    6.68
   3   1   0   19.50    0.81
   4   1   0  280.93    4.04
   5   1   0   17.80    0.92
   6   1   0   11.90    1.09
   7   1   0   40.20    2.05
   8   1   0   -0.47    1.18
  -9   2   0    0.02    1.07
  -8   2   0   44.11    1.87
  -7   2   0   77.27    1.96
  -6   2   0    9.14    0.68
  -5   2   0   76.51    1.20
  -4   2   0   46.23    0.77
  -3   2   0    4.05    0.23
  -2   2   0   53.53    0.62
  -1   2   0    2.99    0.19
   0   2   0  420.06    4.58
   1   2   0  409.13    4.67
   2   2   0   13.57    0.65
   3   2   0  322.59    4.83
   4   2   0   23.49    1.19
   5   2   0   86.54    2.35
   6   2   0   41.40    1.75
   7   2   0    0.04    0.98
   8   2   0   21.51    2.31
 -10   3   0    0.41    1.26
  -9   3   0   59.29    2.48
  -8   3   0   59.78    2.05
  -7   3   0   43.64    1.19
  -6   3   0  176.97    2.34
  -5   3   0    4.51    0.42
  -4   3   0   74.12    1.05
  -3   3   0  110.18    1.31
  -2   3   0   33.25    0.55
  -1   3   0  136.88    1.64
   0   3   0   43.65    0.98
   1   3   0  169.23    2.63
   2   3   0  123.11    2.49
   3   3   0   13.44    1.00
   4   3   0  123.83    2.85
   5   3   0   49.69    2.45
   6   3   0   -0.58    1.09
   7   3   0   25.43    2.32
 -10   4   0   27.98    2.00
  -9   4   0   28.37    1.84
  -8   4   0   11.99    1.09
  -7   4   0  167.38    2.55
  -6   4   0   14.54    0.70
  -5   4   0  116.57    1.68
  -4   4   0  189.76    2.38
  -3   4   0   11.31    0.42
  -2   4   0  153.84    2.00
  -1   4   0   57.18    1.17
   0   4   0  130.47    2.39
   1   4   0  228.82    3.76
   2   4   0    0.42    0.52
   3   4   0  196.67    3.78
   4   4   0   67.84    2.45
   5   4   0   28.30    1.77
   6   4   0   64.84    3.24
 -10   5   0    8.32    1.48
  -9   5   0    2.01    1.07
  -8   5   0   87.30    2.40
  -7   5   0    1.65    0.55
  -6   5   0  130.98    1.98
  -5   5   0  240.83    3.10
  -4   5   0   15.26    0.61
  -3   5   0  153.59    2.18
  -2   5   0   66.48    1.27
  -1   5   0  138.59    2.11
   0   5   0  178.79    3.20
   1   5   0    3.33    0.77
   2   5   0  201.79    4.26
   3   5   0   66.27    2.17
   4   5   0   80.23    2.79
   5   5   0  114.66    3.47
   6   5   0    0.57    1.48
 -10   6   0    3.08    1.56
  -9   6   0   21.72    2.05
  -8   6   0    1.15    1.05
  -7   6   0   83.15    2.56
  -6   6   0   65.95    1.79
  -5   6   0   51.94    1.16
  -4   6   0  138.60    2.21
  -3   6   0   24.86    0.83
  -2   6   0   80.94    1.50
  -1   6   0  111.01    2.12
   0   6   0    0.40    0.57
   1   6   0   70.14    1.96
   2   6   0   49.40    1.95
   3   6   0   52.16    2.39
   4   6   0   84.16    3.10
   5   6   0    0.18    1.40
 -10   7   0    9.71    2.04
  -9   7   0    2.27    1.26
  -8   7   0   29.16    1.77
  -7   7   0    8.26    1.15
  -6   7   0   97.93    2.66
  -5   7   0  101.56    1.89
  -4   7   0    3.36    0.58
  -3   7   0  139.65    2.38
  -2   7   0   39.82    1.41
  -1   7   0   30.03    1.25
   0   7   0   66.50    1.99
   1   7   0   10.40    1.16
   2   7   0   17.83    1.63
   3   7   0   52.07    2.72
   4   7   0    0.51    1.21
  -9   8   0   21.84    1.78
  -8   8   0   15.78    1.53
  -7   8   0   25.08    1.81
  -6   8   0   61.89    2.73
  -5   8   0   -0.68    0.59
  -4   8   0  192.08    3.64
  -3   8   0   15.27    1.14
  -2   8   0   64.73    1.94
  -1   8   0   79.75    2.27
   0   8   0   -0.21    0.74
   1   8   0   33.54    1.94
   2   8   0   23.75    1.80
   3   8   0    6.42    1.55
  -9   9   0   10.94    1.55
  -8   9   0   13.62    1.62
  -7   9   0   30.13    2.14
  -6   9   0    2.21    1.20
  -5   9   0   91.75    2.67
  -4   9   0   47.87    2.05
  -3   9   0   39.29    2.02
  -2   9   0  136.08    3.34
  -1   9   0    3.41    1.02
   0   9   0   88.32    3.24
   1   9   0   25.17    2.08
  -8  10   0   10.91    1.76
  -7  10   0    0.89    1.37
  -6  10   0   32.64    1.75
  -5  10   0   26.84    1.76
  -4  10   0   24.75    1.79
  -3  10   0  110.19    3.37
  -2  10   0    0.90    1.01
  -1  10   0   77.85    3.52
  -6  11   0    2.75    1.54
  -5  11   0   19.13    1.71
  -4  11   0   25.14    2.00
  -3  11   0    0.74    1.20
   3 -11   1    8.78    1.50
   4 -11   1   45.48    2.51
   5 -11   1    3.03    1.12
   6 -11   1   21.42    2.21
   7 -11   1   17.06    2.12
   0 -10   1   70.56    3.45
   1 -10   1   14.30    1.85
   2 -10   1   32.74    2.05
   3 -10   1   98.81    3.13
   4 -10   1    1.92    1.03
   5 -10   1   60.18    2.24
   6 -10   1   56.81    2.83
   7 -10   1   10.10    1.65
   8 -10   1   27.17    2.09
  -2  -9   1    0.99    1.25
  -1  -9   1   72.56    3.05
   0  -9   1   11.46    1.52
   1  -9   1   67.25    2.44
   2  -9   1   85.41    2.53
   3  -9   1    9.90    1.17
   4  -9   1   51.91    2.00
   5  -9   1   52.95    1.88
   6  -9   1   26.02    1.93
   7  -9   1   71.75    2.86
   8  -9   1    6.30    1.29
   9  -9   1   30.14    1.97
  -3  -8   1    5.62    1.30
  -2  -8   1   47.31    2.24
  -1  -8   1   10.88    1.30
   0  -8   1   38.50    1.57
   1  -8   1   47.46    1.76
   2  -8   1   20.19    1.15
   3  -8   1   49.14    1.70
   4  -8   1   28.32    1.18
   5  -8   1   17.92    1.03
   6  -8   1   66.76    2.57
   7  -8   1   10.21    1.28
   8  -8   1   31.24    1.82
   9  -8   1   36.04    2.19
  -4  -7   1   26.19    2.10
  -3  -7   1   61.78    2.71
  -2  -7   1    5.02    1.13
  -1  -7   1  139.91    3.01
   0  -7   1   21.13    1.24
   1  -7   1   12.75    0.89
   2  -7   1  137.79    2.26
   3  -7   1    9.35    0.66
   4  -7   1   69.35    1.44
   5  -7   1   34.87    1.34
   6  -7   1   12.97    0.98
   7  -7   1   28.38    1.56
   8  -7   1   42.54    1.96
   9  -7   1    0.17    1.25
  10  -7   1   34.68    2.69
  -5  -6   1   38.01    2.82
  -4  -6   1   48.93    2.54
  -3  -6   1   10.07    1.51
  -2  -6   1  123.20    3.08
  -1  -6   1  163.57    3.34
   0  -6   1   78.91    1.92
   1  -6   1  156.90    2.70
   2  -6   1    1.64    0.45
   3  -6   1  178.56    2.54
   4  -6   1   57.11    1.13
   5  -6   1    9.16    0.76
   6  -6   1  108.65    2.22
   7  -6   1    2.03    0.79
   8  -6   1   10.28    1.19
   9  -6   1   38.38    2.21
  10  -6   1    0.17    1.24
  -6  -5   1   19.29    2.29
  -5  -5   1   55.07    2.98
  -4  -5   1    1.65    1.13
  -3  -5   1   92.10    2.58
  -2  -5   1  151.36    3.30
  -1  -5   1   49.24    1.61
   0  -5   1  294.85    4.18
   1  -5   1   28.83    0.90
   2  -5   1  391.04    4.61
   3  -5   1  116.10    1.74
   4  -5   1   82.92    1.68
   5  -5   1  154.38    2.57
   6  -5   1    0.79    0.47
   7  -5   1  114.86    2.50
   8  -5   1   73.33    2.11
   9  -5   1    3.21    1.08
  10  -5   1   18.49    1.70
  -7  -4   1   23.36    2.45
  -6  -4   1   15.52    1.88
  -5  -4   1   15.81    1.82
  -4  -4   1   75.07    2.35
  -3  -4   1   31.41    1.45
  -2  -4   1   54.15    1.81
  -1  -4   1  237.04    3.50
   0  -4   1   34.47    0.95
   1  -4   1  169.12    2.13
   2  -4   1  247.10    2.55
   3  -4   1  115.72    1.87
   4  -4   1  188.89    2.43
   5  -4   1    0.25    0.30
   6  -4   1  123.69    1.89
   7  -4   1   23.42    0.97
   8  -4   1    7.35    1.12
   9  -4   1   56.55    2.34
  10  -4   1   11.27    1.58
  -7  -3   1   13.01    1.90
  -6  -3   1   23.85    2.04
  -5  -3   1   63.17    2.74
  -4  -3   1    6.30    0.88
  -3  -3   1  128.93    2.96
  -2  -3   1   50.66    1.46
  -1  -3   1    1.86    0.42
   0  -3   1  230.28    2.86
   1  -3   1  125.51    1.55
   2  -3   1   31.44    0.53
   3  -3   1  260.51    2.92
   4  -3   1    3.29    0.28
   5  -3   1   80.89    1.35
   6  -3   1   23.11    0.80
   7  -3   1   17.67    1.02
   8  -3   1   60.06    2.28
   9  -3   1    5.87    1.29
  10  -3   1   18.27    2.18
  -8  -2   1   15.97    2.04
  -7  -2   1   11.67    1.49
  -6  -2   1   93.14    3.29
  -5  -2   1    5.30    0.87
  -4  -2   1  126.12    2.93
  -3  -2   1   59.97    1.76
  -2  -2   1   44.63    1.14
  -1  -2   1  236.72    2.74
   0  -2   1   15.13    0.44
   1  -2   1  120.93    1.39
   2  -2   1  298.55    3.72
   3  -2   1    2.97    0.20
   4  -2   1  147.31    1.62
   5  -2   1   20.42    0.64
   6  -2   1   37.86    1.10
   7  -2   1   39.35    1.43
   8  -2   1   -0.36    0.84
   9  -2   1   21.09    2.13
  -8  -1   1    5.83    1.49
  -7  -1   1  104.02    3.10
  -6  -1   1    8.85    0.93
  -5  -1   1  121.01    2.34
  -4  -1   1   72.96    1.68
  -3  -1   1   97.78    1.79
  -2  -1   1  561.11    5.48
  -1  -1   1    8.17    0.33
   0  -1   1   80.50    0.80
   1  -1   1  349.63    4.97
   2  -1   1    6.35    0.22
   3  -1   1  355.77    3.28
   4  -1   1   86.66    1.28
   5  -1   1   98.51    1.62
   6  -1   1   60.00    1.57
   7  -1   1    4.49    0.89
   8  -1   1   55.36    2.44
   9  -1   1    5.65    1.62
  -9   0   1    2.10    1.52
  -8   0   1   54.89    2.46
  -7   0   1    1.12    0.81
  -6   0   1   62.71    1.54
  -5   0   1   64.44    1.36
  -4   0   1   52.39    1.10
  -3   0   1  372.92    3.66
  -2   0   1   10.28    0.34
  -1   0   1  181.66    1.60
   0   0   1  217.28    2.27
   1   0   1   84.15    0.87
   2   0   1  675.64    6.36
   3   0   1  153.63    1.92
   4   0   1   67.70    1.40
   5   0   1  127.83    2.23
   6   0   1    0.83    0.62
   7   0   1  131.08    3.39
   8   0   1    2.78    1.21
   9   0   1   33.52    2.68
  -9   1   1   33.24    2.23
  -8   1   1    1.48    0.89
  -7   1   1   67.89    1.96
  -6   1   1   60.02    1.42
  -5   1   1   14.53    0.63
  -4   1   1   96.45    1.26
  -3   1   1    4.53    0.28
  -2   1   1  529.96    3.87
  -1   1   1   60.34    0.73
   0   1   1  105.09    1.11
   1   1   1  281.49    2.90
   2   1   1   37.01    0.86
   3   1   1  107.25    1.94
   4   1   1  219.02    3.06
   5   1   1    5.99    0.54
   6   1   1  120.62    2.90
   7   1   1   12.89    1.44
   8   1   1   17.43    2.06
 -10   2   1    6.26    1.74
  -9   2   1   17.98    1.70
  -8   2   1   64.42    2.21
  -7   2   1   15.84    0.95
  -6   2   1   50.80    1.12
  -5   2   1  160.83    1.92
  -4   2   1   31.40    0.63
  -3   2   1  189.39    1.63
  -2   2   1    5.72    0.28
  -1   2   1   53.80    0.78
   0   2   1   60.55    0.92
   1   2   1   63.21    1.21
   2   2   1  344.27    4.26
   3   2   1   83.51    1.82
   4   2   1    1.28    0.53
   5   2   1   85.56    2.03
   6   2   1   18.03    1.77
   7   2   1    7.18    1.40
   8   2   1   40.58    2.89
 -10   3   1    8.55    1.58
  -9   3   1   35.64    2.20
  -8   3   1    2.13    0.86
  -7   3   1   87.33    1.66
  -6   3   1  140.81    2.07
  -5   3   1    0.70    0.31
  -4   3   1  221.33    2.40
  -3   3   1   64.13    0.91
  -2   3   1  138.94    1.48
  -1   3   1  216.71    2.46
   0   3   1   81.27    1.31
   1   3   1  161.93    2.58
   2   3   1    3.36    0.54
   3   3   1   74.06    1.81
   4   3   1   97.04    2.24
   5   3   1    2.95    0.87
   6   3   1   17.29    1.86
   7   3   1   40.98    3.33
 -10   4   1   15.79    1.74
  -9   4   1    3.41    1.16
  -8   4   1   29.29    1.51
  -7   4   1   60.09    1.61
  -6   4   1    9.51    0.59
  -5   4   1  193.27    2.58
  -4   4   1  114.41    1.84
  -3   4   1  194.81    2.48
  -2   4   1  238.85    2.61
  -1   4   1    1.61    0.37
   0   4   1  192.03    3.21
   1   4   1   12.28    0.88
   2   4   1  145.63    2.73
   3   4   1  116.05    2.52
   4   4   1    1.80    0.83
   5   4   1   51.16    2.26
   6   4   1   42.12    2.79
 -10   5   1    0.07    1.12
  -9   5   1   21.23    1.65
  -8   5   1    8.14    1.22
  -7   5   1    9.51    0.80
  -6   5   1   38.51    1.13
  -5   5   1   55.09    1.31
  -4   5   1   91.84    1.67
  -3   5   1  359.32    4.48
  -2   5   1    0.58    0.36
  -1   5   1  205.47    3.22
   0   5   1  101.75    2.14
   1   5   1   90.75    2.35
   2   5   1  107.41    2.66
   3   5   1    5.01    1.03
   4   5   1  118.57    3.43
   5   5   1   20.47    2.21
 -10   6   1   25.68    2.05
  -9   6   1    1.94    1.07
  -8   6   1   31.25    1.52
  -7   6   1   56.74    1.62
  -6   6   1    7.88    0.71
  -5   6   1   66.90    1.56
  -4   6   1   60.45    1.41
  -3   6   1    6.26    0.60
  -2   6   1  165.88    2.70
  -1   6   1   86.95    1.91
   0   6   1  110.81    2.62
   1   6   1   71.92    2.21
   2   6   1   10.09    1.15
   3   6   1   53.69    2.46
   4   6   1   15.87    1.71
   5   6   1   25.20    2.57
 -10   7   1    3.01    1.77
  -9   7   1   31.86    2.31
  -8   7   1   24.37    1.77
  -7   7   1    0.82    0.73
  -6   7   1   80.52    1.87
  -5   7   1    1.71    0.62
  -4   7   1   60.64    1.44
  -3   7   1  124.69    2.37
  -2   7   1    9.58    0.85
  -1   7   1   41.03    1.58
   0   7   1  133.46    3.15
   1   7   1   25.83    1.62
   2   7   1   33.59    2.09
   3   7   1    3.35    1.25
  -9   8   1   31.04    2.29
  -8   8   1    1.59    1.14
  -7   8   1   69.14    2.89
  -6   8   1   14.63    1.26
  -5   8   1   69.08    2.42
  -4   8   1   82.04    2.42
  -3   8   1   14.69    1.21
  -2   8   1  116.70    2.68
  -1   8   1   54.26    1.96
   0   8   1   18.15    1.37
   1   8   1   92.67    3.26
   2   8   1    8.20    1.55
  -9   9   1    1.46    1.29
  -8   9   1   47.49    2.58
  -7   9   1   18.14    1.94
  -6   9   1   33.64    1.80
  -5   9   1   16.60    1.48
  -4   9   1    2.99    1.03
  -3   9   1   73.77    2.71
  -2   9   1   40.05    1.96
  -1   9   1   32.59    2.23
   0   9   1   95.26    3.40
   1   9   1    3.58    1.32
  -8  10   1    9.37    1.82
  -7  10   1   18.94    2.21
  -6  10   1   33.83    1.95
  -5  10   1    0.73    1.07
  -4  10   1   46.52    2.36
  -3  10   1    5.81    1.33
  -2  10   1   21.83    2.14
  -1  10   1   43.15    2.99
  -6  11   1    6.84    1.40
  -5  11   1   38.38    2.33
  -4  11   1   -1.12    1.17
   2 -11   2    2.21    1.21
   3 -11   2   62.76    2.92
   4 -11   2   24.27    1.73
   5 -11   2   13.77    1.83
   6 -11   2   20.79    2.19
   7 -11   2   -0.06    1.38
   0 -10   2   43.54    2.79
   1 -10   2   -0.14    1.01
   2 -10   2   97.20    2.86
   3 -10   2   51.74    2.23
   4 -10   2   32.67    1.73
   5 -10   2   99.68    3.39
   6 -10   2    2.31    1.22
   7 -10   2   36.06    2.27
   8 -10   2   14.36    1.55
  -2  -9   2   13.00    1.75
  -1  -9   2   17.94    1.78
   0  -9   2    1.34    0.93
   1  -9   2   73.30    2.25
   2  -9   2   24.48    1.47
   3  -9   2   64.71    2.24
   4  -9   2  115.23    2.84
   5  -9   2    1.25    0.97
   6  -9   2   58.02    2.49
   7  -9   2   32.94    1.99
   8  -9   2    9.17    1.18
   9  -9   2   20.84    1.60
  -3  -8   2   58.25    2.54
  -2  -8   2   17.93    1.73
  -1  -8   2    5.02    1.03
   0  -8   2   45.86    1.76
   1  -8   2    1.67    0.71
   2  -8   2   25.69    1.43
   3  -8   2   51.22    1.65
   4  -8   2   10.98    0.72
   5  -8   2   81.95    2.56
   6  -8   2   38.67    1.90
   7  -8   2   23.98    1.52
   8  -8   2   38.09    1.81
   9  -8   2    0.22    1.14
  -4  -7   2  114.07    4.35
  -3  -7   2   32.08    2.06
  -2  -7   2   35.96    1.88
  -1  -7   2   68.42    2.04
   0  -7   2    5.18    0.75
   1  -7   2   26.12    1.16
   2  -7   2   59.11    1.56
   3  -7   2   21.37    0.92
   4  -7   2   93.66    2.00
   5  -7   2   10.43    0.80
   6  -7   2   57.51    1.60
   7  -7   2   35.58    1.59
   8  -7   2    4.21    1.03
   9  -7   2   20.68    1.94
  10  -7   2   15.31    2.02
  -5  -6   2   73.97    3.61
  -4  -6   2   42.08    2.64
  -3  -6   2   83.29    3.17
  -2  -6   2  157.56    3.41
  -1  -6   2    3.63    0.72
   0  -6   2  177.17    2.84
   1  -6   2  169.36    2.60
   2  -6   2   13.51    0.65
   3  -6   2   76.16    1.41
   4  -6   2    5.62    0.56
   5  -6   2  113.44    2.07
   6  -6   2   87.84    1.78
   7  -6   2   17.33    1.17
   8  -6   2   63.01    2.27
   9  -6   2    4.12    1.28
  10  -6   2   19.58    2.04
  -6  -5   2   24.00    2.40
  -5  -5   2   11.98    1.82
  -4  -5   2   48.34    2.53
  -3  -5   2  135.37    3.43
  -2  -5   2    0.14    0.63
  -1  -5   2  198.76    3.25
   0  -5   2  111.89    2.08
   1  -5   2   43.62    1.13
   2  -5   2  114.61    1.63
   3  -5   2   86.20    1.51
   4  -5   2  116.66    1.73
   5  -5   2  115.29    1.86
   6  -5   2    6.14    0.57
   7  -5   2  116.88    2.44
   8  -5   2    2.46    1.01
   9  -5   2   50.56    2.52
  10  -5   2   28.66    2.86
  -7  -4   2   23.21    2.42
  -6  -4   2    8.44    1.66
  -5  -4   2   30.27    2.14
  -4  -4   2   72.30    2.25
  -3  -4   2   10.76    1.08
  -2  -4   2  235.35    4.33
  -1  -4   2   62.46    1.46
   0  -4   2  166.21    2.34
   1  -4   2  308.89    3.74
   2  -4   2   25.64    0.61
   3  -4   2   80.91    1.77
   4  -4   2   57.33    1.15
   5  -4   2    3.77    0.44
   6  -4   2  148.87    2.07
   7  -4   2    9.75    0.71
   8  -4   2   45.62    1.90
   9  -4   2   34.39    1.97
  10  -4   2    4.99    1.57
  -7  -3   2   -1.53    1.14
  -6  -3   2   35.80    2.34
  -5  -3   2   44.16    2.07
  -4  -3   2   51.39    1.97
  -3  -3   2  145.26    3.14
  -2  -3   2    9.19    0.83
  -1  -3   2  432.31    5.03
   0  -3   2  137.80    1.77
   1  -3   2   32.80    0.58
   2  -3   2  198.09    4.32
   3  -3   2   13.27    0.72
   4  -3   2    4.37    0.31
   5  -3   2   58.31    1.09
   6  -3   2    7.18    0.63
   7  -3   2   13.62    1.04
   8  -3   2   15.96    1.64
   9  -3   2    5.89    1.52
  -8  -2   2    1.20    1.39
  -7  -2   2   33.68    2.00
  -6  -2   2   80.16    3.02
  -5  -2   2   21.71    1.36
  -4  -2   2  100.42    2.32
  -3  -2   2    3.27    0.57
  -2  -2   2  173.51    2.45
  -1  -2   2  406.51    4.08
   0  -2   2   94.88    1.05
   1  -2   2  850.64    7.56
   2  -2   2   16.36    0.52
   3  -2   2  155.55    1.57
   4  -2   2   67.88    0.97
   5  -2   2   17.10    0.69
   6  -2   2   60.98    1.51
   7  -2   2   14.27    1.29
   8  -2   2    3.52    1.28
   9  -2   2   20.52    2.07
  -9  -1   2    4.19    2.27
  -8  -1   2   43.95    2.57
  -7  -1   2   24.01    1.51
  -6  -1   2    2.35    0.65
  -5  -1   2  196.95    3.01
  -4  -1   2   58.17    1.37
  -3  -1   2  142.24    2.17
  -2  -1   2  108.73    1.48
  -1  -1   2  172.70    1.98
   0  -1   2  516.93    4.07
   1  -1   2   65.92    0.78
   2  -1   2  443.40    4.07
   3  -1   2  337.72    3.34
   4  -1   2   36.44    0.87
   5  -1   2  191.24    2.69
   6  -1   2   12.07    0.93
   7  -1   2    4.13    1.04
   8  -1   2   27.72    2.19
   9  -1   2    1.04    1.50
  -9   0   2   34.00    2.81
  -8   0   2    8.95    1.36
  -7   0   2   45.43    1.79
  -6   0   2   66.23    1.71
  -5   0   2   19.96    0.82
  -4   0   2   70.50    1.31
  -3   0   2   93.60    1.29
  -2   0   2  114.25    1.18
  -1   0   2  957.31    7.98
   0   0   2   10.65    0.33
   1   0   2   49.64    0.68
   2   0   2  364.45    3.34
   3   0   2   44.55    1.03
   4   0   2  358.34    4.76
   5   0   2   57.99    1.63
   6   0   2   50.75    1.82
   7   0   2   53.67    2.38
   8   0   2    4.08    1.43
  -9   1   2   -0.31    1.28
  -8   1   2   68.96    2.35
  -7   1   2   49.09    1.75
  -6   1   2   25.66    1.01
  -5   1   2  212.04    2.62
  -4   1   2   53.28    0.87
  -3   1   2   18.50    0.44
  -2   1   2  474.07    3.67
  -1   1   2    0.64    0.21
   0   1   2  509.03    4.92
   1   1   2  225.37    2.28
   2   1   2   43.87    0.89
   3   1   2  236.39    3.13
   4   1   2    4.64    0.52
   5   1   2   75.82    2.10
   6   1   2  109.72    3.08
   7   1   2    7.00    1.51
   8   1   2   20.81    2.56
 -10   2   2   -1.54    1.63
  -9   2   2   44.09    2.39
  -8   2   2   46.20    1.91
  -7   2   2   38.30    1.23
  -6   2   2  197.93    2.65
  -5   2   2    9.04    0.51
  -4   2   2  202.83    1.98
  -3   2   2   98.82    1.16
  -2   2   2   44.79    0.77
  -1   2   2  137.94    1.57
   0   2   2  133.06    1.61
   1   2   2   22.27    0.72
   2   2   2  237.03    3.42
   3   2   2   14.04    0.82
   4   2   2  144.09    2.69
   5   2   2   43.02    1.47
   6   2   2    2.17    1.16
   7   2   2   19.85    2.13
 -10   3   2   16.93    1.80
  -9   3   2   36.98    2.09
  -8   3   2   19.61    1.38
  -7   3   2  156.85    2.70
  -6   3   2    3.15    0.51
  -5   3   2  220.03    2.75
  -4   3   2  224.51    2.48
  -3   3   2    1.68    0.34
  -2   3   2  175.88    2.05
  -1   3   2   66.50    1.18
   0   3   2  254.09    3.14
   1   3   2  215.72    3.29
   2   3   2    0.60    0.52
   3   3   2  215.43    3.54
   4   3   2   32.06    1.36
   5   3   2   55.61    2.15
   6   3   2   76.97    3.34
   7   3   2    0.56    1.58
 -10   4   2    7.81    1.48
  -9   4   2    4.46    1.20
  -8   4   2   53.59    1.84
  -7   4   2    2.43    0.65
  -6   4   2  117.40    1.89
  -5   4   2  153.27    2.46
  -4   4   2   35.61    0.95
  -3   4   2  227.73    2.90
  -2   4   2   59.43    1.12
  -1   4   2  114.81    1.97
   0   4   2  134.48    2.44
   1   4   2   10.16    0.88
   2   4   2  122.15    2.72
   3   4   2   39.94    1.54
   4   4   2   69.57    2.48
   5   4   2  117.35    4.10
   6   4   2    0.40    1.41
 -10   5   2    2.07    1.50
  -9   5   2   18.53    1.69
  -8   5   2   -0.40    0.92
  -7   5   2   49.89    1.70
  -6   5   2   58.86    1.41
  -5   5   2   68.06    1.42
  -4   5   2  148.04    2.57
  -3   5   2   29.63    0.98
  -2   5   2  108.63    1.88
  -1   5   2  129.87    2.30
   0   5   2    1.55    0.63
   1   5   2  101.46    2.52
   2   5   2   95.92    2.36
   3   5   2   25.18    1.70
   4   5   2  107.53    3.31
   5   5   2    0.89    1.39
 -10   6   2   20.82    2.06
  -9   6   2   -1.98    1.03
  -8   6   2   33.76    1.67
  -7   6   2   15.37    1.24
  -6   6   2   47.51    1.43
  -5   6   2  121.88    2.10
  -4   6   2    1.34    0.47
  -3   6   2  189.86    3.02
  -2   6   2   65.76    1.67
  -1   6   2   60.56    1.79
   0   6   2   74.96    2.20
   1   6   2   39.97    1.78
   2   6   2   37.09    2.02
   3   6   2   44.71    2.33
   4   6   2    1.96    1.22
 -10   7   2    1.01    1.77
  -9   7   2   45.38    2.01
  -8   7   2   17.69    1.43
  -7   7   2   74.97    2.38
  -6   7   2   68.55    2.18
  -5   7   2    1.51    0.65
  -4   7   2  171.24    3.09
  -3   7   2   38.39    1.39
  -2   7   2  133.01    2.62
  -1   7   2  134.41    2.91
   0   7   2    1.65    0.87
   1   7   2   62.80    2.60
   2   7   2   25.51    1.96
   3   7   2    1.00    1.15
  -9   8   2    8.57    1.65
  -8   8   2   18.55    1.50
  -7   8   2   29.99    1.70
  -6   8   2    0.73    0.91
  -5   8   2  152.60    3.73
  -4   8   2   33.26    1.67
  -3   8   2   74.83    2.34
  -2   8   2  121.35    2.83
  -1   8   2    1.88    0.85
   0   8   2  124.62    3.34
   1   8   2   36.04    2.26
   2   8   2   28.90    2.26
  -9   9   2   13.54    1.89
  -8   9   2   20.23    2.05
  -7   9   2    0.83    1.00
  -6   9   2   52.01    2.34
  -5   9   2   23.39    1.74
  -4   9   2   24.67    1.81
  -3   9   2   75.78    2.88
  -2   9   2    0.40    0.93
  -1   9   2  110.64    3.62
   0   9   2   33.36    2.35
  -8  10   2    1.39    1.55
  -7  10   2   20.03    1.71
  -6  10   2    2.69    1.21
  -5  10   2    6.38    1.39
  -4  10   2   48.90    2.53
  -3  10   2    1.74    1.18
  -2  10   2   44.21    2.83
   2 -11   3   16.08    1.75
   3 -11   3   52.30    2.19
   4 -11   3   -1.03    0.83
   5 -11   3   53.89    2.79
   6 -11   3   31.92    2.28
   7 -11   3    7.65    1.66
   0 -10   3   12.82    1.81
   1 -10   3   25.85    1.87
   2 -10   3   43.35    1.94
   3 -10   3    0.09    0.78
   4 -10   3   46.85    1.91
   5 -10   3   35.92    2.09
   6 -10   3   14.50    1.59
   7 -10   3   58.23    2.57
   8 -10   3    2.31    1.07
  -2  -9   3   70.90    3.47
  -1  -9   3    1.39    1.27
   0  -9   3   41.19    2.16
   1  -9   3   61.47    2.16
   2  -9   3    4.99    0.99
   3  -9   3   45.04    1.83
   4  -9   3   27.68    1.33
   5  -9   3   39.88    1.94
   6  -9   3   43.86    2.05
   7  -9   3    6.28    1.09
   8  -9   3   32.39    1.65
   9  -9   3   34.91    2.03
  -3  -8   3   46.68    2.54
  -2  -8   3    1.89    1.14
  -1  -8   3   91.05    2.69
   0  -8   3   91.14    2.33
   1  -8   3  107.22    2.37
   2  -8   3   53.15    1.69
   3  -8   3    0.45    0.55
   4  -8   3   51.97    1.74
   5  -8   3   22.28    1.34
   6  -8   3    0.50    0.78
   7  -8   3   43.72    1.70
   8  -8   3   14.16    1.16
   9  -8   3    5.49    1.25
  -4  -7   3   45.34    2.48
  -3  -7   3    0.26    0.95
  -2  -7   3  146.18    3.41
  -1  -7   3   53.61    1.80
   0  -7   3   19.64    1.04
   1  -7   3  185.01    2.88
   2  -7   3    3.18    0.51
   3  -7   3  148.16    2.33
   4  -7   3   28.99    1.07
   5  -7   3   46.89    1.23
   6  -7   3   44.73    1.38
   7  -7   3   12.85    0.98
   8  -7   3   18.89    1.28
   9  -7   3   31.73    1.94
  10  -7   3    0.83    1.74
  -5  -6   3   26.59    2.41
  -4  -6   3    0.32    1.13
  -3  -6   3   92.15    2.60
  -2  -6   3   73.92    2.03
  -1  -6   3   53.54    1.76
   0  -6   3  206.28    3.42
   1  -6   3   35.40    1.06
   2  -6   3  270.92    3.58
   3  -6   3  132.76    2.40
   4  -6   3   33.02    0.93
   5  -6   3  109.18    4.38
   6  -6   3   12.11    0.69
   7  -6   3   41.55    1.60
   8  -6   3   53.66    2.02
   9  -6   3    5.50    1.29
  10  -6   3   22.71    2.73
  -6  -5   3   13.95    2.08
  -5  -5   3    4.27    1.42
  -4  -5   3   24.72    1.97
  -3  -5   3   18.84    1.44
  -2  -5   3   85.37    2.18
  -1  -5   3  192.66    3.13
   0  -5   3   23.00    0.91
   1  -5   3  257.55    3.23
   2  -5   3  150.34    2.29
   3  -5   3    3.45    0.36
   4  -5   3  239.18    7.12
   5  -5   3    5.30    0.64
   6  -5   3   78.48    1.57
   7  -5   3   49.07    1.78
   8  -5   3    9.07    1.24
   9  -5   3   27.56    2.52
  10  -5   3    4.04    1.93
  -7  -4   3   21.56    2.32
  -6  -4   3   18.46    2.05
  -5  -4   3   49.66    2.62
  -4  -4   3    0.84    0.83
  -3  -4   3   85.43    2.62
  -2  -4   3   40.10    1.40
  -1  -4   3   21.17    0.87
   0  -4   3  216.71    2.82
   1  -4   3  125.43    1.72
   2  -4   3  185.77    2.78
   3  -4   3  368.21    9.33
   4  -4   3   19.81    1.81
   5  -4   3   93.82    1.65
   6  -4   3   21.37    0.87
   7  -4   3   23.41    1.00
   8  -4   3   55.12    2.42
   9  -4   3    1.00    1.26
  10  -4   3   13.24    1.93
  -8  -3   3   23.70    2.90
  -7  -3   3   30.04    2.06
  -6  -3   3  112.47    3.97
  -5  -3   3    1.09    0.77
  -4  -3   3  132.42    2.90
  -3  -3   3   30.37    1.27
  -2  -3   3   88.55    1.80
  -1  -3   3  279.12    3.10
   0  -3   3    2.72    0.28
   1  -3   3  243.06    2.26
   2  -3   3  274.98    4.09
   3  -3   3    6.09    0.31
   4  -3   3  233.93    2.85
   5  -3   3   26.19    0.73
   6  -3   3   32.87    1.16
   7  -3   3   33.01    1.63
   8  -3   3   -0.42    1.00
   9  -3   3   19.37    1.97
  -8  -2   3   20.10    2.58
  -7  -2   3  104.46    3.21
  -6  -2   3    1.06    0.77
  -5  -2   3  137.10    3.03
  -4  -2   3   70.35    1.90
  -3  -2   3   52.34    1.50
  -2  -2   3  279.23    3.79
  -1  -2   3   30.18    0.68
   0  -2   3  287.13    2.54
   1  -2   3  267.06    2.25
   2  -2   3   91.33    1.18
   3  -2   3  460.25    4.17
   4  -2   3   64.12    1.20
   5  -2   3   53.73    1.27
   6  -2   3   85.61    1.97
   7  -2   3    3.78    0.98
   8  -2   3   57.25    2.77
   9  -2   3   -0.95    1.34
  -9  -1   3    4.87    1.96
  -8  -1   3   36.04    2.35
  -7  -1   3    1.60    0.85
  -6  -1   3  107.43    2.41
  -5  -1   3   60.67    1.67
  -4  -1   3    7.15    0.62
  -3  -1   3  344.46    4.07
  -2  -1   3    9.13    0.39
  -1  -1   3   49.94    0.67
   0  -1   3  118.33    1.16
   1  -1   3  128.19    1.40
   2  -1   3  412.37    3.59
   3  -1   3  120.86    1.46
   4  -1   3  170.79    2.23
   5  -1   3  204.82    3.08
   6  -1   3    0.45    0.65
   7  -1   3   94.00    2.92
   8  -1   3    5.68    1.51
   9  -1   3    5.22    1.72
  -9   0   3    3.81    1.79
  -8   0   3   12.22    1.42
  -7   0   3   75.09    2.24
  -6   0   3   45.81    1.50
  -5   0   3   50.14    1.12
  -4   0   3  310.29    3.51
  -3   0   3    9.28    0.37
  -2   0   3   27.06    0.62
  -1   0   3   25.78    0.58
   0   0   3   20.08    0.55
   1   0   3  238.34    2.27
   2   0   3    2.63    0.29
   3   0   3  192.07    2.32
   4   0   3  169.20    2.79
   5   0   3    0.41    0.56
   6   0   3  152.83    3.65
   7   0   3   51.94    2.39
   8   0   3   22.90    2.27
  -9   1   3   18.90    2.06
  -8   1   3   44.17    1.97
  -7   1   3    1.08    0.73
  -6   1   3   88.59    2.00
  -5   1   3  141.74    1.89
  -4   1   3    2.82    0.31
  -3   1   3  507.11    4.28
  -2   1   3  226.19    2.24
  -1   1   3   63.52    1.03
   0   1   3   11.35    0.49
   1   1   3   60.02    1.02
   2   1   3  119.04    1.89
   3   1   3   49.08    1.13
   4   1   3    8.83    0.65
   5   1   3  160.05    3.69
   6   1   3   13.46    1.40
   7   1   3   41.25    2.59
   8   1   3   42.46    2.98
 -10   2   3    3.45    2.01
  -9   2   3   24.44    1.87
  -8   2   3    0.15    0.83
  -7   2   3   81.32    1.95
  -6   2   3  130.33    2.20
  -5   2   3   54.09    1.01
  -4   2   3  537.97    4.85
  -3   2   3   73.26    1.07
  -2   2   3  401.53    3.72
  -1   2   3  304.18    3.13
   0   2   3   21.59    0.70
   1   2   3  283.25    3.32
   2   2   3    2.27    0.47
   3   2   3   44.40    1.36
   4   2   3   74.63    1.87
   5   2   3    6.52    0.92
   6   2   3   48.04    2.62
   7   2   3   34.76    2.61
 -10   3   3   14.92    2.06
  -9   3   3    2.02    1.11
  -8   3   3   27.30    1.44
  -7   3   3   20.65    1.02
  -6   3   3   22.97    1.08
  -5   3   3  136.34    2.06
  -4   3   3    3.95    0.42
  -3   3   3  291.52    3.14
  -2   3   3  598.38    6.20
  -1   3   3    1.45    0.44
   0   3   3  332.39    4.24
   1   3   3   12.17    0.79
   2   3   3  156.08    3.03
   3   3   3   92.43    2.16
   4   3   3    5.69    1.00
   5   3   3   40.96    2.45
   6   3   3   26.23    2.24
 -10   4   3   -0.90    1.40
  -9   4   3   11.65    1.51
  -8   4   3   14.41    1.32
  -7   4   3   15.20    0.96
  -6   4   3   38.75    1.14
  -5   4   3   13.77    0.75
  -4   4   3  105.94    1.72
  -3   4   3  143.18    2.15
  -2   4   3    1.45    0.43
  -1   4   3  409.89    5.18
   0   4   3   57.24    1.55
   1   4   3  120.52    2.45
   2   4   3  150.80    3.16
   3   4   3    5.28    0.94
   4   4   3   50.24    2.21
   5   4   3   23.85    2.25
   6   4   3   32.04    2.68
 -10   5   3   26.76    2.40
  -9   5   3    1.52    1.23
  -8   5   3   23.18    1.77
  -7   5   3    9.49    1.01
  -6   5   3    0.53    0.48
  -5   5   3   79.52    1.59
  -4   5   3   12.48    0.79
  -3   5   3   42.57    1.22
  -2   5   3  100.77    2.04
  -1   5   3   78.60    1.78
   0   5   3   71.04    2.02
   1   5   3  114.17    2.78
   2   5   3    7.87    1.07
   3   5   3   76.25    2.74
   4   5   3   17.80    1.69
   5   5   3    8.60    1.92
 -10   6   3    3.79    1.64
  -9   6   3   39.30    2.24
  -8   6   3   40.60    1.93
  -7   6   3    3.79    0.90
  -6   6   3   47.99    1.67
  -5   6   3   15.63    1.04
  -4   6   3   58.72    1.63
  -3   6   3  104.81    2.21
  -2   6   3    3.71    0.71
  -1   6   3  156.58    3.05
   0   6   3   60.76    2.12
   1   6   3   10.50    1.21
   2   6   3  114.62    3.50
   3   6   3   14.61    1.69
   4   6   3   41.56    3.01
 -10   7   3   29.16    2.32
  -9   7   3   50.54    2.24
  -8   7   3   -0.84    0.94
  -7   7   3  120.07    3.25
  -6   7   3    3.57    0.96
  -5   7   3   50.30    2.01
  -4   7   3   66.63    1.98
  -3   7   3    4.55    0.86
  -2   7   3  114.54    2.68
  -1   7   3   77.33    2.45
   0   7   3  108.27    2.99
   1   7   3   72.21    2.92
   2   7   3    1.43    1.15
   3   7   3   65.80    3.09
  -9   8   3    4.05    1.13
  -8   8   3   73.21    2.82
  -7   8   3   20.71    1.60
  -6   8   3   19.58    1.65
  -5   8   3   68.99    2.64
  -4   8   3    7.26    1.13
  -3   8   3   68.58    2.39
  -2   8   3   34.69    1.70
  -1   8   3   31.37    1.72
   0   8   3   78.17    3.07
   1   8   3    2.00    1.28
   2   8   3  102.75    4.01
  -8   9   3    4.27    1.23
  -7   9   3   43.28    2.24
  -6   9   3   29.41    2.01
  -5   9   3    9.46    1.43
  -4   9   3   47.87    2.43
  -3   9   3    8.88    1.41
  -2   9   3   15.82    1.75
  -1   9   3   33.75    2.33
   0   9   3    0.62    1.23
  -7  10   3   10.49    1.59
  -6  10   3    7.22    1.50
  -5  10   3   34.00    2.31
  -4  10   3    2.18    1.21
  -3  10   3   31.59    2.54
  -2  10   3   15.48    2.09
   2 -11   4   49.75    2.43
   3 -11   4   29.84    1.70
   4 -11   4   39.36    1.76
   5 -11   4   48.94    2.16
   6 -11   4   -0.59    0.97
   7 -11   4   37.47    2.26
  -1 -10   4   34.12    2.93
   0 -10   4    2.23    1.40
   1 -10   4   35.97    2.27
   2 -10   4   29.10    1.74
   3 -10   4   28.50    1.71
   4 -10   4   54.51    2.14
   5 -10   4    0.06    0.81
   6 -10   4   69.52    2.69
   7 -10   4   18.26    1.49
   8 -10   4    9.87    2.58
  -2  -9   4   12.92    1.85
  -1  -9   4   13.48    1.72
   0  -9   4   37.00    1.99
   1  -9   4   13.29    1.24
   2  -9   4   31.30    1.58
   3  -9   4   54.99    1.86
   4  -9   4    0.64    0.76
   5  -9   4   49.38    2.03
   6  -9   4    3.82    0.99
   7  -9   4   29.05    2.02
   8  -9   4   24.82    3.14
  -3  -8   4    9.25    1.52
  -2  -8   4   38.78    2.14
  -1  -8   4  103.88    2.82
   0  -8   4    1.51    0.71
   1  -8   4   94.46    2.38
   2  -8   4   61.96    1.63
   3  -8   4   15.09    0.80
   4  -8   4   63.51    1.98
   5  -8   4   11.04    0.83
   6  -8   4   50.98    3.60
   7  -8   4   34.65    3.13
   8  -8   4   15.56    1.57
   9  -8   4   17.80    2.32
  -4  -7   4   14.68    1.68
  -3  -7   4   44.74    2.25
  -2  -7   4   90.92    2.58
  -1  -7   4   11.68    1.10
   0  -7   4  150.82    2.83
   1  -7   4   40.40    1.30
   2  -7   4   33.44    1.01
   3  -7   4  120.28    1.97
   4  -7   4   14.41    0.73
   5  -7   4   65.02    5.53
   6  -7   4   59.83    3.60
   7  -7   4   28.95    2.71
   8  -7   4   28.96    1.88
   9  -7   4    2.70    1.48
  -5  -6   4   14.08    1.64
  -4  -6   4   47.66    2.30
  -3  -6   4   44.13    2.03
  -2  -6   4    0.97    0.68
  -1  -6   4   82.29    2.00
   0  -6   4   77.97    1.80
   1  -6   4   45.55    1.14
   2  -6   4  137.66    2.15
   3  -6   4    2.56    0.44
   4  -6   4   82.43    5.49
   5  -6   4  104.94    4.56
   6  -6   4    1.66    1.18
   7  -6   4   65.88    1.95
   8  -6   4    4.87    1.52
   9  -6   4   54.03    3.44
  -6  -5   4    0.42    1.38
  -5  -5   4   34.13    2.41
  -4  -5   4   54.09    2.20
  -3  -5   4    3.39    0.79
  -2  -5   4  116.88    2.57
  -1  -5   4   14.58    0.87
   0  -5   4  164.25    2.45
   1  -5   4   91.18    1.68
   2  -5   4   10.16    0.46
   3  -5   4   94.84    1.82
   4  -5   4   65.32    3.31
   5  -5   4    4.56    1.78
   6  -5   4   90.92    1.93
   7  -5   4   10.96    1.24
   8  -5   4   33.01    2.65
   9  -5   4   23.37    2.69
  -7  -4   4    1.79    1.47
  -6  -4   4   34.21    2.43
  -5  -4   4   33.98    2.21
  -4  -4   4   18.32    1.43
  -3  -4   4  148.88    2.98
  -2  -4   4    3.57    0.56
  -1  -4   4  135.38    2.14
   0  -4   4   92.39    1.55
   1  -4   4   23.76    0.64
   2  -4   4  140.82    1.92
   3  -4   4   11.34    1.44
   4  -4   4   29.57    0.87
   5  -4   4  113.04    2.14
   6  -4   4   20.21    0.99
   7  -4   4   16.27    1.07
   8  -4   4   14.43    1.49
   9  -4   4    0.03    1.24
  -8  -3   4    0.67    1.81
  -7  -3   4   45.19    2.36
  -6  -3   4   56.21    2.80
  -5  -3   4   14.13    1.26
  -4  -3   4  210.25    3.89
  -3  -3   4   48.25    1.36
  -2  -3   4  231.45    3.16
  -1  -3   4  117.99    1.73
   0  -3   4  184.63    1.93
   1  -3   4  594.62    5.14
   2  -3   4    0.99    0.26
   3  -3   4  180.90    2.47
   4  -3   4  128.69    1.89
   5  -3   4   16.71    0.66
   6  -3   4   71.23    1.68
   7  -3   4   13.88    1.21
   8  -3   4    4.14    1.28
   9  -3   4   21.88    2.07
  -8  -2   4   35.14    2.63
  -7  -2   4   21.24    1.66
  -6  -2   4   41.70    1.75
  -5  -2   4   90.71    2.41
  -4  -2   4   10.58    0.92
  -3  -2   4   92.70    1.83
  -2  -2   4  318.69    3.91
  -1  -2   4   52.99    0.83
   0  -2   4  376.70    3.18
   1  -2   4    9.83    0.33
   2  -2   4  274.07    2.66
   3  -2   4   41.29    0.67
   4  -2   4   28.06    0.75
   5  -2   4  229.98    3.23
   6  -2   4   13.31    0.86
   7  -2   4    9.18    1.18
   8  -2   4   30.28    2.33
   9  -2   4    1.20    1.44
  -9  -1   4   17.48    2.55
  -8  -1   4    0.51    1.27
  -7  -1   4   26.72    1.55
  -6  -1   4   67.72    1.89
  -5  -1   4    3.57    0.64
  -4  -1   4   57.35    1.42
  -3  -1   4  145.17    2.24
  -2  -1   4    5.11    0.44
  -1  -1   4  300.36    2.76
   0  -1   4  192.21    2.00
   1  -1   4  366.44    3.48
   2  -1   4  113.31    1.48
   3  -1   4   25.16    0.63
   4  -1   4  254.33    3.08
   5  -1   4    8.42    0.80
   6  -1   4   43.41    1.70
   7  -1   4   74.14    2.69
   8  -1   4   -0.28    1.24
  -9   0   4   -1.52    1.59
  -8   0   4   44.82    2.13
  -7   0   4   17.32    1.24
  -6   0   4   15.53    0.85
  -5   0   4  157.26    2.43
  -4   0   4    5.98    0.51
  -3   0   4   32.05    0.86
  -2   0   4  154.37    1.91
  -1   0   4    1.79    0.33
   0   0   4    7.20    0.46
   1   0   4  259.01    2.84
   2   0   4   27.55    0.71
   3   0   4  227.93    2.69
   4   0   4    2.70    0.54
   5   0   4   85.09    2.12
   6   0   4   38.61    1.77
   7   0   4    3.85    1.20
   8   0   4   27.41    2.46
  -9   1   4   37.07    2.72
  -8   1   4   37.28    1.83
  -7   1   4   37.05    1.58
  -6   1   4  171.81    2.69
  -5   1   4    0.71    0.36
  -4   1   4   28.30    0.87
  -3   1   4  244.64    2.58
  -2   1   4    3.46    0.41
  -1   1   4  266.21    2.96
   0   1   4  111.24    1.57
   1   1   4   10.18    0.56
   2   1   4  136.55    2.03
   3   1   4    3.55    0.54
   4   1   4  115.16    2.25
   5   1   4   81.66    2.56
   6   1   4   37.10    2.03
   7   1   4   30.81    2.17
 -10   2   4    9.70    2.44
  -9   2   4   25.28    2.28
  -8   2   4    6.66    1.08
  -7   2   4   97.59    2.16
  -6   2   4    0.59    0.50
  -5   2   4  224.87    2.66
  -4   2   4  307.16    3.42
  -3   2   4   39.75    0.98
  -2   2   4  368.90    3.90
  -1   2   4   60.93    1.28
   0   2   4   62.79    1.23
   1   2   4  296.28    3.89
   2   2   4    6.19    0.68
   3   2   4  126.52    2.48
   4   2   4   28.09    1.26
   5   2   4  106.86    3.57
   6   2   4   47.26    2.69
   7   2   4    1.59    1.47
 -10   3   4   14.07    2.58
  -9   3   4    0.54    1.37
  -8   3   4   45.92    1.99
  -7   3   4    5.50    0.87
  -6   3   4  124.24    2.23
  -5   3   4   65.09    1.46
  -4   3   4   65.05    1.25
  -3   3   4  201.55    2.50
  -2   3   4   33.92    1.12
  -1   3   4  199.32    2.89
   0   3   4  372.37    5.54
   1   3   4   24.25    1.12
   2   3   4  118.82    2.47
   3   3   4   40.56    1.72
   4   3   4   58.42    2.23
   5   3   4   73.05    3.23
   6   3   4    1.14    1.58
 -10   4   4    7.07    1.84
  -9   4   4   32.74    2.15
  -8   4   4    0.11    0.91
  -7   4   4   29.08    1.32
  -6   4   4   11.27    0.83
  -5   4   4   43.67    1.31
  -4   4   4  121.70    2.09
  -3   4   4    3.71    0.57
  -2   4   4  218.19    3.12
  -1   4   4   77.53    1.80
   0   4   4    2.77    0.64
   1   4   4  143.30    2.87
   2   4   4   85.90    2.39
   3   4   4   19.66    1.52
   4   4   4   82.77    2.86
   5   4   4   -0.51    1.27
 -10   5   4   21.43    2.33
  -9   5   4    0.22    1.21
  -8   5   4   50.91    2.29
  -7   5   4   45.06    1.80
  -6   5   4   43.43    1.41
  -5   5   4   59.58    1.63
  -4   5   4    0.58    0.59
  -3   5   4  127.55    2.31
  -2   5   4    5.86    0.71
  -1   5   4   76.22    2.01
   0   5   4  116.61    2.60
   1   5   4   28.68    1.57
   2   5   4   17.71    1.55
   3   5   4   51.58    2.42
   4   5   4   -0.41    1.31
   5   5   4   32.34    2.87
 -10   6   4    2.26    1.56
  -9   6   4   45.74    2.47
  -8   6   4   19.54    1.55
  -7   6   4   25.43    1.56
  -6   6   4  125.65    3.19
  -5   6   4    1.41    0.66
  -4   6   4  134.41    2.67
  -3   6   4   36.15    1.44
  -2   6   4  116.73    2.91
  -1   6   4   70.81    2.09
   0   6   4   -0.43    0.75
   1   6   4  138.39    3.77
   2   6   4   35.74    2.17
   3   6   4    4.16    1.30
   4   6   4   35.07    2.95
  -9   7   4    9.71    1.46
  -8   7   4   30.56    1.91
  -7   7   4   61.91    2.46
  -6   7   4    3.89    1.01
  -5   7   4  124.80    3.29
  -4   7   4   91.55    2.44
  -3   7   4   89.30    2.41
  -2   7   4  105.13    2.68
  -1   7   4    9.07    1.24
   0   7   4  157.27    4.17
   1   7   4   35.21    2.22
   2   7   4   34.27    2.36
  -9   8   4   35.45    2.12
  -8   8   4   10.27    1.47
  -7   8   4    0.74    1.05
  -6   8   4   82.03    3.04
  -5   8   4   47.34    2.36
  -4   8   4   18.57    1.55
  -3   8   4  104.92    3.08
  -2   8   4    1.51    0.96
  -1   8   4  118.08    3.71
   0   8   4   14.50    1.73
   1   8   4   47.20    2.76
  -8   9   4   10.44    1.55
  -7   9   4   39.47    2.30
  -6   9   4    2.61    1.24
  -5   9   4   30.51    2.15
  -4   9   4   42.26    2.44
  -3   9   4    1.16    1.26
  -2   9   4   51.96    2.74
  -1   9   4   14.03    1.80
  -6  10   4   41.06    2.59
  -5  10   4   27.07    2.24
  -4  10   4    5.64    1.62
  -3  10   4   44.52    3.01
   1 -11   5   12.24    2.09
   2 -11   5   24.56    2.00
   3 -11   5   -0.18    0.93
   4 -11   5   29.68    1.83
   5 -11   5   18.24    1.48
   6 -11   5    6.49    1.08
   7 -11   5   37.03    2.07
  -1 -10   5    7.58    1.83
   0 -10   5   37.13    2.76
   1 -10   5   40.36    2.33
   2 -10   5    3.22    1.01
   3 -10   5   30.84    1.59
   4 -10   5    9.12    1.19
   5 -10   5   10.09    1.04
   6 -10   5   32.69    1.43
   7 -10   5   -1.02    1.78
   8 -10   5   28.31    3.52
  -2  -9   5    2.15    1.31
  -1  -9   5   72.12    3.13
   0  -9   5   58.12    2.37
   1  -9   5    9.74    1.18
   2  -9   5   48.92    1.91
   3  -9   5    5.10    0.85
   4  -9   5   52.16    1.94
   5  -9   5   10.94    0.93
   6  -9   5    1.18    0.97
   7  -9   5   14.09    2.48
   8  -9   5   11.67    3.39
  -3  -8   5    0.32    1.20
  -2  -8   5   93.48    3.42
  -1  -8   5   92.96    2.89
   0  -8   5   97.62    2.79
   1  -8   5  125.69    3.04
   2  -8   5   15.12    0.95
   3  -8   5  126.16    2.12
   4  -8   5   36.82    1.30
   5  -8   5   15.92    0.75
   6  -8   5   35.59    3.09
   7  -8   5   -0.91    1.51
   8  -8   5   24.39    3.59
   9  -8   5   14.78    1.87
  -4  -7   5    0.58    1.04
  -3  -7   5   50.25    2.32
  -2  -7   5   31.93    1.79
  -1  -7   5   63.46    1.99
   0  -7   5  208.79    3.46
   1  -7   5   -0.03    0.44
   2  -7   5  181.70    2.80
   3  -7   5   86.12    1.94
   4  -7   5   24.21    0.87
   5  -7   5   65.65    5.66
   6  -7   5    2.68    1.17
   7  -7   5   49.93    3.26
   8  -7   5    6.58    1.40
   9  -7   5    1.73    1.54
  -5  -6   5    0.47    1.06
  -4  -6   5   35.08    2.01
  -3  -6   5    2.22    0.88
  -2  -6   5   31.27    1.49
  -1  -6   5   41.62    1.46
   0  -6   5    8.58    0.73
   1  -6   5  238.44    3.44
   2  -6   5  130.16    2.04
   3  -6   5   58.52    1.35
   4  -6   5  180.33    6.25
   5  -6   5    0.78    1.16
   6  -6   5   31.41    2.47
   7  -6   5   63.95    2.59
   8  -6   5    2.68    1.39
   9  -6   5   24.40    2.55
  -6  -5   5   24.19    2.37
  -5  -5   5   50.96    2.27
  -4  -5   5    8.33    1.14
  -3  -5   5   45.39    1.72
  -2  -5   5   29.92    1.32
  -1  -5   5    0.23    0.47
   0  -5   5  114.59    1.93
   1  -5   5    4.83    0.43
   2  -5   5   57.33    1.08
   3  -5   5  262.50    3.30
   4  -5   5    1.13    1.00
   5  -5   5   84.55    1.81
   6  -5   5   48.86    1.41
   7  -5   5    7.63    1.16
   8  -5   5   16.62    2.13
   9  -5   5    4.67    1.93
  -7  -4   5   37.33    2.80
  -6  -4   5  106.80    3.87
  -5  -4   5    6.10    1.02
  -4  -4   5  131.54    2.73
  -3  -4   5   57.76    1.67
  -2  -4   5   39.74    1.18
  -1  -4   5  147.56    2.29
   0  -4   5   15.90    0.58
   1  -4   5   75.91    1.34
   2  -4   5  175.13    2.06
   3  -4   5    3.86    0.39
   4  -4   5  200.75    3.16
   5  -4   5   32.83    1.10
   6  -4   5   50.08    1.49
   7  -4   5   75.13    2.24
   8  -4   5    0.94    1.06
   9  -4   5    8.27    1.52
  -8  -3   5   12.46    2.07
  -7  -3   5   70.67    3.33
  -6  -3   5    1.17    1.13
  -5  -3   5  167.73    3.18
  -4  -3   5   87.67    2.01
  -3  -3   5   54.02    1.55
  -2  -3   5  273.22    3.61
  -1  -3   5   33.24    0.75
   0  -3   5  133.09    1.56
   1  -3   5  125.11    1.41
   2  -3   5   42.64    0.87
   3  -3   5  422.39    4.56
   4  -3   5   34.06    0.93
   5  -3   5  126.45    1.95
   6  -3   5  109.28    2.42
   7  -3   5    6.68    1.19
   8  -3   5   59.33    2.74
   9  -3   5    1.19    1.41
  -8  -2   5   18.26    2.13
  -7  -2   5    3.10    1.32
  -6  -2   5  111.25    2.74
  -5  -2   5   86.68    2.18
  -4  -2   5   50.78    1.38
  -3  -2   5  298.11    4.13
  -2  -2   5    0.32    0.26
  -1  -2   5  176.67    1.95
   0  -2   5  184.43    1.97
   1  -2   5    9.29    0.38
   2  -2   5  288.70    3.02
   3  -2   5   10.63    0.47
   4  -2   5  118.65    1.72
   5  -2   5  131.68    2.14
   6  -2   5   13.20    1.22
   7  -2   5  168.01    5.10
   8  -2   5   13.94    1.78
   9  -2   5    8.43    1.83
  -9  -1   5    8.26    2.22
  -8  -1   5   11.08    1.73
  -7  -1   5   60.61    2.11
  -6  -1   5    2.77    0.69
  -5  -1   5   50.86    1.48
  -4  -1   5  249.71    3.69
  -3  -1   5   24.05    1.04
  -2  -1   5  182.53    2.52
  -1  -1   5  162.16    1.87
   0  -1   5   55.85    1.03
   1  -1   5   32.93    0.84
   2  -1   5   11.30    0.60
   3  -1   5   49.66    1.02
   4  -1   5  112.63    1.88
   5  -1   5    2.57    0.68
   6  -1   5  157.08    3.76
   7  -1   5    6.54    1.45
   8  -1   5   30.82    2.42
  -9   0   5    3.16    1.82
  -8   0   5   28.10    2.18
  -7   0   5    0.96    0.76
  -6   0   5   61.60    1.71
  -5   0   5  152.33    2.66
  -4   0   5  106.77    2.24
  -3   0   5  229.58    3.19
  -2   0   5   72.49    1.39
  -1   0   5  121.57    1.87
   0   0   5  337.34    3.69
   1   0   5    1.87    0.39
   2   0   5   78.83    1.29
   3   0   5   35.93    0.92
   4   0   5    3.20    0.63
   5   0   5   42.44    1.61
   6   0   5    5.54    1.16
   7   0   5   41.65    2.61
   8   0   5   45.26    3.35
  -9   1   5   26.03    2.53
  -8   1   5    3.25    0.90
  -7   1   5   38.16    1.58
  -6   1   5   70.58    2.09
  -5   1   5   44.21    1.35
  -4   1   5  292.51    3.40
  -3   1   5   19.21    0.73
  -2   1   5  306.84    3.70
  -1   1   5  302.40    3.49
   0   1   5   45.97    1.19
   1   1   5  316.69    3.88
   2   1   5   28.75    0.95
   3   1   5   39.14    1.25
   4   1   5   47.79    1.50
   5   1   5    2.42    1.07
   6   1   5   39.56    2.24
   7   1   5   23.97    2.37
 -10   2   5   20.66    2.95
  -9   2   5   -1.15    1.29
  -8   2   5   15.44    1.61
  -7   2   5   50.24    1.83
  -6   2   5    1.25    0.57
  -5   2   5  102.88    1.71
  -4   2   5   74.27    1.38
  -3   2   5  308.53    4.23
  -2   2   5  348.32    4.48
  -1   2   5   17.09    0.85
   0   2   5  488.96    5.98
   1   2   5   31.51    1.31
   2   2   5   96.73    2.14
   3   2   5  202.96    3.49
   4   2   5    4.98    0.82
   5   2   5   70.19    3.08
   6   2   5    9.12    2.00
   7   2   5   17.33    2.62
 -10   3   5    0.75    1.88
  -9   3   5   29.31    2.43
  -8   3   5    9.69    1.31
  -7   3   5   10.92    1.09
  -6   3   5   85.45    1.86
  -5   3   5    1.18    0.50
  -4   3   5  133.84    2.22
  -3   3   5  131.30    2.39
  -2   3   5   13.62    0.81
  -1   3   5  313.60    4.58
   0   3   5   34.67    1.34
   1   3   5  223.84    3.73
   2   3   5  181.05    3.78
   3   3   5    7.83    0.93
   4   3   5   58.95    2.33
   5   3   5   10.42    1.71
   6   3   5   23.28    2.85
 -10   4   5   38.61    2.87
  -9   4   5    3.62    1.40
  -8   4   5   56.80    2.35
  -7   4   5   21.03    1.20
  -6   4   5    0.21    0.59
  -5   4   5   28.78    1.19
  -4   4   5   12.17    0.82
  -3   4   5   25.03    1.21
  -2   4   5  261.08    3.71
  -1   4   5    9.03    0.91
   0   4   5  118.82    2.67
   1   4   5  103.67    2.48
   2   4   5   15.35    1.20
   3   4   5   80.19    2.78
   4   4   5   34.54    2.03
   5   4   5   28.18    2.55
 -10   5   5    5.14    1.81
  -9   5   5   52.68    2.77
  -8   5   5   40.94    2.05
  -7   5   5    3.92    0.96
  -6   5   5  134.57    2.77
  -5   5   5    4.47    0.78
  -4   5   5   72.91    1.95
  -3   5   5   52.37    1.69
  -2   5   5    0.06    0.60
  -1   5   5  140.96    2.98
   0   5   5   53.18    1.88
   1   5   5   84.24    2.59
   2   5   5  121.34    3.53
   3   5   5    8.01    1.40
   4   5   5   23.43    2.40
 -10   6   5   31.88    2.48
  -9   6   5   30.68    2.25
  -8   6   5    3.47    1.12
  -7   6   5   97.39    2.94
  -6   6   5   25.61    1.64
  -5   6   5   67.44    2.00
  -4   6   5   41.31    1.60
  -3   6   5   -0.64    0.63
  -2   6   5  110.96    2.97
  -1   6   5   31.09    1.58
   0   6   5   28.60    1.74
   1   6   5  122.59    3.66
   2   6   5   -0.62    1.04
   3   6   5  109.57    3.80
  -9   7   5    0.83    1.22
  -8   7   5   72.20    2.82
  -7   7   5    5.21    1.28
  -6   7   5   45.30    2.10
  -5   7   5   95.55    2.99
  -4   7   5   -0.23    0.76
  -3   7   5   96.75    2.70
  -2   7   5   52.11    2.24
  -1   7   5   41.18    2.30
   0   7   5   68.64    2.94
   1   7   5    3.64    1.31
   2   7   5  131.94    4.27
  -9   8   5   32.95    2.21
  -8   8   5   -0.01    1.14
  -7   8   5   36.04    2.20
  -6   8   5   36.03    2.28
  -5   8   5   14.07    1.65
  -4   8   5   56.89    2.49
  -3   8   5   16.65    1.63
  -2   8   5   30.21    2.19
  -1   8   5   37.78    2.41
   0   8   5    0.40    1.27
  -8   9   5   29.79    2.21
  -7   9   5   22.13    2.07
  -6   9   5   26.23    2.20
  -5   9   5   53.13    2.77
  -4   9   5    0.90    1.17
  -3   9   5   38.49    2.79
  -2   9   5   24.33    2.21
  -1   9   5    0.78    1.24
   1 -11   6   32.26    2.36
   2 -11   6   18.93    1.61
   3 -11   6   17.48    1.45
   4 -11   6   28.72    1.94
   5 -11   6    0.29    0.90
   6 -11   6   42.20    1.98
  -1 -10   6   14.74    2.18
   0 -10   6   23.53    2.07
   1 -10   6    7.15    1.21
   2 -10   6   44.34    1.98
   3 -10   6   34.83    1.61
   4 -10   6   -0.89    0.81
   5 -10   6   39.76    1.70
   6 -10   6   11.57    1.15
   7 -10   6   16.07    2.85
   8 -10   6   12.73    2.72
  -2  -9   6   31.70    2.40
  -1  -9   6   39.56    2.72
   0  -9   6    1.24    1.06
   1  -9   6   92.85    3.04
   2  -9   6   46.48    2.03
   3  -9   6    4.98    0.78
   4  -9   6   73.60    2.25
   5  -9   6    5.35    0.74
   6  -9   6   49.52    3.85
   7  -9   6   16.69    2.66
   8  -9   6    0.62    2.64
  -3  -8   6   33.39    2.36
  -2  -8   6   51.35    2.64
  -1  -8   6   -0.22    0.79
   0  -8   6   79.79    2.50
   1  -8   6   45.60    1.83
   2  -8   6   47.94    1.51
   3  -8   6  105.35    3.18
   4  -8   6    7.18    0.94
   5  -8   6   60.47    2.52
   6  -8   6   44.04    5.33
   7  -8   6    7.43    2.79
   8  -8   6   43.99    5.73
   9  -8   6    2.84    2.96
  -4  -7   6   22.09    1.84
  -3  -7   6   75.24    2.69
  -2  -7   6    2.34    0.90
  -1  -7   6  133.05    2.94
   0  -7   6   10.03    0.86
   1  -7   6   50.83    1.31
   2  -7   6  125.06    2.20
   3  -7   6   10.26    0.75
   4  -7   6   74.77    1.78
   5  -7   6  101.71    4.89
   6  -7   6   31.29    4.32
   7  -7   6   59.19    3.66
   8  -7   6    2.19    1.23
   9  -7   6   27.35    2.59
  -5  -6   6   42.60    2.79
  -4  -6   6   26.29    1.76
  -3  -6   6   12.28    1.28
  -2  -6   6   71.60    2.10
  -1  -6   6    0.99    0.58
   0  -6   6   92.49    1.94
   1  -6   6   53.50    1.23
   2  -6   6   19.29    0.73
   3  -6   6   71.18    1.58
   4  -6   6   68.99    3.64
   5  -6   6   11.32    2.81
   6  -6   6   48.55    1.72
   7  -6   6   15.37    1.38
   8  -6   6   25.79    2.34
   9  -6   6   12.37    2.20
  -6  -5   6   42.41    2.87
  -5  -5   6   26.44    1.74
  -4  -5   6   12.88    1.29
  -3  -5   6   83.09    2.09
  -2  -5   6   18.04    1.00
  -1  -5   6  122.07    2.16
   0  -5   6   54.56    1.19
   1  -5   6   54.83    1.15
   2  -5   6  139.59    1.97
   3  -5   6    0.97    0.41
   4  -5   6   40.50    1.12
   5  -5   6   72.65    1.59
   6  -5   6   16.38    1.28
   7  -5   6   39.73    2.68
   8  -5   6   25.38    2.53
   9  -5   6    2.05    1.73
  -7  -4   6   45.84    3.01
  -6  -4   6   18.22    2.04
  -5  -4   6   26.47    1.57
  -4  -4   6  189.98    3.42
  -3  -4   6   27.14    1.18
  -2  -4   6  115.01    2.11
  -1  -4   6  109.91    1.78
   0  -4   6   80.49    1.32
   1  -4   6  188.25    2.36
   2  -4   6    2.78    0.36
   3  -4   6  189.95    3.25
   4  -4   6   62.32    1.55
   5  -4   6   13.90    0.86
   6  -4   6   81.22    2.21
   7  -4   6    6.70    1.17
   8  -4   6    3.69    1.27
   9  -4   6   34.55    2.68
  -8  -3   6   14.79    2.20
  -7  -3   6    4.46    1.50
  -6  -3   6   23.46    2.07
  -5  -3   6   99.90    2.46
  -4  -3   6    0.90    0.53
  -3  -3   6  132.80    2.62
  -2  -3   6  185.52    2.53
  -1  -3   6    1.11    0.32
   0  -3   6  435.13    4.27
   1  -3   6   27.86    0.81
   2  -3   6  145.08    1.88
   3  -3   6   74.80    1.42
   4  -3   6   80.35    1.50
   5  -3   6  149.02    2.31
   6  -3   6   11.50    1.05
   7  -3   6   22.63    1.75
   8  -3   6   53.08    2.67
   9  -3   6   -0.72    1.34
  -8  -2   6    1.02    1.38
  -7  -2   6   21.14    1.99
  -6  -2   6   14.50    1.13
  -5  -2   6   14.28    0.92
  -4  -2   6  118.51    2.26
  -3  -2   6  176.51    3.23
  -2  -2   6   53.49    1.06
  -1  -2   6  280.13    2.98
   0  -2   6   11.05    0.49
   1  -2   6  153.55    1.93
   2  -2   6  160.81    2.18
   3  -2   6   39.13    0.98
   4  -2   6  230.43    3.00
   5  -2   6    2.60    0.59
   6  -2   6   43.40    1.92
   7  -2   6   39.46    2.32
   8  -2   6    3.62    1.47
  -9  -1   6   -0.12    1.76
  -8  -1   6   32.63    2.45
  -7  -1   6   27.77    2.11
  -6  -1   6   66.01    1.83
  -5  -1   6   37.26    1.60
  -4  -1   6    2.27    0.63
  -3  -1   6  112.09    2.38
  -2  -1   6  153.45    2.47
  -1  -1   6    7.55    0.54
   0  -1   6  295.38    3.47
   1  -1   6   26.20    0.86
   2  -1   6    1.39    0.41
   3  -1   6   86.16    1.59
   4  -1   6    2.43    0.52
   5  -1   6   68.31    1.78
   6  -1   6   39.54    1.98
   7  -1   6    5.30    1.44
   8  -1   6   22.19    2.52
  -9   0   6   27.20    2.87
  -8   0   6   28.63    2.29
  -7   0   6   15.64    1.45
  -6   0   6   75.19    2.26
  -5   0   6    8.67    0.94
  -4   0   6  173.78    3.29
  -3   0   6  107.12    2.16
  -2   0   6   38.47    1.11
  -1   0   6  179.72    2.69
   0   0   6  141.07    2.58
   1   0   6   53.79    1.32
   2   0   6  199.20    2.80
   3   0   6    3.08    0.49
   4   0   6   82.84    1.93
   5   0   6    2.15    0.82
   6   0   6   11.08    1.44
   7   0   6   35.72    2.91
  -9   1   6   28.48    3.10
  -8   1   6    1.88    1.04
  -7   1   6   92.25    2.88
  -6   1   6    0.71    0.73
  -5   1   6   72.29    1.94
  -4   1   6   50.81    1.12
  -3   1   6  105.87    2.09
  -2   1   6  249.28    3.47
  -1   1   6   34.94    1.09
   0   1   6   94.27    2.03
   1   1   6  360.80    4.79
   2   1   6    0.26    0.42
   3   1   6  100.97    2.04
   4   1   6   32.84    1.25
   5   1   6   42.46    2.09
   6   1   6   24.62    2.03
   7   1   6    1.93    1.69
  -9   2   6    5.15    1.59
  -8   2   6   64.78    2.77
  -7   2   6    8.28    1.08
  -6   2   6   31.15    1.34
  -5   2   6   74.01    1.47
  -4   2   6    9.63    0.62
  -3   2   6  141.71    2.51
  -2   2   6    2.15    0.57
  -1   2   6  146.70    2.68
   0   2   6  277.30    3.96
   1   2   6    1.44    0.62
   2   2   6  162.43    3.08
   3   2   6  168.72    3.24
   4   2   6   72.26    2.44
   5   2   6   93.72    3.57
   6   2   6    0.18    1.58
 -10   3   6   17.52    2.92
  -9   3   6   27.00    2.54
  -8   3   6    2.16    1.09
  -7   3   6   66.53    2.20
  -6   3   6   58.69    1.63
  -5   3   6   21.67    1.03
  -4   3   6   80.53    1.75
  -3   3   6    1.58    0.62
  -2   3   6   74.88    1.90
  -1   3   6   58.62    1.66
   0   3   6   23.06    1.13
   1   3   6  125.69    2.79
   2   3   6   51.18    1.94
   3   3   6   81.18    2.71
   4   3   6   89.23    2.93
   5   3   6    2.33    1.43
 -10   4   6    8.34    2.41
  -9   4   6    4.60    1.49
  -8   4   6   88.09    3.34
  -7   4   6   16.70    1.18
  -6   4   6   61.19    1.74
  -5   4   6  129.53    2.52
  -4   4   6    0.63    0.57
  -3   4   6  114.66    2.53
  -2   4   6    3.46    0.76
  -1   4   6   78.50    2.21
   0   4   6   72.16    2.21
   1   4   6    1.59    0.80
   2   4   6   42.14    2.19
   3   4   6   39.05    2.15
   4   4   6    0.70    1.34
   5   4   6   55.44    3.40
 -10   5   6    5.86    2.06
  -9   5   6   43.35    2.71
  -8   5   6    7.09    1.30
  -7   5   6   54.55    2.13
  -6   5   6   69.85    2.07
  -5   5   6    2.54    0.76
  -4   5   6  228.13    3.91
  -3   5   6   31.97    1.58
  -2   5   6  110.42    2.57
  -1   5   6   77.93    2.32
   0   5   6    7.15    1.10
   1   5   6   69.74    2.78
   2   5   6   11.50    1.54
   3   5   6   18.08    1.85
   4   5   6   42.67    3.20
  -9   6   6    3.70    1.57
  -8   6   6   24.80    1.84
  -7   6   6   75.85    2.70
  -6   6   6    5.49    1.13
  -5   6   6  107.20    2.74
  -4   6   6   72.59    2.31
  -3   6   6   58.65    2.34
  -2   6   6   92.37    2.71
  -1   6   6    1.69    0.93
   0   6   6  176.25    4.56
   1   6   6    8.62    1.48
   2   6   6   21.20    2.08
   3   6   6   37.22    3.04
  -9   7   6    9.29    1.86
  -8   7   6    9.26    1.49
  -7   7   6    2.57    1.20
  -6   7   6   53.32    2.37
  -5   7   6   34.65    2.03
  -4   7   6   45.37    2.02
  -3   7   6   76.06    2.52
  -2   7   6    2.18    1.07
  -1   7   6   92.86    3.42
   0   7   6   51.15    2.77
   1   7   6   40.84    2.64
  -8   8   6    9.40    1.61
  -7   8   6   25.29    2.08
  -6   8   6    1.66    1.20
  -5   8   6   36.24    2.39
  -4   8   6   63.79    2.73
  -3   8   6    1.00    1.25
  -2   8   6   83.65    3.88
  -1   8   6   13.57    2.13
   0   8   6   22.76    2.54
  -7   9   6    2.25    1.39
  -6   9   6   48.85    3.09
  -5   9   6    8.72    1.82
  -4   9   6   13.52    1.99
  -3   9   6   62.32    3.48
  -2   9   6   -0.14    1.33
   2 -11   7   10.00    1.36
   3 -11   7   25.33    1.54
   4 -11   7    4.14    1.19
   5 -11   7    9.58    1.26
   6 -11   7   10.03    1.03
  -1 -10   7   70.42    3.78
   0 -10   7   17.65    1.85
   1 -10   7   19.08    1.56
   2 -10   7   43.41    1.94
   3 -10   7    0.64    0.75
   4 -10   7   19.67    1.41
   5 -10   7   19.53    1.23
   6 -10   7   -0.22    1.18
   7 -10   7   10.34    2.52
  -2  -9   7   40.86    3.14
  -1  -9   7   33.59    2.58
   0  -9   7   30.99    1.99
   1  -9   7   99.59    3.13
   2  -9   7    1.19    0.82
   3  -9   7  109.26    3.52
   4  -9   7   28.88    1.71
   5  -9   7    7.20    0.78
   6  -9   7   19.17    4.20
   7  -9   7    0.28    2.47
  -3  -8   7   22.48    2.05
  -2  -8   7   23.21    1.96
  -1  -8   7   26.28    1.68
   0  -8   7   61.46    2.23
   1  -8   7   18.78    1.28
   2  -8   7  151.44    3.15
   3  -8   7   41.59    1.97
   4  -8   7   57.23    2.07
   5  -8   7   65.16    2.63
   7  -8   7   20.31    2.58
   8  -8   7   26.37    4.87
  -4  -7   7   25.17    2.24
  -3  -7   7   20.39    1.64
  -2  -7   7   27.69    1.69
  -1  -7   7   74.10    2.15
   0  -7   7    0.40    0.63
   1  -7   7   67.16    1.53
   2  -7   7   41.59    1.20
   3  -7   7   58.71    1.61
   4  -7   7  111.95    2.16
   5  -7   7    2.57    1.53
   6  -7   7  124.41    8.17
   7  -7   7    7.36    1.11
   8  -7   7    2.83    1.41
   9  -7   7   20.88    2.45
  -5  -6   7   59.13    3.19
  -4  -6   7   -0.42    0.87
  -3  -6   7   78.39    2.60
  -2  -6   7   27.30    1.40
  -1  -6   7    2.47    0.66
   0  -6   7   88.61    1.92
   1  -6   7   26.40    0.91
   2  -6   7   33.12    1.00
   3  -6   7   66.25    1.54
   4  -6   7    4.80    0.59
   5  -6   7   66.04    1.79
   6  -6   7   17.27    1.62
   7  -6   7   11.04    1.72
   8  -6   7   21.26    2.32
   9  -6   7   -1.30    1.65
  -6  -5   7   60.50    3.30
  -5  -5   7    1.20    1.15
  -4  -5   7  102.27    2.91
  -3  -5   7   19.47    1.19
  -2  -5   7   19.33    1.06
  -1  -5   7  154.27    2.56
   0  -5   7    7.27    0.57
   1  -5   7   58.70    1.25
   2  -5   7  119.96    1.87
   3  -5   7   19.73    0.97
   4  -5   7   81.86    1.94
   5  -5   7   16.03    0.88
   6  -5   7   38.83    1.90
   7  -5   7   41.19    2.89
   8  -5   7   -0.05    1.44
   9  -5   7    8.83    2.32
  -7  -4   7   24.09    2.44
  -6  -4   7   -0.99    1.19
  -5  -4   7   78.48    3.21
  -4  -4   7   53.24    1.81
  -3  -4   7   45.23    1.48
  -2  -4   7  220.64    3.19
  -1  -4   7    5.01    0.52
   0  -4   7   66.64    1.31
   1  -4   7  116.36    1.76
   2  -4   7    7.63    0.57
   3  -4   7  162.95    2.46
   4  -4   7   15.86    0.76
   5  -4   7   84.66    1.68
   6  -4   7   79.30    1.96
   7  -4   7    7.49    1.28
   8  -4   7   31.83    2.17
  -7  -3   7    0.12    1.24
  -6  -3   7   82.32    3.40
  -5  -3   7   31.25    1.51
  -4  -3   7   48.67    1.46
  -3  -3   7  134.16    2.21
  -2  -3   7    3.33    0.41
  -1  -3   7  135.60    2.03
   0  -3   7  134.03    1.87
   1  -3   7    2.34    0.40
   2  -3   7  214.05    3.15
   3  -3   7   34.67    1.11
   4  -3   7   46.96    1.23
   5  -3   7  105.12    1.97
   6  -3   7   13.74    1.27
   7  -3   7  125.59    4.17
   8  -3   7    7.86    1.69
  -8  -2   7   -0.95    1.31
  -7  -2   7   31.02    2.35
  -6  -2   7   18.37    1.89
  -5  -2   7   55.89    2.04
  -4  -2   7   67.58    2.04
  -3  -2   7   21.24    1.28
  -2  -2   7  244.84    3.38
  -1  -2   7  115.43    1.81
   0  -2   7    7.28    0.55
   1  -2   7  200.78    2.62
   2  -2   7    7.98    0.58
   3  -2   7   42.23    1.20
   4  -2   7   85.84    1.82
   5  -2   7    0.98    0.73
   6  -2   7   99.45    2.89
   7  -2   7    4.14    1.33
   8  -2   7   30.10    2.70
  -8  -1   7   42.13    2.77
  -7  -1   7   -0.69    1.10
  -6  -1   7   34.24    1.89
  -5  -1   7  142.02    3.17
  -4  -1   7   54.25    1.80
  -3  -1   7  208.37    3.70
  -2  -1   7    5.91    0.47
  -1  -1   7  289.89    3.89
   0  -1   7  134.62    2.34
   1  -1   7    6.76    0.65
   2  -1   7  119.80    2.13
   3  -1   7   48.61    1.33
   4  -1   7    0.71    0.60
   5  -1   7   45.22    1.66
   6  -1   7   -0.69    0.91
   7  -1   7   23.56    2.45
  -9   0   7   41.21    3.42
  -8   0   7   -1.49    1.20
  -7   0   7   31.08    1.94
  -6   0   7   83.62    2.50
  -5   0   7   16.25    1.22
  -4   0   7  102.90    2.31
  -3   0   7   18.24    1.03
  -2   0   7  323.97    4.73
  -1   0   7  246.26    3.72
   0   0   7   99.48    1.88
   1   0   7  118.47    2.32
   2   0   7   32.91    1.24
   3   0   7   43.04    1.29
   4   0   7   67.78    1.72
   5   0   7    0.70    0.74
   6   0   7   34.63    2.35
   7   0   7    7.95    2.00
  -9   1   7    0.49    1.50
  -8   1   7   25.63    2.01
  -7   1   7   59.69    2.58
  -6   1   7   10.29    1.06
  -5   1   7  128.52    2.78
  -4   1   7   23.39    0.82
  -3   1   7   72.54    1.98
  -2   1   7  257.18    3.92
  -1   1   7   34.05    1.29
   0   1   7  453.36    6.32
   1   1   7   39.35    1.49
   2   1   7  212.65    3.66
   3   1   7   80.57    1.86
   4   1   7    2.43    0.70
   5   1   7   39.23    2.41
   6   1   7   13.13    1.85
  -9   2   7   25.42    2.57
  -8   2   7    6.69    1.39
  -7   2   7   15.98    1.36
  -6   2   7   30.97    1.36
  -5   2   7   21.27    0.91
  -4   2   7   54.24    1.51
  -3   2   7   86.32    2.13
  -2   2   7   11.32    0.96
  -1   2   7  254.24    3.98
   0   2   7   15.81    1.12
   1   2   7  124.34    2.72
   2   2   7  182.47    3.48
   3   2   7    0.42    0.77
   4   2   7   85.77    2.79
   5   2   7   25.65    2.69
   6   2   7    7.88    2.18
  -9   3   7    1.48    1.78
  -8   3   7   33.15    2.09
  -7   3   7   69.85    2.33
  -6   3   7    1.55    0.68
  -5   3   7   73.17    1.87
  -4   3   7   35.60    1.36
  -3   3   7    6.99    0.92
  -2   3   7   82.69    2.30
  -1   3   7   13.72    1.01
   0   3   7  157.23    2.93
   1   3   7  133.33    2.99
   2   3   7   34.08    1.94
   3   3   7  150.86    3.92
   4   3   7   19.38    2.13
   5   3   7   14.46    2.43
  -9   4   7   64.06    3.22
  -8   4   7   46.26    2.39
  -7   4   7   20.83    1.31
  -6   4   7  145.95    3.01
  -5   4   7   17.31    1.21
  -4   4   7   47.45    1.68
  -3   4   7  120.23    2.91
  -2   4   7   -0.18    0.69
  -1   4   7   73.47    2.28
   0   4   7   20.78    1.44
   1   4   7   95.03    3.09
   2   4   7   96.20    3.20
   3   4   7    2.21    1.15
   4   4   7   61.65    3.45
  -9   5   7   10.88    1.91
  -8   5   7   19.27    2.08
  -7   5   7  125.48    3.21
  -6   5   7   13.49    1.19
  -5   5   7   72.45    2.27
  -4   5   7  122.50    2.98
  -3   5   7    0.92    0.85
  -2   5   7  130.70    2.92
  -1   5   7   39.68    2.03
   0   5   7   42.91    2.32
   1   5   7   65.58    2.83
   2   5   7   -0.23    1.08
   3   5   7  115.32    3.88
  -9   6   7    0.02    1.40
  -8   6   7   43.38    2.31
  -7   6   7    1.81    1.07
  -6   6   7  114.70    3.32
  -5   6   7   41.71    1.89
  -4   6   7    4.94    1.04
  -3   6   7  136.98    3.69
  -2   6   7   57.05    2.32
  -1   6   7   12.83    1.62
   0   6   7   92.55    3.44
   1   6   7    0.99    1.17
   2   6   7   85.53    3.58
  -9   7   7   18.36    2.33
  -8   7   7    3.95    1.35
  -7   7   7   34.97    2.30
  -6   7   7   15.78    1.62
  -5   7   7   14.48    1.60
  -4   7   7   65.27    2.73
  -3   7   7    7.07    1.47
  -2   7   7   25.63    1.91
  -1   7   7   43.24    2.62
   0   7   7   11.44    1.85
   1   7   7   48.46    2.95
  -8   8   7   22.46    2.15
  -7   8   7   11.35    1.80
  -6   8   7   29.63    2.42
  -5   8   7   54.12    3.15
  -4   8   7    0.99    1.20
  -3   8   7   73.42    3.36
  -2   8   7   33.22    2.91
  -1   8   7    3.84    1.80
  -5   9   7    0.19    1.50
  -4   9   7   88.37    4.74
   2 -11   8   35.89    2.00
   3 -11   8   27.45    1.96
   4 -11   8    1.74    1.05
   5 -11   8   34.83    1.79
   6 -11   8    3.42    1.39
   0 -10   8    1.55    1.37
   1 -10   8   68.41    2.82
   2 -10   8   21.06    1.66
   3 -10   8    6.97    1.42
   4 -10   8   43.21    2.31
   5 -10   8    3.18    0.84
   6 -10   8   22.11    4.90
   7 -10   8   15.92    4.00
  -2  -9   8   30.45    2.66
  -1  -9   8   -0.05    1.17
   0  -9   8   74.91    2.91
   1  -9   8   13.79    1.44
   2  -9   8   12.37    1.26
   3  -9   8   68.91    2.80
   4  -9   8   10.99    1.23
   5  -9   8   60.89    2.16
   6  -9   8   37.22    5.45
   7  -9   8    5.90    2.90
  -3  -8   8   36.60    2.47
  -2  -8   8    1.43    1.11
  -1  -8   8   51.99    2.21
   0  -8   8   10.93    1.19
   1  -8   8   64.56    2.20
   2  -8   8   69.63    2.46
   3  -8   8    3.16    0.94
   4  -8   8   63.35    2.26
   5  -8   8   44.20    2.35
   6  -8   8    2.35    2.51
   7  -8   8   70.43    6.96
   8  -8   8    3.96    3.46
  -4  -7   8   32.37    2.50
  -3  -7   8    2.36    1.02
  -2  -7   8   70.49    2.47
  -1  -7   8    6.03    0.91
   0  -7   8   31.42    1.40
   1  -7   8   51.16    1.62
   2  -7   8    7.49    0.72
   3  -7   8   44.15    1.49
   4  -7   8   23.67    1.14
   5  -7   8   22.49    1.87
   6  -7   8   67.17    3.11
   7  -7   8   18.85    1.89
   8  -7   8   35.29    2.68
  -5  -6   8   21.49    2.28
  -4  -6   8   19.26    1.95
  -3  -6   8  197.10    4.35
  -2  -6   8    4.62    0.87
  -1  -6   8  100.99    2.26
   0  -6   8   48.70    1.45
   1  -6   8   38.06    1.12
   2  -6   8   62.10    1.43
   3  -6   8   17.05    0.93
   4  -6   8   79.37    2.01
   5  -6   8   24.87    1.29
   6  -6   8    2.45    0.88
   7  -6   8   40.49    2.81
   8  -6   8   19.60    2.43
  -6  -5   8    4.55    1.65
  -5  -5   8   50.20    2.87
  -4  -5   8   88.52    2.70
  -3  -5   8    1.42    0.70
  -2  -5   8  162.82    3.02
  -1  -5   8  125.77    2.29
   0  -5   8   41.98    1.29
   1  -5   8  187.13    2.70
   2  -5   8    1.42    0.48
   3  -5   8   61.98    1.86
   4  -5   8   11.27    0.92
   5  -5   8    8.30    1.12
   6  -5   8   52.96    2.32
   7  -5   8    3.60    1.59
   8  -5   8   10.25    2.26
  -7  -4   8    1.16    1.50
  -6  -4   8    8.41    1.62
  -5  -4   8   27.18    2.14
  -4  -4   8    0.66    0.71
  -3  -4   8  110.17    2.10
  -2  -4   8  144.36    2.42
  -1  -4   8   74.71    1.50
   0  -4   8  293.55    3.85
   1  -4   8   23.75    0.97
   2  -4   8  141.34    2.17
   3  -4   8   97.12    1.92
   4  -4   8    6.80    0.63
   5  -4   8   92.81    1.98
   6  -4   8    0.81    0.79
   7  -4   8   22.29    1.81
   8  -4   8   35.24    2.33
  -7  -3   8    8.90    1.83
  -6  -3   8   16.00    1.91
  -5  -3   8   16.92    1.75
  -4  -3   8   49.72    1.90
  -3  -3   8   21.83    1.25
  -2  -3   8   16.95    0.76
  -1  -3   8  220.58    3.15
   0  -3   8    3.50    0.46
   1  -3   8  190.67    2.65
   2  -3   8  137.14    2.17
   3  -3   8   26.01    0.99
   4  -3   8  110.08    2.09
   5  -3   8    2.60    0.74
   6  -3   8   21.34    1.60
   7  -3   8   28.66    2.28
   8  -3   8    2.34    1.65
  -8  -2   8   30.91    2.62
  -7  -2   8   32.67    2.46
  -6  -2   8   20.02    1.91
  -5  -2   8   45.42    1.93
  -4  -2   8    3.14    0.82
  -3  -2   8   46.11    1.84
  -2  -2   8   64.20    1.59
  -1  -2   8    3.47    0.54
   0  -2   8  192.88    2.94
   1  -2   8  177.10    2.54
   2  -2   8   43.84    1.22
   3  -2   8  189.21    3.02
   4  -2   8    0.25    0.55
   5  -2   8   27.31    1.58
   6  -2   8   29.00    1.96
   7  -2   8    3.62    1.55
   8  -2   8   21.46    2.56
  -8  -1   8   52.60    3.08
  -7  -1   8   24.06    2.14
  -6  -1   8   42.40    2.15
  -5  -1   8    2.28    0.85
  -4  -1   8  165.33    3.43
  -3  -1   8   77.94    2.15
  -2  -1   8   37.34    1.13
  -1  -1   8  218.40    3.32
   0  -1   8    1.47    0.57
   1  -1   8   84.84    1.91
   2  -1   8  266.67    3.98
   3  -1   8    6.45    0.86
   4  -1   8  114.88    2.46
   5  -1   8   21.88    1.58
   6  -1   8   18.29    2.16
   7  -1   8   10.38    1.96
  -9   0   8   19.61    2.77
  -8   0   8   15.92    1.96
  -7   0   8   91.22    3.51
  -6   0   8    6.02    1.14
  -5   0   8   94.15    2.63
  -4   0   8   63.18    1.93
  -3   0   8   27.69    1.01
  -2   0   8  128.46    2.92
  -1   0   8    0.99    0.63
   0   0   8  194.62    3.09
   1   0   8  188.27    3.22
   2   0   8    4.14    0.76
   3   0   8  191.05    3.28
   4   0   8   35.41    1.73
   5   0   8   34.59    2.05
   6   0   8   60.13    3.57
   7   0   8    1.03    1.80
  -9   1   8   11.63    2.11
  -8   1   8   52.68    2.93
  -7   1   8    1.70    1.07
  -6   1   8   63.98    2.14
  -5   1   8   51.69    1.89
  -4   1   8   28.45    0.99
  -3   1   8  107.57    2.40
  -2   1   8    5.81    0.83
  -1   1   8   40.09    1.51
   0   1   8  107.84    2.55
   1   1   8   21.39    1.28
   2   1   8  182.12    3.47
   3   1   8   32.22    1.51
   4   1   8   82.04    2.48
   5   1   8   98.50    4.33
   6   1   8    2.01    1.76
  -9   2   8   19.14    2.43
  -8   2   8    6.14    1.68
  -7   2   8   65.80    2.37
  -6   2   8   28.63    1.66
  -5   2   8   32.52    1.16
  -4   2   8  116.53    2.40
  -3   2   8    0.82    0.70
  -2   2   8   51.68    1.77
  -1   2   8   46.16    1.66
   0   2   8   25.03    1.52
   1   2   8   41.16    1.75
   2   2   8   40.02    1.73
   3   2   8   46.28    2.19
   4   2   8   82.99    3.55
   5   2   8    0.96    1.61
  -9   3   8    5.68    2.18
  -8   3   8   52.60    2.59
  -7   3   8    5.53    1.16
  -6   3   8   59.62    1.90
  -5   3   8  130.24    2.66
  -4   3   8    8.16    1.03
  -3   3   8  134.92    2.94
  -2   3   8   27.70    1.56
  -1   3   8   57.66    1.93
   0   3   8   30.04    1.61
   1   3   8    5.65    0.98
   2   3   8   64.23    2.63
   3   3   8   32.67    2.08
   4   3   8    1.48    1.47
   5   3   8   52.19    3.88
  -9   4   8   32.51    3.05
  -8   4   8    7.04    1.51
  -7   4   8   58.51    2.10
  -6   4   8  106.24    2.62
  -5   4   8    8.96    1.05
  -4   4   8  177.46    4.09
  -3   4   8   30.77    1.69
  -2   4   8   90.95    2.67
  -1   4   8  118.48    3.04
   0   4   8    6.55    1.26
   1   4   8  105.87    3.45
   2   4   8    1.44    1.13
   3   4   8   17.68    1.85
   4   4   8   42.31    3.18
  -9   5   8   -1.82    1.70
  -8   5   8   20.42    2.23
  -7   5   8   19.85    1.59
  -6   5   8    0.58    0.84
  -5   5   8  219.04    4.64
  -4   5   8   36.10    1.81
  -3   5   8   96.74    3.11
  -2   5   8  116.57    3.09
  -1   5   8    5.72    1.29
   0   5   8  100.05    3.49
   1   5   8   14.84    1.77
   2   5   8   44.38    2.66
   3   5   8   43.04    3.25
  -9   6   8   10.06    2.33
  -8   6   8    4.26    1.87
  -7   6   8    4.51    1.27
  -6   6   8   27.69    1.93
  -5   6   8   22.53    1.62
  -4   6   8   55.21    2.27
  -3   6   8   90.65    3.42
  -2   6   8   -0.35    0.96
  -1   6   8  151.06    4.44
   0   6   8   11.90    1.70
   1   6   8   12.13    1.86
  -8   7   8   12.77    2.59
  -7   7   8   10.95    1.86
  -6   7   8    0.00    1.23
  -5   7   8   48.80    2.92
  -4   7   8   18.68    1.98
  -3   7   8    1.58    1.23
  -2   7   8   86.24    3.21
  -1   7   8   14.88    1.98
   0   7   8   44.78    2.92
  -7   8   8    0.66    1.46
  -6   8   8   29.70    2.64
  -5   8   8    3.95    1.63
  -4   8   8   16.60    2.05
  -3   8   8   42.70    2.85
  -2   8   8    1.78    1.69
   2 -11   9   43.45    2.35
   3 -11   9    0.51    1.36
   4 -11   9   35.20    2.37
   5 -11   9    7.07    1.17
   0 -10   9   17.44    2.19
   1 -10   9   42.26    2.36
   2 -10   9    0.25    1.03
   3 -10   9   75.43    3.21
   4 -10   9   16.20    1.65
   5 -10   9   17.02    1.46
   6 -10   9   13.34    4.01
  -2  -9   9   19.86    2.31
  -1  -9   9   13.79    1.98
   0  -9   9   53.16    2.55
   1  -9   9   -0.18    0.96
   2  -9   9   57.33    2.30
   3  -9   9   22.86    1.80
   4  -9   9   27.01    1.75
   5  -9   9   58.85    2.27
  -3  -8   9    3.46    1.68
  -2  -8   9   25.01    2.04
  -1  -8   9   34.58    2.17
   0  -8   9   13.36    1.44
   1  -8   9   61.73    2.39
   2  -8   9   19.40    1.34
   3  -8   9   50.15    2.49
   4  -8   9   50.34    2.18
   5  -8   9    0.15    0.95
   6  -8   9   29.14    4.87
   7  -8   9   13.91    4.23
   8  -8   9    0.85    3.11
  -4  -7   9    0.81    1.52
  -3  -7   9   45.38    2.48
  -2  -7   9   19.74    1.72
  -1  -7   9    6.00    1.06
   0  -7   9   57.26    2.07
   1  -7   9   32.76    1.52
   2  -7   9   48.88    1.53
   3  -7   9   38.62    1.96
   4  -7   9    0.96    0.86
   5  -7   9   69.20    2.54
   6  -7   9    4.62    0.96
   7  -7   9    4.95    1.57
   8  -7   9   29.54    2.78
  -5  -6   9    2.06    1.45
  -4  -6   9   73.18    3.30
  -3  -6   9   19.88    1.53
  -2  -6   9   39.77    1.69
  -1  -6   9  106.18    2.56
   0  -6   9   11.22    0.89
   1  -6   9   44.38    1.25
   2  -6   9   44.81    1.31
   3  -6   9    7.89    0.92
   4  -6   9  136.76    3.97
   5  -6   9    1.83    0.99
   6  -6   9   47.25    2.23
   7  -6   9   16.37    2.23
   8  -6   9    4.46    1.97
  -6  -5   9   -2.14    1.34
  -5  -5   9   80.14    3.52
  -4  -5   9   14.68    1.85
  -3  -5   9   47.54    1.80
  -2  -5   9  122.28    2.56
  -1  -5   9    1.36    0.55
   0  -5   9   94.66    2.05
   1  -5   9  116.77    2.16
   2  -5   9   14.21    0.86
   3  -5   9   83.99    1.77
   4  -5   9    3.82    0.82
   5  -5   9   46.44    2.27
   6  -5   9   39.68    2.23
   7  -5   9   15.12    2.43
   8  -5   9   37.73    3.47
  -7  -4   9    1.19    1.58
  -6  -4   9   26.20    2.41
  -5  -4   9    9.21    1.55
  -4  -4   9   27.20    2.00
  -3  -4   9   77.54    2.31
  -2  -4   9   11.92    0.87
  -1  -4   9  114.16    2.14
   0  -4   9   92.90    1.84
   1  -4   9    8.06    0.71
   2  -4   9   87.53    1.89
   3  -4   9   30.33    1.19
   4  -4   9   31.09    1.17
   5  -4   9   80.93    2.48
   6  -4   9    9.14    1.15
   7  -4   9   44.07    2.47
   8  -4   9   -0.68    1.36
  -7  -3   9   18.96    2.23
  -6  -3   9   16.47    1.93
  -5  -3   9   10.71    1.56
  -4  -3   9   42.72    2.03
  -3  -3   9   25.80    1.42
  -2  -3   9  128.84    2.55
  -1  -3   9    8.37    0.71
   0  -3   9   40.89    1.26
   1  -3   9  141.81    2.34
   2  -3   9   10.32    0.81
   3  -3   9   29.94    1.09
   4  -3   9   90.70    2.50
   5  -3   9    0.72    0.88
   6  -3   9   40.41    2.13
   7  -3   9    5.97    1.65
  -8  -2   9   30.40    2.74
  -7  -2   9    7.14    1.64
  -6  -2   9   68.50    3.15
  -5  -2   9   32.53    2.16
  -4  -2   9    2.42    0.86
  -3  -2   9   93.99    2.02
  -2  -2   9    2.39    0.61
  -1  -2   9  129.70    2.38
   0  -2   9  122.30    2.33
   1  -2   9   67.33    1.61
   2  -2   9   65.59    1.66
   3  -2   9   49.94    1.64
   4  -2   9    0.82    0.84
   5  -2   9   61.45    2.32
   6  -2   9    7.04    1.40
   7  -2   9   11.10    2.04
  -8  -1   9   -0.08    1.36
  -7  -1   9   38.25    2.60
  -6  -1   9  139.93    4.33
  -5  -1   9    2.24    0.87
  -4  -1   9  107.11    2.79
  -3  -1   9   11.42    0.87
  -2  -1   9  128.25    2.61
  -1  -1   9  155.57    2.80
   0  -1   9   28.84    1.26
   1  -1   9  288.63    4.31
   2  -1   9    4.89    0.77
   3  -1   9   61.73    1.95
   4  -1   9   74.24    2.35
   5  -1   9    0.68    0.98
   6  -1   9   21.38    2.39
   7  -1   9   26.25    2.78
  -8   0   9   26.18    2.40
  -7   0   9   34.39    2.45
  -6   0   9   14.85    1.57
  -5   0   9  125.53    3.21
  -4   0   9   48.69    1.83
  -3   0   9  107.25    2.25
  -2   0   9  141.31    3.25
  -1   0   9   74.40    2.14
   0   0   9  122.12    2.54
   1   0   9    5.79    0.87
   2   0   9  178.57    3.43
   3   0   9  114.57    2.90
   4   0   9    3.38    1.02
   5   0   9   58.15    2.97
   6   0   9    7.77    1.95
  -9   1   9   12.82    2.31
  -8   1   9    1.84    1.31
  -7   1   9   38.38    2.33
  -6   1   9   66.16    2.66
  -5   1   9    9.73    1.12
  -4   1   9   14.23    1.16
  -3   1   9   99.66    2.44
  -2   1   9    9.74    0.99
  -1   1   9   98.81    2.51
   0   1   9   33.99    1.62
   1   1   9  117.46    2.80
   2   1   9   52.20    1.94
   3   1   9    5.23    1.05
   4   1   9   97.71    3.74
   5   1   9   13.28    1.94
   6   1   9    9.99    2.33
  -9   2   9   -0.59    1.60
  -8   2   9   47.61    3.25
  -7   2   9   20.73    1.77
  -6   2   9   11.05    1.26
  -5   2   9   93.21    2.18
  -4   2   9   53.55    1.96
  -3   2   9    4.24    0.90
  -2   2   9  126.81    3.02
  -1   2   9   15.64    1.18
   0   2   9   73.10    2.48
   1   2   9   25.16    1.54
   2   2   9   34.74    2.02
   3   2   9   66.77    2.67
   4   2   9    4.27    1.76
   5   2   9   25.08    2.94
  -9   3   9   19.57    3.10
  -8   3   9   12.27    1.95
  -7   3   9   23.15    1.74
  -6   3   9  105.74    2.60
  -5   3   9    9.79    0.99
  -4   3   9   55.96    2.04
  -3   3   9  109.96    3.15
  -2   3   9    3.43    0.96
  -1   3   9   91.42    2.49
   0   3   9   38.01    2.00
   1   3   9    7.72    1.31
   2   3   9   72.33    2.93
   3   3   9    0.33    1.10
   4   3   9   43.50    3.56
  -9   4   9   24.36    3.03
  -8   4   9    0.27    1.43
  -7   4   9   85.65    3.33
  -6   4   9    1.30    0.83
  -5   4   9  100.52    2.77
  -4   4   9   91.75    3.05
  -3   4   9    1.53    1.01
  -2   4   9  132.79    3.62
  -1   4   9  105.34    3.34
   0   4   9   42.46    2.43
   1   4   9  139.86    4.17
   2   4   9    0.62    1.21
   3   4   9   66.93    3.78
  -9   5   9    1.29    1.87
  -8   5   9   32.51    3.12
  -7   5   9    0.19    1.04
  -6   5   9   35.68    1.87
  -5   5   9   35.17    1.86
  -4   5   9    9.29    1.37
  -3   5   9  141.17    4.21
  -2   5   9   18.51    1.68
  -1   5   9   43.76    2.59
   0   5   9   86.70    3.48
   1   5   9    5.88    1.52
   2   5   9   84.25    3.61
  -8   6   9    0.24    1.86
  -7   6   9   39.88    2.70
  -6   6   9   10.56    1.62
  -5   6   9    9.56    1.53
  -4   6   9   67.25    2.73
  -3   6   9    1.56    1.29
  -2   6   9   30.03    2.10
  -1   6   9   41.99    2.67
   0   6   9    1.38    1.34
   1   6   9   64.32    3.37
  -7   7   9    4.42    1.61
  -6   7   9   16.06    2.13
  -5   7   9   42.08    2.68
  -4   7   9    4.25    1.54
  -3   7   9   65.79    3.88
  -2   7   9   13.20    1.76
  -1   7   9    6.28    1.56
  -5   8   9   -0.39    1.44
  -4   8   9   58.93    3.29
   0 -10  10   62.45    3.46
   1 -10  10   13.08    1.65
   2 -10  10   11.26    1.44
   3 -10  10   38.80    2.47
   4 -10  10    1.20    1.18
   5 -10  10   38.68    2.11
  -2  -9  10    3.73    2.02
  -1  -9  10   43.85    2.91
   0  -9  10    2.24    1.29
   1  -9  10    8.85    1.41
   2  -9  10   33.27    1.85
   3  -9  10    1.44    1.06
   4  -9  10   32.11    1.95
   5  -9  10   12.61    1.48
   6  -9  10    7.55    1.66
   7  -9  10   29.28    5.58
  -3  -8  10    2.57    1.72
  -2  -8  10   63.28    3.28
  -1  -8  10    4.87    1.43
   0  -8  10   53.12    2.41
   1  -8  10   22.29    1.64
   2  -8  10    6.43    1.04
   3  -8  10   25.74    1.84
   4  -8  10    9.20    1.44
   5  -8  10    6.66    1.23
   6  -8  10   40.10    2.76
   7  -8  10    0.90    1.59
  -4  -7  10   23.43    2.78
  -3  -7  10   70.43    3.75
  -2  -7  10    2.79    1.13
  -1  -7  10   78.41    2.57
   0  -7  10   62.10    2.21
   1  -7  10   32.88    1.59
   2  -7  10   67.34    2.32
   3  -7  10    3.40    1.20
   4  -7  10    9.22    1.34
   5  -7  10   11.52    1.47
   6  -7  10   -0.01    0.91
   7  -7  10   30.78    1.95
  -5  -6  10    4.02    1.56
  -4  -6  10   78.80    3.48
  -3  -6  10    0.06    0.89
  -2  -6  10   83.44    2.42
  -1  -6  10   69.74    2.13
   0  -6  10   65.26    1.93
   1  -6  10  154.42    3.30
   2  -6  10   21.57    1.19
   3  -6  10   84.17    1.98
   4  -6  10   26.17    1.98
   5  -6  10    4.25    1.00
   6  -6  10   33.58    2.05
   7  -6  10    8.05    1.47
  -6  -5  10   10.47    1.98
  -5  -5  10   38.19    2.67
  -4  -5  10   -1.41    1.02
  -3  -5  10   67.41    2.86
  -2  -5  10   59.78    2.04
  -1  -5  10   31.57    1.49
   0  -5  10  169.21    3.26
   1  -5  10    1.12    0.54
   2  -5  10  182.00    3.15
   3  -5  10   84.38    2.35
   4  -5  10   26.76    1.10
   5  -5  10   55.57    2.67
   6  -5  10    2.22    1.18
   7  -5  10   14.71    1.90
  -6  -4  10   17.03    2.14
  -5  -4  10    5.07    1.36
  -4  -4  10   34.72    2.25
  -3  -4  10   25.05    1.64
  -2  -4  10   23.40    1.13
  -1  -4  10   78.00    2.03
   0  -4  10   -0.40    0.55
   1  -4  10  134.72    2.49
   2  -4  10   73.26    1.72
   3  -4  10    8.51    0.85
   4  -4  10   84.59    2.39
   5  -4  10    0.25    0.88
   6  -4  10   19.47    1.56
   7  -4  10   30.81    1.99
  -7  -3  10    9.75    1.93
  -6  -3  10   15.86    1.98
  -5  -3  10   44.65    2.58
  -4  -3  10    6.39    1.34
  -3  -3  10   37.29    1.71
  -2  -3  10   65.38    2.07
  -1  -3  10   10.73    0.84
   0  -3  10   81.42    1.89
   1  -3  10   48.60    1.63
   2  -3  10   38.11    1.29
   3  -3  10  164.50    2.81
   4  -3  10    0.39    0.80
   5  -3  10   42.29    2.28
   6  -3  10   17.59    1.71
   7  -3  10    0.98    1.55
  -7  -2  10   20.38    2.25
  -6  -2  10   75.33    3.38
  -5  -2  10    0.06    1.04
  -4  -2  10   66.29    2.31
  -3  -2  10   50.83    1.56
  -2  -2  10    8.09    0.79
  -1  -2  10   95.61    2.14
   0  -2  10   18.72    1.08
   1  -2  10  123.07    2.46
   2  -2  10  140.79    2.57
   3  -2  10    7.37    1.01
   4  -2  10   68.91    2.47
   5  -2  10   36.22    2.20
   6  -2  10    9.14    1.67
   7  -2  10   18.86    2.47
  -8  -1  10   19.94    2.39
  -7  -1  10   43.90    2.81
  -6  -1  10    6.40    1.50
  -5  -1  10  115.70    3.87
  -4  -1  10   96.30    2.77
  -3  -1  10    4.98    0.82
  -2  -1  10   98.11    2.32
  -1  -1  10    7.24    0.88
   0  -1  10   70.47    1.96
   1  -1  10  178.47    3.03
   2  -1  10   23.85    1.39
   3  -1  10  185.67    3.90
   4  -1  10   33.27    2.06
   5  -1  10   52.96    2.77
   6  -1  10   56.40    3.51
  -8   0  10   25.17    2.86
  -7   0  10    0.58    1.33
  -6   0  10   79.80    3.38
  -5   0  10   50.02    2.40
  -4   0  10   37.68    1.41
  -3   0  10  143.83    2.91
  -2   0  10   13.99    1.32
  -1   0  10   59.82    1.82
   0   0  10   69.71    2.00
   1   0  10    2.75    0.83
   2   0  10  128.58    2.94
   3   0  10   14.86    1.39
   4   0  10   77.36    3.32
   5   0  10  105.52    4.63
   6   0  10    3.31    1.82
  -8   1  10    2.38    1.45
  -7   1  10   47.59    2.64
  -6   1  10    5.85    1.26
  -5   1  10   78.86    2.58
  -4   1  10  143.39    3.16
  -3   1  10   -0.03    0.73
  -2   1  10   58.64    1.94
  -1   1  10   25.64    1.50
   0   1  10   11.54    1.10
   1   1  10   66.01    2.23
   2   1  10    9.95    1.28
   3   1  10   40.70    2.17
   4   1  10   65.36    3.76
   5   1  10   -0.68    1.50
  -9   2  10    3.66    1.97
  -8   2  10   33.04    2.99
  -7   2  10    3.76    1.27
  -6   2  10   62.06    2.77
  -5   2  10   69.82    2.08
  -4   2  10   19.62    1.45
  -3   2  10  144.75    3.17
  -2   2  10   36.50    1.68
  -1   2  10   53.03    1.96
   0   2  10   38.00    2.03
   1   2  10   -0.67    0.91
   2   2  10   26.61    1.95
   3   2  10   11.94    1.57
   4   2  10    4.61    1.94
  -9   3  10   23.57    3.53
  -8   3  10    0.76    1.58
  -7   3  10   22.19    1.95
  -6   3  10   69.42    2.84
  -5   3  10   17.06    1.28
  -4   3  10  218.17    4.52
  -3   3  10   43.03    2.17
  -2   3  10  134.96    3.60
  -1   3  10   55.28    2.37
   0   3  10    0.16    1.06
   1   3  10   72.00    3.06
   2   3  10    7.13    1.46
   3   3  10   12.98    2.06
  -8   4  10   12.97    2.21
  -7   4  10   23.38    2.36
  -6   4  10    4.40    1.07
  -5   4  10   70.00    2.44
  -4   4  10   20.65    1.95
  -3   4  10  104.61    3.56
  -2   4  10  168.04    4.63
  -1   4  10   -0.70    0.94
   0   4  10  151.73    4.49
   1   4  10   16.39    1.96
   2   4  10   22.58    2.13
  -8   5  10   11.21    2.38
  -7   5  10    1.19    1.51
  -6   5  10   42.91    2.50
  -5   5  10    0.50    0.97
  -4   5  10   40.63    2.55
  -3   5  10   82.80    3.42
  -2   5  10    7.20    1.53
  -1   5  10  166.83    4.42
   0   5  10   24.30    2.27
   1   5  10   40.74    2.80
  -7   6  10   13.58    2.58
  -6   6  10    0.48    1.19
  -5   6  10   37.16    2.61
  -4   6  10    6.21    1.57
  -3   6  10   18.40    2.12
  -2   6  10   67.92    3.36
  -1   6  10    0.89    1.31
   0   6  10   28.49    2.59
  -6   7  10   34.85    2.87
  -5   7  10    2.84    1.53
  -4   7  10    6.30    1.67
  -3   7  10   39.59    3.41
   1 -10  11    0.24    1.34
   2 -10  11   60.37    2.62
   3 -10  11    7.57    1.55
   4 -10  11   27.11    2.06
   5 -10  11   26.88    2.09
  -1  -9  11   23.47    2.36
   0  -9  11   -0.27    1.26
   1  -9  11   32.23    2.06
   2  -9  11   15.79    1.49
   3  -9  11   23.91    1.98
   4  -9  11   30.14    2.25
   5  -9  11   -0.66    1.27
   6  -9  11   23.48    2.56
  -3  -8  11   32.13    3.65
  -2  -8  11    6.83    2.25
  -1  -8  11    5.25    1.48
   0  -8  11   44.86    2.34
   1  -8  11    5.49    1.14
   2  -8  11   23.46    1.60
   3  -8  11   35.46    2.49
   4  -8  11    0.89    1.28
   5  -8  11   38.72    2.22
   6  -8  11    1.40    1.16
   7  -8  11   11.94    1.47
  -4  -7  11   38.24    3.30
  -3  -7  11    7.06    1.88
  -2  -7  11   32.31    2.14
  -1  -7  11   68.96    2.51
   0  -7  11   15.53    1.38
   1  -7  11   70.82    2.92
   2  -7  11   23.85    1.76
   3  -7  11    2.24    1.15
   4  -7  11   58.19    2.81
   5  -7  11    2.59    1.27
   6  -7  11   15.63    1.64
   7  -7  11   16.98    1.68
  -5  -6  11   31.82    2.74
  -4  -6  11    9.13    1.78
  -3  -6  11   30.01    2.27
  -2  -6  11   65.79    2.85
  -1  -6  11   -0.13    0.95
   0  -6  11  100.99    3.18
   1  -6  11   37.98    1.94
   2  -6  11    5.77    1.11
   3  -6  11  136.46    3.46
   4  -6  11   14.36    1.78
   5  -6  11   30.56    1.86
   6  -6  11   28.88    2.16
   7  -6  11    9.86    1.71
  -5  -5  11   13.52    1.99
  -4  -5  11   15.47    1.85
  -3  -5  11   29.82    2.14
  -2  -5  11    7.43    1.16
  -1  -5  11   73.86    2.46
   0  -5  11   38.38    1.76
   1  -5  11   18.19    1.39
   2  -5  11  123.40    3.19
   3  -5  11    3.84    1.06
   4  -5  11   65.57    2.12
   5  -5  11   80.22    4.38
   6  -5  11    1.81    1.31
   7  -5  11   33.82    2.57
  -6  -4  11    4.98    1.71
  -5  -4  11   29.12    2.39
  -4  -4  11   41.19    2.49
  -3  -4  11    7.80    1.37
  -2  -4  11   45.02    1.86
  -1  -4  11    8.42    1.08
   0  -4  11   70.48    1.97
   1  -4  11   31.37    1.38
   2  -4  11   11.15    1.11
   3  -4  11   45.68    1.76
   4  -4  11   64.44    2.47
   5  -4  11    1.64    1.07
   6  -4  11   49.69    2.39
   7  -4  11    4.93    1.41
  -7  -3  11    0.99    1.49
  -6  -3  11   40.14    2.76
  -5  -3  11   77.31    3.38
  -4  -3  11   15.48    1.77
  -3  -3  11   85.86    2.84
  -2  -3  11    1.49    0.81
  -1  -3  11   48.51    1.67
   0  -3  11   34.60    1.51
   1  -3  11   16.46    1.16
   2  -3  11   32.30    1.43
   3  -3  11    7.90    1.14
   4  -3  11   37.44    2.13
   5  -3  11   37.71    2.20
   6  -3  11    4.91    1.40
  -7  -2  11   49.46    3.17
  -6  -2  11   26.80    2.38
  -5  -2  11    2.47    1.26
  -4  -2  11  146.92    4.42
  -3  -2  11   12.11    1.26
  -2  -2  11   93.87    2.31
  -1  -2  11  126.31    2.77
   0  -2  11   51.42    1.72
   1  -2  11   56.29    1.91
   2  -2  11    3.60    0.85
   3  -2  11   69.87    2.58
   4  -2  11   44.28    2.16
   5  -2  11    0.50    1.23
   6  -2  11   25.78    2.60
  -8  -1  11   17.34    2.40
  -7  -1  11    7.40    1.77
  -6  -1  11   18.34    2.15
  -5  -1  11   47.31    2.72
  -4  -1  11   12.26    1.71
  -3  -1  11   64.58    2.63
  -2  -1  11  165.64    3.41
  -1  -1  11   13.07    1.13
   0  -1  11  168.85    3.19
   1  -1  11   -0.19    0.66
   2  -1  11   48.17    2.02
   3  -1  11   51.18    2.37
   4  -1  11   12.03    1.54
   5  -1  11   47.42    3.24
   6  -1  11   18.24    2.59
  -8   0  11    0.05    1.44
  -7   0  11   20.54    2.27
  -6   0  11   42.16    2.77
  -5   0  11    0.33    1.15
  -4   0  11   48.95    2.48
  -3   0  11   69.89    2.01
  -2   0  11   10.05    1.10
  -1   0  11  148.50    3.01
   0   0  11   44.66    1.85
   1   0  11   95.16    2.63
   2   0  11   50.11    2.11
   3   0  11   19.21    1.95
   4   0  11   53.57    2.96
   5   0  11    2.38    1.77
  -8   1  11   26.47    2.39
  -7   1  11   14.72    1.89
  -6   1  11   20.67    1.83
  -5   1  11   43.97    2.26
  -4   1  11   17.50    1.47
  -3   1  11   91.74    2.55
  -2   1  11   80.63    2.32
  -1   1  11   13.61    1.29
   0   1  11   75.03    2.42
   1   1  11   25.10    1.87
   2   1  11    8.10    1.35
   3   1  11   56.66    2.87
   4   1  11    3.25    1.80
  -8   2  11    8.88    2.18
  -7   2  11   17.65    1.91
  -6   2  11   59.67    2.73
  -5   2  11    1.11    0.84
  -4   2  11   49.94    2.48
  -3   2  11   44.39    2.21
  -2   2  11    1.01    1.02
  -1   2  11  133.01    3.89
   0   2  11   53.87    2.37
   1   2  11   26.20    2.03
   2   2  11   62.14    2.90
   3   2  11    2.43    1.73
   4   2  11   23.00    2.94
  -8   3  11    4.66    1.89
  -7   3  11   38.91    2.48
  -6   3  11    2.47    1.22
  -5   3  11   38.61    1.89
  -4   3  11   43.81    2.32
  -3   3  11    9.50    1.38
  -2   3  11  153.07    4.39
  -1   3  11   12.26    1.43
   0   3  11   25.06    2.12
   1   3  11   95.03    3.61
   2   3  11   -0.19    1.23
   3   3  11   63.30    4.34
  -8   4  11   32.72    3.02
  -7   4  11    2.68    1.61
  -6   4  11   31.40    2.26
  -5   4  11   24.48    1.81
  -4   4  11    2.71    1.17
  -3   4  11   40.40    2.51
  -2   4  11   14.67    1.78
  -1   4  11   25.99    2.00
   0   4  11   99.38    3.80
   1   4  11    1.83    1.40
   2   4  11   73.28    3.48
  -7   5  11   27.96    2.67
  -6   5  11   11.86    1.75
  -5   5  11    4.04    1.26
  -4   5  11   48.14    2.80
  -3   5  11    1.45    1.35
  -2   5  11   35.61    2.57
  -1   5  11   40.05    2.56
   0   5  11    1.18    1.41
  -6   6  11   13.63    1.90
  -5   6  11   51.80    2.93
  -4   6  11    6.20    1.67
  -3   6  11   41.05    2.87
  -2   6  11    3.54    1.60
   2 -10  12   15.19    1.68
   3 -10  12    2.01    1.37
   4 -10  12   14.70    2.05
  -1  -9  12   -0.05    1.43
   0  -9  12   28.55    2.48
   1  -9  12   27.88    2.05
   2  -9  12    2.39    1.11
   3  -9  12   25.31    2.44
   4  -9  12    4.83    1.74
   5  -9  12    4.13    1.61
  -2  -8  12    1.38    1.84
  -1  -8  12   61.47    3.26
   0  -8  12    7.96    1.42
   1  -8  12    4.11    1.39
   2  -8  12   67.02    2.84
   3  -8  12    0.36    1.38
   4  -8  12    9.30    1.66
   5  -8  12   11.43    1.68
   6  -8  12   -0.36    1.23
  -3  -7  12    3.06    1.71
  -2  -7  12   45.52    3.08
  -1  -7  12   27.53    2.90
   0  -7  12   38.41    2.53
   1  -7  12   98.05    3.65
   2  -7  12    3.13    1.22
   3  -7  12   39.04    1.95
   4  -7  12   27.63    2.27
   5  -7  12    2.82    1.39
   6  -7  12   24.30    2.13
  -4  -6  12   -0.13    1.99
  -3  -6  12   23.42    2.52
  -2  -6  12   44.83    2.94
  -1  -6  12   20.57    1.83
   0  -6  12   90.70    3.27
   1  -6  12   -0.18    1.11
   2  -6  12   90.38    3.02
   3  -6  12   28.83    1.77
   4  -6  12    6.54    1.55
   5  -6  12   41.64    2.60
   6  -6  12    3.02    1.44
  -5  -5  12    1.88    1.48
  -4  -5  12   25.77    2.30
  -3  -5  12   19.76    1.98
  -2  -5  12   11.60    1.51
  -1  -5  12   47.42    2.14
   0  -5  12    0.17    1.01
   1  -5  12   97.22    2.94
   2  -5  12   86.86    3.03
   3  -5  12   30.14    1.89
   4  -5  12   54.76    2.34
   5  -5  12    2.03    1.01
   6  -5  12   25.10    2.37
  -6  -4  12   15.12    2.23
  -5  -4  12   44.09    2.87
  -4  -4  12    0.75    1.17
  -3  -4  12   27.18    2.12
  -2  -4  12   35.52    2.01
  -1  -4  12    0.07    0.87
   0  -4  12   83.99    2.57
   1  -4  12   10.04    1.37
   2  -4  12   61.01    2.39
   3  -4  12   63.45    2.59
   4  -4  12    2.88    1.15
   5  -4  12   36.23    2.11
   6  -4  12   20.67    1.86
  -6  -3  12   49.69    3.13
  -5  -3  12   -0.42    1.20
  -4  -3  12   64.08    3.19
  -3  -3  12   72.35    3.13
  -2  -3  12    9.63    1.36
  -1  -3  12   32.01    1.59
   0  -3  12    5.43    1.01
   1  -3  12   41.06    1.85
   2  -3  12   90.57    2.87
   3  -3  12    6.57    1.07
   4  -3  12   65.21    3.26
   5  -3  12    8.70    1.54
   6  -3  12   20.36    2.33
  -7  -2  12   33.75    2.83
  -6  -2  12   -0.86    1.24
  -5  -2  12   88.22    3.69
  -4  -2  12   62.50    3.07
  -3  -2  12   17.68    1.90
  -2  -2  12   86.49    2.38
  -1  -2  12   30.19    1.54
   0  -2  12   32.96    1.74
   1  -2  12   78.72    2.48
   2  -2  12    6.35    1.13
   3  -2  12   77.95    2.79
   4  -2  12    8.42    1.57
   5  -2  12   58.00    3.49
  -7  -1  12    0.22    1.44
  -6  -1  12   42.00    2.89
  -5  -1  12   16.58    2.05
  -4  -1  12   38.33    2.61
  -3  -1  12  106.48    2.98
  -2  -1  12   15.28    1.41
  -1  -1  12   39.41    1.78
   0  -1  12   89.92    2.50
   1  -1  12   -0.64    0.79
   2  -1  12   63.94    2.60
   3  -1  12   23.57    1.89
   4  -1  12   28.18    2.68
   5  -1  12   47.83    3.43
  -7   0  12   16.99    2.22
  -6   0  12    3.99    1.51
  -5   0  12   64.21    3.34
  -4   0  12   64.58    3.38
  -3   0  12    0.98    0.78
  -2   0  12   94.86    2.40
  -1   0  12   39.67    1.61
   0   0  12    3.83    1.02
   1   0  12   73.77    2.60
   2   0  12   16.95    1.78
   3   0  12   11.98    1.86
   4   0  12   44.13    3.33
  -8   1  12   32.84    3.25
  -7   1  12    5.29    1.59
  -6   1  12   32.89    2.50
  -5   1  12   51.59    2.55
  -4   1  12   24.03    1.84
  -3   1  12  143.74    3.79
  -2   1  12    9.38    1.30
  -1   1  12   58.73    2.68
   0   1  12   78.07    2.75
   1   1  12    0.47    1.04
   2   1  12   19.75    1.86
   3   1  12   22.19    2.19
   4   1  12    1.69    1.67
  -8   2  12    8.92    2.35
  -7   2  12   18.28    2.02
  -6   2  12   26.55    2.15
  -5   2  12   16.84    1.76
  -4   2  12  132.15    3.76
  -3   2  12    9.29    1.38
  -2   2  12  101.89    3.56
  -1   2  12   97.88    3.46
   0   2  12   12.22    1.55
   1   2  12   81.67    3.29
   2   2  12   17.12    1.93
   3   2  12    6.13    2.13
  -8   3  12    7.03    2.05
  -7   3  12   34.92    2.69
  -6   3  12   -0.21    1.24
  -5   3  12   47.38    2.17
  -4   3  12   12.21    1.76
  -3   3  12   78.65    3.33
  -2   3  12   62.26    3.00
  -1   3  12   10.46    1.70
   0   3  12  159.31    4.27
   1   3  12   14.42    1.93
   2   3  12   22.96    2.51
  -7   4  12    0.33    1.55
  -6   4  12   20.33    2.05
  -5   4  12   10.12    1.48
  -4   4  12   43.81    2.72
  -3   4  12   32.21    2.43
  -2   4  12    1.94    1.33
  -1   4  12   72.95    3.08
   0   4  12    5.40    1.44
   1   4  12   50.31    3.08
  -6   5  12   -0.18    1.71
  -5   5  12    4.91    1.35
  -4   5  12   29.84    2.48
  -3   5  12    0.80    1.41
  -2   5  12   65.78    3.42
  -1   5  12    3.06    1.39
   0  -9  13   32.35    3.27
   1  -9  13    1.79    1.52
   2  -9  13   29.08    2.16
   3  -9  13   32.39    2.83
   4  -9  13    1.40    1.71
  -2  -8  13   17.97    2.86
  -1  -8  13   32.42    3.44
   0  -8  13   -0.33    1.67
   1  -8  13   38.50    2.60
   2  -8  13   23.27    2.01
   3  -8  13    5.98    1.97
   4  -8  13   51.44    2.98
   5  -8  13    5.02    1.66
  -3  -7  13   21.68    3.24
  -2  -7  13   21.72    3.09
  -1  -7  13    2.55    1.82
   0  -7  13   46.31    2.94
   1  -7  13   11.34    1.78
   2  -7  13    7.46    1.52
   3  -7  13   82.51    2.86
   4  -7  13    3.30    1.58
   5  -7  13   28.73    2.42
   6  -7  13   27.64    2.32
  -4  -6  13   13.54    2.31
  -3  -6  13   27.78    2.81
  -2  -6  13   -0.02    1.32
  -1  -6  13   54.31    3.23
   0  -6  13    8.31    1.66
   1  -6  13    6.49    1.38
   2  -6  13   45.76    2.40
   3  -6  13    1.15    1.13
   4  -6  13   41.17    2.01
   5  -6  13   54.49    4.05
   6  -6  13    6.41    1.51
  -5  -5  13   32.96    2.76
  -4  -5  13   31.67    2.55
  -3  -5  13    6.83    1.57
  -2  -5  13   64.24    3.53
  -1  -5  13    3.96    1.31
   0  -5  13    9.06    1.37
   1  -5  13   27.99    1.88
   2  -5  13    2.08    1.22
   3  -5  13   33.44    2.08
   4  -5  13   30.09    1.96
   5  -5  13    6.91    1.22
   6  -5  13   30.08    2.66
  -5  -4  13   21.22    2.25
  -4  -4  13   11.90    1.86
  -3  -4  13   71.58    3.25
  -2  -4  13   11.77    1.74
  -1  -4  13   93.64    2.71
   0  -4  13   55.64    2.48
   1  -4  13   11.09    1.48
   2  -4  13   37.54    2.27
   3  -4  13    5.67    1.32
   4  -4  13   16.90    1.59
   5  -4  13   30.01    2.21
  -6  -3  13   21.94    2.60
  -5  -3  13   24.17    2.39
  -4  -3  13   59.71    3.31
  -3  -3  13    6.55    1.54
  -2  -3  13  120.95    4.08
  -1  -3  13   95.21    2.81
   0  -3  13   40.11    1.94
   1  -3  13   46.77    2.31
   2  -3  13    1.01    1.03
   3  -3  13   55.80    2.73
   4  -3  13   27.88    2.16
   5  -3  13    2.18    1.67
  -6  -2  13    4.95    1.74
  -5  -2  13   60.69    3.33
  -4  -2  13   -0.13    1.23
  -3  -2  13   52.23    2.93
  -2  -2  13   69.34    2.68
  -1  -2  13   13.32    1.38
   0  -2  13   81.53    2.67
   1  -2  13   30.77    1.78
   2  -2  13   68.16    2.50
   3  -2  13   22.11    2.04
   4  -2  13   10.50    1.99
   5  -2  13   26.59    2.83
  -7  -1  13   17.10    2.40
  -6  -1  13    5.14    1.74
  -5  -1  13    0.30    1.37
  -4  -1  13   35.46    2.67
  -3  -1  13   55.48    3.10
  -2  -1  13   28.85    1.89
  -1  -1  13  152.96    4.08
   0  -1  13    2.58    1.09
   1  -1  13   25.63    1.87
   2  -1  13   47.09    2.45
   3  -1  13   14.77    2.15
   4  -1  13   31.32    2.93
  -7   0  13    9.02    2.08
  -6   0  13    2.72    1.66
  -5   0  13   18.26    2.30
  -4   0  13    0.65    1.21
  -3   0  13   35.20    1.73
  -2   0  13   80.04    2.59
  -1   0  13    0.64    0.90
   0   0  13   84.41    2.79
   1   0  13   44.85    2.08
   2   0  13    8.46    1.67
   3   0  13   26.85    2.47
   4   0  13    3.95    1.90
  -7   1  13    7.42    1.90
  -6   1  13   34.42    2.65
  -5   1  13    6.03    1.43
  -4   1  13   52.19    2.60
  -3   1  13   29.34    2.00
  -2   1  13    2.27    1.13
  -1   1  13  143.81    4.24
   0   1  13   33.70    2.29
   1   1  13   36.74    2.20
   2   1  13   98.74    3.98
   3   1  13   -0.47    1.43
  -7   2  13   53.98    3.00
  -6   2  13    4.42    1.46
  -5   2  13   35.63    2.39
  -4   2  13   15.00    1.69
  -3   2  13    8.58    1.65
  -2   2  13   86.23    3.47
  -1   2  13    9.37    1.62
   0   2  13   46.80    2.45
   1   2  13   85.80    3.20
   2   2  13    1.72    1.60
  -7   3  13    1.17    1.68
  -6   3  13   30.57    2.38
  -5   3  13   19.27    1.96
  -4   3  13   -0.35    1.22
  -3   3  13   42.16    2.69
  -2   3  13    0.76    1.23
  -1   3  13   25.14    2.27
   0   3  13   59.13    2.84
   1   3  13    0.80    1.41
  -6   4  13   19.94    2.09
  -5   4  13    5.24    1.65
  -4   4  13   23.49    2.31
  -3   4  13    1.08    1.45
  -2   4  13   19.47    2.20
  -1   4  13   11.50    1.90
  -4   5  13    2.82    1.58
  -3   5  13   17.48    2.30
   2  -9  14   24.21    2.18
  -1  -8  14    6.46    2.43
   0  -8  14    5.15    2.19
   1  -8  14   80.66    3.74
   2  -8  14    4.44    1.53
   3  -8  14   38.13    3.47
   4  -8  14    5.88    1.90
  -2  -7  14    4.74    2.15
  -1  -7  14    4.99    2.17
   0  -7  14   47.86    3.81
   1  -7  14    0.66    1.42
   2  -7  14   40.87    2.64
   3  -7  14   21.03    1.80
   4  -7  14   20.27    2.31
   5  -7  14   21.17    2.33
  -3  -6  14    7.21    2.12
  -2  -6  14    5.22    1.81
  -1  -6  14   36.75    3.59
   0  -6  14    0.23    1.53
   1  -6  14   44.68    2.63
   2  -6  14   10.49    1.63
   3  -6  14   13.09    1.65
   4  -6  14   35.75    2.05
   5  -6  14    0.72    1.56
  -4  -5  14    0.68    1.69
  -3  -5  14   31.98    3.00
  -2  -5  14   26.46    2.93
  -1  -5  14    2.50    1.67
   0  -5  14   27.34    2.18
   1  -5  14   18.68    1.93
   2  -5  14   20.46    1.94
   3  -5  14   18.36    1.81
   4  -5  14    1.40    1.23
   5  -5  14   35.48    2.20
  -5  -4  14    0.94    1.52
  -4  -4  14   68.87    3.80
  -3  -4  14   34.69    2.61
  -2  -4  14    2.88    1.72
  -1  -4  14   61.97    2.97
   0  -4  14   23.28    1.95
   1  -4  14   40.69    2.49
   2  -4  14   41.01    2.47
   3  -4  14    2.13    1.28
   4  -4  14   32.71    2.15
   5  -4  14    1.40    1.60
  -5  -3  14   31.94    2.78
  -4  -3  14   23.82    2.40
  -3  -3  14   35.93    2.66
  -2  -3  14   72.87    3.47
  -1  -3  14    5.22    1.30
   0  -3  14   66.38    2.90
   1  -3  14   77.90    2.95
   2  -3  14   -1.46    1.06
   3  -3  14   40.96    2.62
   4  -3  14    2.98    1.45
  -6  -2  14   19.40    2.49
  -5  -2  14    5.19    1.76
  -4  -2  14   34.50    2.73
  -3  -2  14   35.17    2.71
  -2  -2  14    0.44    1.30
  -1  -2  14   28.39    2.00
   0  -2  14   49.96    2.47
   1  -2  14    2.30    1.28
   2  -2  14   68.05    3.67
   3  -2  14   25.58    2.31
   4  -2  14   18.20    2.51
  -6  -1  14    7.17    1.97
  -5  -1  14   20.94    2.49
  -4  -1  14   16.94    2.41
  -3  -1  14    1.00    1.38
  -2  -1  14   35.07    2.15
  -1  -1  14   10.53    1.52
   0  -1  14   19.92    1.81
   1  -1  14   46.75    2.78
   2  -1  14   15.11    1.79
   3  -1  14    9.72    2.18
  -6   0  14   26.09    2.50
  -5   0  14   36.90    2.68
  -4   0  14    2.97    1.42
  -3   0  14   84.03    3.44
  -2   0  14    0.31    1.11
  -1   0  14   40.20    2.14
   0   0  14   31.27    2.19
   1   0  14   -0.22    1.18
   2   0  14   23.28    2.18
   3   0  14   29.61    3.11
  -6   1  14   37.81    2.92
  -5   1  14    3.76    1.39
  -4   1  14   76.01    3.14
  -3   1  14    6.08    1.57
  -2   1  14   46.73    2.69
  -1   1  14   47.24    2.68
   0   1  14   14.77    1.92
   1   1  14   68.57    3.20
   2   1  14   15.61    1.92
  -6   2  14    1.83    1.40
  -5   2  14   67.23    3.10
  -4   2  14   21.44    2.22
  -3   2  14   27.65    2.35
  -2   2  14   53.88    2.93
  -1   2  14   18.93    2.08
   0   2  14   70.44    3.29
   1   2  14    5.45    1.62
  -6   3  14   22.43    2.31
  -5   3  14    3.83    1.62
  -4   3  14   16.21    1.90
  -3   3  14   46.53    2.91
  -2   3  14   -0.42    1.34
  -1   3  14   60.92    3.24
  -4   4  14   16.46    2.17
  -3   4  14    2.16    1.52
   1  -8  15   15.27    2.74
   2  -8  15    5.85    1.71
  -1  -7  15   28.48    3.65
   0  -7  15    6.96    2.33
   1  -7  15    6.14    2.29
   2  -7  15   23.40    2.15
   3  -7  15   -0.60    1.27
  -3  -6  15    2.31    2.25
  -2  -6  15   47.29    4.30
  -1  -6  15    7.34    2.44
   0  -6  15   12.27    2.78
   1  -6  15   15.64    2.05
   2  -6  15    0.68    1.42
   3  -6  15   15.80    1.91
   4  -6  15   10.77    1.63
  -3  -5  15   70.32    4.28
  -2  -5  15   -0.62    1.67
  -1  -5  15   37.30    3.86
   0  -5  15   34.42    2.87
   1  -5  15   11.66    2.09
   2  -5  15   27.27    2.27
   3  -5  15    8.42    1.61
   4  -5  15    9.47    1.66
  -4  -4  15   41.67    3.56
  -3  -4  15    4.03    1.96
  -2  -4  15   73.87    4.31
  -1  -4  15   50.14    3.71
   0  -4  15    6.19    1.82
   1  -4  15   48.43    3.19
   2  -4  15    2.47    1.59
   3  -4  15   27.46    2.63
   4  -4  15   16.74    2.28
  -5  -3  15    7.47    2.05
  -4  -3  15    7.24    1.86
  -3  -3  15   53.05    3.28
  -2  -3  15   70.25    4.28
  -1  -3  15   34.87    3.32
   0  -3  15   97.23    3.49
   1  -3  15    2.48    1.57
   2  -3  15   38.11    2.92
   3  -3  15   39.06    3.13
  -5  -2  15    3.23    1.78
  -4  -2  15   14.44    2.35
  -3  -2  15    5.64    1.88
  -2  -2  15   47.49    3.15
  -1  -2  15   64.51    3.22
   0  -2  15    8.90    1.69
   1  -2  15   80.29    3.55
   2  -2  15   21.52    2.49
   3  -2  15    5.80    1.70
  -5  -1  15   20.72    2.67
  -4  -1  15    1.61    1.66
  -3  -1  15   15.99    2.30
  -2  -1  15   19.83    2.35
  -1  -1  15    0.70    1.20
   0  -1  15   54.66    3.02
   1  -1  15   42.95    2.85
   2  -1  15   35.50    2.84
  -5   0  15    6.01    1.82
  -4   0  15   12.03    2.23
  -3   0  15   37.26    3.06
  -2   0  15   15.19    2.25
  -1   0  15   56.21    2.81
   0   0  15    6.73    1.71
   1   0  15   32.06    2.68
   2   0  15   41.87    2.96
  -5   1  15   29.19    3.01
  -4   1  15   22.03    2.36
  -3   1  15    0.37    1.40
  -2   1  15   48.05    2.46
  -1   1  15    8.64    1.68
   0   1  15   24.26    2.24
   1   1  15   52.64    2.67
  -5   2  15   20.57    2.34
  -4   2  15    2.15    1.54
  -3   2  15   47.98    2.98
  -2   2  15    4.29    1.57
  -1   2  15   19.88    2.19
   1  -7  16   28.86    3.55
  -1  -6  16    1.75    2.35
   0  -6  16   27.04    3.71
   1  -6  16   10.20    1.82
   2  -6  16   15.05    2.34
  -2  -5  16   19.00    3.40
  -1  -5  16   36.06    4.11
   0  -5  16    2.12    2.44
   1  -5  16   35.64    3.01
   2  -5  16   33.21    2.85
   3  -5  16    0.91    1.63
  -3  -4  16   10.22    2.62
  -2  -4  16   15.06    2.78
  -1  -4  16    1.59    2.38
   0  -4  16   36.97    4.06
   1  -4  16   41.75    3.19
   2  -4  16    0.55    1.67
  -4  -3  16   15.45    2.88
  -3  -3  16   15.02    2.75
  -2  -3  16    2.99    2.21
  -1  -3  16   37.22    3.55
   0  -3  16   12.74    2.21
   1  -3  16    6.26    1.91
   2  -3  16   46.08    3.47
  -4  -2  16   30.82    3.03
  -3  -2  16    2.27    1.79
  -2  -2  16   25.05    3.22
  -1  -2  16    0.09    1.88
   0  -2  16   22.50    2.33
   1  -2  16   28.77    2.81
   2  -2  16    6.90    2.01
  -4  -1  16    5.89    2.17
  -3  -1  16   33.33    3.41
  -2  -1  16    5.45    2.20
  -1  -1  16   41.02    3.56
   0  -1  16   14.84    2.09
   1  -1  16    3.33    1.81
  -4   0  16   62.18    3.96
  -3   0  16    5.97    1.98
  -2   0  16   23.61    2.64
  -1   0  16   17.16    2.18
   0   0  16   18.32    2.29
  -3   1  16   21.10    2.10
  -2   1  16   40.54    2.81
  -1  -4  17    6.45    2.89
   0  -4  17   49.80    4.64
  -2  -3  17    0.76    2.26
  -1  -3  17   26.38    3.98
   0  -3  17   -1.81    2.01
  -2  -2  17   29.34    3.60
  -1  -2  17   -1.03    1.83
   0   0   0    0.00    0.00
;
_shelx_hkl_checksum              73726
_shelx_res_file
;
TITL 09gs01 = HgIPh = ac003gs2n in P-1, Mo, -173, 7/02/2009
CELL  0.71073    8.5198    9.4709   13.9682   105.050    95.083   115.081
ZERR 2           0.0003    0.0003    0.0007     0.003     0.003     0.002
LATT   1
SFAC     C    H  CL  HG   N   O   S
UNIT    32   28   4   2   8   4   2
EQIV $1 x-1, y, z
EQIV $2 x+1, y, z
EQIV $3 x-1, y-1, z
BOND $H
CONF
HTAB
HTAB C3 Cl2_$1
HTAB C19 O1_$2
HTAB C113 Cl2_$3
MERG 2
FMAP 2
PLAN -10
L.S. 10
MPLA 5 C16 N12 N13 C17 N14 HG1 S1
MPLA 6 N11 C11 C12 C13 C14 C15 HG1 C16
MPLA 6 C18 C19 C110 C111 C112 C113 N14
MPLA 5 C16 N12 N13 C17 N14 HG1 S1
MPLA 5 S1 C1 C2 O1 O2 C3
MPLA 6 N11 C11 C12 C13 C14 C15 HG1 C16
ACTA
SIZE 0.03 0.04 0.08
TEMP -173
WGHT    0.021200    3.248500
FVAR       0.13406
HG1   4    0.807048    1.285471    0.388929    11.00000    0.02498    0.01219 =
         0.01726    0.00031    0.00269    0.00464
CL1   3    0.775342    1.493725    0.506695    11.00000    0.02513    0.01597 =
         0.02711   -0.00307    0.00430    0.00614
CL2   3    0.899220    1.199375    0.240017    11.00000    0.02654    0.04466 =
         0.02184   -0.00066    0.00690    0.01087
S1    7    0.279625    0.632773    0.067358    11.00000    0.03355    0.02121 =
         0.01902   -0.00193   -0.00298    0.00973
O1    6   -0.019928    0.697080    0.126107    11.00000    0.02382    0.03373 =
         0.02308    0.00722    0.00313    0.00268
O2    6   -0.037966    0.822171    0.011382    11.00000    0.05543    0.04637 =
         0.04447    0.01657    0.02086    0.03579
N11   5    0.790283    1.096753    0.480838    11.00000    0.02156    0.01252 =
         0.01934    0.00307    0.00302    0.00311
N12   5    0.520849    1.007397    0.315036    11.00000    0.01412    0.01485 =
         0.02367    0.00259   -0.00094    0.00066
N13   5    0.413563    0.934378    0.217174    11.00000    0.02216    0.01312 =
         0.01636   -0.00486   -0.00329    0.00386
N14   5    0.476605    0.752088    0.260193    11.00000    0.02083    0.01188 =
         0.01712    0.00209    0.00496    0.00492
C1    1    0.183732    0.740477    0.014775    11.00000    0.02903    0.02713 =
         0.01729    0.00498    0.00149    0.01010
AFIX  23
H1A   2    0.278018    0.853515    0.025508    11.00000   -1.20000
H1B   2    0.138239    0.683201   -0.059542    11.00000   -1.20000
AFIX   0
C2    1    0.035541    0.751580    0.060438    11.00000    0.02772    0.01306 =
         0.02101    0.00060    0.00397    0.00304
C3    1   -0.201389    0.825481    0.042160    11.00000    0.05565    0.05066 =
         0.05552    0.01903    0.01020    0.02596
AFIX 137
H3A   2   -0.294501    0.712197    0.028103    11.00000   -1.50000
H3B   2   -0.243935    0.879978    0.003371    11.00000   -1.50000
H3C   2   -0.172254    0.886426    0.115070    11.00000   -1.50000
AFIX   0
C11   1    0.894128    1.143725    0.573140    11.00000    0.02454    0.01647 =
         0.02155    0.00052    0.00148    0.00299
AFIX  43
H11   2    0.977292    1.256993    0.604945    11.00000   -1.20000
AFIX   0
C12   1    0.884414    1.033375    0.623495    11.00000    0.02624    0.02672 =
         0.01957    0.00597    0.00394    0.00863
AFIX  43
H12   2    0.958042    1.070588    0.689195    11.00000   -1.20000
AFIX   0
C13   1    0.766398    0.868872    0.576878    11.00000    0.03222    0.01945 =
         0.01990    0.00498    0.00780    0.00915
AFIX  43
H13   2    0.759230    0.790351    0.609264    11.00000   -1.20000
AFIX   0
C14   1    0.657222    0.818830    0.481267    11.00000    0.02867    0.01341 =
         0.02144    0.00067    0.00666    0.00689
AFIX  43
H14   2    0.574338    0.705950    0.447671    11.00000   -1.20000
AFIX   0
C15   1    0.671931    0.935532    0.436901    11.00000    0.01776    0.01672 =
         0.01495    0.00270    0.00603    0.00646
C16   1    0.557479    0.898710    0.339069    11.00000    0.01174    0.01166 =
         0.02054    0.00404    0.00500    0.00117
C17   1    0.390339    0.781273    0.186529    11.00000    0.01723    0.01615 =
         0.02059    0.00708    0.00362    0.00285
C18   1    0.493176    0.602730    0.246157    11.00000    0.02758    0.01228 =
         0.01168   -0.00072    0.00414    0.00651
C19   1    0.652847    0.606190    0.232108    11.00000    0.02506    0.01493 =
         0.01526    0.00267    0.00446    0.00426
AFIX  43
H19   2    0.750920    0.706077    0.234528    11.00000   -1.20000
AFIX   0
C110  1    0.668616    0.462737    0.214470    11.00000    0.03617    0.02324 =
         0.02683    0.00764    0.00758    0.01571
AFIX  43
H110  2    0.778843    0.464448    0.206260    11.00000   -1.20000
AFIX   0
C111  1    0.524852    0.317220    0.208760    11.00000    0.04284    0.01694 =
         0.01655    0.00206    0.00120    0.01332
AFIX  43
H111  2    0.535843    0.218688    0.196290    11.00000   -1.20000
AFIX   0
C112  1    0.363230    0.314822    0.221313    11.00000    0.03559    0.01326 =
         0.01801    0.00323    0.00301    0.00261
AFIX  43
H112  2    0.263567    0.213983    0.215911    11.00000   -1.20000
AFIX   0
C113  1    0.347333    0.458213    0.241544    11.00000    0.02558    0.02062 =
         0.01918    0.00498    0.00605    0.00511
AFIX  43
H113  2    0.238529    0.457802    0.252096    11.00000   -1.20000
AFIX   0
HKLF 4
REM  09gs01 = HgIPh = ac003gs2n in P-1, Mo, -173, 7/02/2009
REM R1 =  0.0279 for    3341 Fo > 4sig(Fo)  and  0.0352 for all    3765 data
REM    236 parameters refined using      0 restraints
END
WGHT      0.0209      3.2913
REM Instructions for potential hydrogen bonds
HTAB C3 Cl2_$1
HTAB C19 O1_$2
HTAB C113 Cl2_$3
REM Highest difference peak  1.830,  deepest hole -1.155,  1-sigma level  0.143
Q1    1  -0.3206  0.8633  0.0322  11.00000  0.05    1.83
Q2    1   0.9162  1.2975  0.2418  11.00000  0.05    1.66
Q3    1   0.0656  0.8968  0.0758  11.00000  0.05    1.31
Q4    1   0.7994  1.1474  0.3227  11.00000  0.05    0.65
Q5    1   0.4417  0.8818  0.1777  11.00000  0.05    0.55
Q6    1   0.4028  0.7272  0.0289  11.00000  0.05    0.54
Q7    1   0.9578  1.2875  0.3625  11.00000  0.05    0.52
Q8    1   0.0624  0.6966  0.1816  11.00000  0.05    0.51
Q9    1   0.7274  0.9807  0.1084  11.00000  0.05    0.49
Q10   1   0.2733  0.5020  0.3119  11.00000  0.05    0.49
;
_shelx_res_checksum              29514
_shelxl_version_number           2.013
loop_
_space_group_symop_operation_xyz
'x, y, z'
'-x, -y, -z'
loop_
_atom_site_type_symbol
_atom_site_label
_atom_site_fract_x
_atom_site_fract_y
_atom_site_fract_z
_atom_site_U_iso_or_equiv
_atom_site_adp_type
_atom_site_calc_flag
_atom_site_occupancy
Hg Hg1 0.80705(3) 1.28547(2) 0.38893(2) 0.02077(7) Uani d 1
Cl Cl1 0.77534(17) 1.49373(15) 0.50670(10) 0.0263(3) Uani d 1
Cl Cl2 0.89922(18) 1.19938(19) 0.24002(11) 0.0355(3) Uani d 1
S S1 0.27962(19) 0.63277(16) 0.06736(10) 0.0282(3) Uani d 1
O O1 -0.0199(5) 0.6971(5) 0.1261(3) 0.0315(9) Uani d 1
O O2 -0.0380(6) 0.8222(5) 0.0114(3) 0.0432(11) Uani d 1
N N11 0.7903(5) 1.0968(5) 0.4808(3) 0.0202(9) Uani d 1
N N12 0.5208(5) 1.0074(5) 0.3150(3) 0.0210(9) Uani d 1
N N13 0.4136(6) 0.9344(5) 0.2172(3) 0.0215(9) Uani d 1
N N14 0.4766(5) 0.7521(5) 0.2602(3) 0.0181(9) Uani d 1
C C1 0.1837(7) 0.7405(7) 0.0148(4) 0.0264(12) Uani d 1
H H1A 0.2780 0.8535 0.0255 0.032 Uiso calc 1
H H1B 0.1382 0.6832 -0.0595 0.032 Uiso calc 1
C C2 0.0355(7) 0.7516(6) 0.0604(4) 0.0242(12) Uani d 1
C C3 -0.2014(10) 0.8255(9) 0.0422(6) 0.0533(19) Uani d 1
H H3A -0.2945 0.7122 0.0281 0.080 Uiso calc 1
H H3B -0.2439 0.8800 0.0034 0.080 Uiso calc 1
H H3C -0.1723 0.8864 0.1151 0.080 Uiso calc 1
C C11 0.8941(7) 1.1437(6) 0.5731(4) 0.0248(12) Uani d 1
H H11 0.9773 1.2570 0.6049 0.030 Uiso calc 1
C C12 0.8844(7) 1.0334(7) 0.6235(4) 0.0260(12) Uani d 1
H H12 0.9580 1.0706 0.6892 0.031 Uiso calc 1
C C13 0.7664(7) 0.8689(6) 0.5769(4) 0.0251(12) Uani d 1
H H13 0.7592 0.7904 0.6093 0.030 Uiso calc 1
C C14 0.6572(7) 0.8188(6) 0.4813(4) 0.0233(12) Uani d 1
H H14 0.5743 0.7060 0.4477 0.028 Uiso calc 1
C C15 0.6719(6) 0.9355(6) 0.4369(4) 0.0174(10) Uani d 1
C C16 0.5575(6) 0.8987(6) 0.3391(4) 0.0164(10) Uani d 1
C C17 0.3903(7) 0.7813(6) 0.1865(4) 0.0197(11) Uani d 1
C C18 0.4932(7) 0.6027(6) 0.2462(4) 0.0192(11) Uani d 1
C C19 0.6528(7) 0.6062(6) 0.2321(4) 0.0208(11) Uani d 1
H H19 0.7509 0.7061 0.2345 0.025 Uiso calc 1
C C110 0.6686(8) 0.4627(7) 0.2145(4) 0.0281(13) Uani d 1
H H110 0.7788 0.4644 0.2063 0.034 Uiso calc 1
C C111 0.5249(8) 0.3172(6) 0.2088(4) 0.0268(12) Uani d 1
H H111 0.5358 0.2187 0.1963 0.032 Uiso calc 1
C C112 0.3632(8) 0.3148(6) 0.2213(4) 0.0262(12) Uani d 1
H H112 0.2636 0.2140 0.2159 0.031 Uiso calc 1
C C113 0.3473(7) 0.4582(6) 0.2415(4) 0.0242(12) Uani d 1
H H113 0.2385 0.4578 0.2521 0.029 Uiso calc 1
loop_
_atom_site_aniso_label
_atom_site_aniso_U_11
_atom_site_aniso_U_22
_atom_site_aniso_U_33
_atom_site_aniso_U_12
_atom_site_aniso_U_13
_atom_site_aniso_U_23
Hg1 0.02498(12) 0.01219(10) 0.01726(11) 0.00464(8) 0.00269(8) 0.00031(7)
Cl1 0.0251(7) 0.0160(6) 0.0271(7) 0.0061(5) 0.0043(6) -0.0031(5)
Cl2 0.0265(7) 0.0447(9) 0.0218(7) 0.0109(7) 0.0069(6) -0.0007(6)
S1 0.0336(8) 0.0212(7) 0.0190(7) 0.0097(6) -0.0030(6) -0.0019(6)
O1 0.024(2) 0.034(2) 0.023(2) 0.0027(18) 0.0031(17) 0.0072(18)
O2 0.055(3) 0.046(3) 0.044(3) 0.036(2) 0.021(2) 0.017(2)
N11 0.022(2) 0.013(2) 0.019(2) 0.0031(18) 0.0030(18) 0.0031(18)
N12 0.014(2) 0.015(2) 0.024(2) 0.0007(18) -0.0009(18) 0.0026(18)
N13 0.022(2) 0.013(2) 0.016(2) 0.0039(18) -0.0033(18) -0.0049(18)
N14 0.021(2) 0.012(2) 0.017(2) 0.0049(18) 0.0050(18) 0.0021(17)
C1 0.029(3) 0.027(3) 0.017(3) 0.010(3) 0.001(2) 0.005(2)
C2 0.028(3) 0.013(2) 0.021(3) 0.003(2) 0.004(2) 0.001(2)
C3 0.056(5) 0.051(4) 0.056(5) 0.026(4) 0.010(4) 0.019(4)
C11 0.025(3) 0.016(3) 0.022(3) 0.003(2) 0.001(2) 0.001(2)
C12 0.026(3) 0.027(3) 0.020(3) 0.009(2) 0.004(2) 0.006(2)
C13 0.032(3) 0.019(3) 0.020(3) 0.009(2) 0.008(2) 0.005(2)
C14 0.029(3) 0.013(2) 0.021(3) 0.007(2) 0.007(2) 0.001(2)
C15 0.018(3) 0.017(2) 0.015(3) 0.006(2) 0.006(2) 0.003(2)
C16 0.012(2) 0.012(2) 0.021(3) 0.0012(19) 0.005(2) 0.004(2)
C17 0.017(3) 0.016(2) 0.021(3) 0.003(2) 0.004(2) 0.007(2)
C18 0.028(3) 0.012(2) 0.012(2) 0.007(2) 0.004(2) -0.001(2)
C19 0.025(3) 0.015(2) 0.015(3) 0.004(2) 0.004(2) 0.003(2)
C110 0.036(3) 0.023(3) 0.027(3) 0.016(3) 0.008(3) 0.008(2)
C111 0.043(3) 0.017(3) 0.017(3) 0.013(3) 0.001(2) 0.002(2)
C112 0.036(3) 0.013(2) 0.018(3) 0.003(2) 0.003(2) 0.003(2)
C113 0.026(3) 0.021(3) 0.019(3) 0.005(2) 0.006(2) 0.005(2)
loop_
_atom_type_symbol
_atom_type_description
_atom_type_scat_dispersion_real
_atom_type_scat_dispersion_imag
_atom_type_scat_source
C C 0.0033 0.0016 'International Tables Vol C Tables 4.2.6.8 and 6.1.1.4'
H H 0.0000 0.0000 'International Tables Vol C Tables 4.2.6.8 and 6.1.1.4'
Cl Cl 0.1484 0.1585 'International Tables Vol C Tables 4.2.6.8 and 6.1.1.4'
Hg Hg -2.3894 9.2266 'International Tables Vol C Tables 4.2.6.8 and 6.1.1.4'
N N 0.0061 0.0033 'International Tables Vol C Tables 4.2.6.8 and 6.1.1.4'
O O 0.0106 0.0060 'International Tables Vol C Tables 4.2.6.8 and 6.1.1.4'
S S 0.1246 0.1234 'International Tables Vol C Tables 4.2.6.8 and 6.1.1.4'
loop_
_geom_angle_atom_site_label_1
_geom_angle_atom_site_label_2
_geom_angle_atom_site_label_3
_geom_angle
_geom_angle_publ_flag
Cl1 Hg1 Cl2 148.93(5) y
Cl1 Hg1 N11 103.23(10) y
Cl2 Hg1 N11 106.15(11) y
Cl1 Hg1 N12 114.52(10) y
Cl2 Hg1 N12 86.27(10) y
N11 Hg1 N12 67.54(14) y
C17 S1 C1 98.7(2) ?
C2 O2 C3 115.4(5) ?
C11 N11 C15 118.1(4) ?
C11 N11 Hg1 123.5(3) ?
C15 N11 Hg1 118.5(3) ?
C16 N12 N13 108.6(4) ?
C16 N12 Hg1 106.3(3) ?
N13 N12 Hg1 128.4(3) ?
C17 N13 N12 105.8(4) ?
C17 N14 C16 104.8(4) ?
C17 N14 C18 124.4(4) ?
C16 N14 C18 130.2(4) ?
C2 C1 S1 113.4(4) ?
C2 C1 H1A 108.9 ?
S1 C1 H1A 108.9 ?
C2 C1 H1B 108.9 ?
S1 C1 H1B 108.9 ?
H1A C1 H1B 107.7 ?
O1 C2 O2 124.0(5) ?
O1 C2 C1 126.2(5) ?
O2 C2 C1 109.6(5) ?
O2 C3 H3A 109.5 ?
O2 C3 H3B 109.5 ?
H3A C3 H3B 109.5 ?
O2 C3 H3C 109.5 ?
H3A C3 H3C 109.5 ?
H3B C3 H3C 109.5 ?
N11 C11 C12 122.5(5) ?
N11 C11 H11 118.8 ?
C12 C11 H11 118.8 ?
C13 C12 C11 118.9(5) ?
C13 C12 H12 120.6 ?
C11 C12 H12 120.6 ?
C12 C13 C14 119.1(5) ?
C12 C13 H13 120.5 ?
C14 C13 H13 120.5 ?
C15 C14 C13 118.7(5) ?
C15 C14 H14 120.6 ?
C13 C14 H14 120.6 ?
N11 C15 C14 122.7(5) ?
N11 C15 C16 113.8(4) ?
C14 C15 C16 123.5(4) ?
N12 C16 N14 109.8(4) ?
N12 C16 C15 123.2(4) ?
N14 C16 C15 127.0(4) ?
N13 C17 N14 111.0(4) ?
N13 C17 S1 127.4(4) ?
N14 C17 S1 121.5(4) ?
C19 C18 C113 121.5(5) ?
C19 C18 N14 118.6(4) ?
C113 C18 N14 119.8(5) ?
C18 C19 C110 119.3(5) ?
C18 C19 H19 120.4 ?
C110 C19 H19 120.4 ?
C111 C110 C19 120.2(5) ?
C111 C110 H110 119.9 ?
C19 C110 H110 119.9 ?
C110 C111 C112 119.9(5) ?
C110 C111 H111 120.0 ?
C112 C111 H111 120.0 ?
C113 C112 C111 120.3(5) ?
C113 C112 H112 119.8 ?
C111 C112 H112 119.8 ?
C112 C113 C18 118.7(5) ?
C112 C113 H113 120.7 ?
C18 C113 H113 120.7 ?
loop_
_geom_bond_atom_site_label_1
_geom_bond_atom_site_label_2
_geom_bond_distance
_geom_bond_publ_flag
Hg1 Cl1 2.3483(12) y
Hg1 Cl2 2.3579(14) y
Hg1 N11 2.423(4) y
Hg1 N12 2.578(4) y
S1 C17 1.738(5) ?
S1 C1 1.799(5) ?
O1 C2 1.203(6) ?
O2 C2 1.351(7) ?
O2 C3 1.503(8) ?
N11 C11 1.345(7) ?
N11 C15 1.350(6) ?
N12 C16 1.305(6) ?
N12 N13 1.391(6) ?
N13 C17 1.321(6) ?
N14 C17 1.364(6) ?
N14 C16 1.370(6) ?
N14 C18 1.446(6) ?
C1 C2 1.494(8) ?
C1 H1A 0.9900 ?
C1 H1B 0.9900 ?
C3 H3A 0.9800 ?
C3 H3B 0.9800 ?
C3 H3C 0.9800 ?
C11 C12 1.383(7) ?
C11 H11 0.9500 ?
C12 C13 1.375(7) ?
C12 H12 0.9500 ?
C13 C14 1.397(7) ?
C13 H13 0.9500 ?
C14 C15 1.369(7) ?
C14 H14 0.9500 ?
C15 C16 1.472(7) ?
C18 C19 1.379(7) ?
C18 C113 1.386(7) ?
C19 C110 1.383(7) ?
C19 H19 0.9500 ?
C110 C111 1.379(8) ?
C110 H110 0.9500 ?
C111 C112 1.395(8) ?
C111 H111 0.9500 ?
C112 C113 1.381(7) ?
C112 H112 0.9500 ?
C113 H113 0.9500 ?
loop_
_geom_hbond_atom_site_label_D
_geom_hbond_atom_site_label_H
_geom_hbond_atom_site_label_A
_geom_hbond_site_symmetry_A
_geom_hbond_distance_DH
_geom_hbond_distance_HA
_geom_hbond_distance_DA
_geom_hbond_angle_DHA
C3 H3C Cl2 1_455 0.98 2.79 3.583(8) 138.2
C19 H19 O1 1_655 0.95 2.59 3.172(6) 119.9
C113 H113 Cl2 1_445 0.95 2.84 3.551(6) 132.3
loop_
_geom_torsion_atom_site_label_1
_geom_torsion_atom_site_label_2
_geom_torsion_atom_site_label_3
_geom_torsion_atom_site_label_4
_geom_torsion
C16 N12 N13 C17 0.1(5)
Hg1 N12 N13 C17 130.2(4)
C17 S1 C1 C2 -71.7(4)
C3 O2 C2 O1 -1.6(8)
C3 O2 C2 C1 173.9(5)
S1 C1 C2 O1 0.2(7)
S1 C1 C2 O2 -175.2(4)
C15 N11 C11 C12 0.4(8)
Hg1 N11 C11 C12 -178.9(4)
N11 C11 C12 C13 1.1(8)
C11 C12 C13 C14 -1.4(8)
C12 C13 C14 C15 0.2(8)
C11 N11 C15 C14 -1.7(7)
Hg1 N11 C15 C14 177.6(4)
C11 N11 C15 C16 176.5(4)
Hg1 N11 C15 C16 -4.2(5)
C13 C14 C15 N11 1.4(8)
C13 C14 C15 C16 -176.6(5)
N13 N12 C16 N14 -0.5(5)
Hg1 N12 C16 N14 -141.8(3)
N13 N12 C16 C15 178.6(4)
Hg1 N12 C16 C15 37.3(5)
C17 N14 C16 N12 0.7(5)
C18 N14 C16 N12 172.3(5)
C17 N14 C16 C15 -178.4(5)
C18 N14 C16 C15 -6.7(8)
N11 C15 C16 N12 -25.5(7)
C14 C15 C16 N12 152.7(5)
N11 C15 C16 N14 153.4(5)
C14 C15 C16 N14 -28.4(8)
N12 N13 C17 N14 0.4(6)
N12 N13 C17 S1 -175.6(4)
C16 N14 C17 N13 -0.6(6)
C18 N14 C17 N13 -172.9(4)
C16 N14 C17 S1 175.6(4)
C18 N14 C17 S1 3.3(7)
C1 S1 C17 N13 -9.1(5)
C1 S1 C17 N14 175.2(4)
C17 N14 C18 C19 102.5(6)
C16 N14 C18 C19 -67.7(7)
C17 N14 C18 C113 -74.0(6)
C16 N14 C18 C113 115.8(6)
C113 C18 C19 C110 -0.9(8)
N14 C18 C19 C110 -177.4(4)
C18 C19 C110 C111 1.4(8)
C19 C110 C111 C112 -0.3(8)
C110 C111 C112 C113 -1.3(8)
C111 C112 C113 C18 1.8(8)
C19 C18 C113 C112 -0.7(8)
N14 C18 C113 C112 175.7(4)

_cod_database_fobs_code 2021665
