#------------------------------------------------------------------------------
#$Date: 2019-12-26 21:30:02 +0200 (Thu, 26 Dec 2019) $
#$Revision: 246112 $
#$URL: file:///home/coder/svn-repositories/cod/cif/2/02/18/2021887.cif $
#------------------------------------------------------------------------------
#
# This file is available in the Crystallography Open Database (COD),
# http://www.crystallography.net/. The original data for this entry
# were provided by IUCr Journals, http://journals.iucr.org/.
#
# The file may be used within the scientific community so long as
# proper attribution is given to the journal article from which the
# data were obtained.
#
data_2021887
loop_
_publ_author_name
'Udovenko, Anatoly A.'
'Pogoreltsev, Evgeny I.'
'Marchenko, Yuri V.'
'Laptash, Natalia M.'
_publ_section_title
;
 Orientational disorder and phase transitions in ammonium
 oxofluorovanadates, (NH4)3VOF5 and (NH4)3VO2F4&#x000D;
;
_journal_issue                   6
_journal_name_full
'Acta Crystallographica Section B Structural Science, Crystal Engineering and Materials'
_journal_page_first              1085
_journal_paper_doi               10.1107/S2052520617012422
_journal_volume                  73
_journal_year                    2017
_chemical_formula_moiety         'H12 N3 V O F5'
_chemical_formula_sum            'F5 H12 N3 O V'
_chemical_formula_weight         216.07
_chemical_name_common            pentafluorooxovanadium
_chemical_name_systematic        pentafluorooxovanadium
_space_group_crystal_system      orthorhombic
_space_group_IT_number           71
_space_group_name_Hall           '-I 2 2'
_space_group_name_H-M_alt        'I m m m'
_atom_sites_solution_primary     direct
_atom_sites_solution_secondary   difmap
_audit_creation_method           SHELXL-2014/7
_cell_angle_alpha                90
_cell_angle_beta                 90
_cell_angle_gamma                90
_cell_formula_units_Z            6
_cell_length_a                   6.2986(3)
_cell_length_b                   9.1638(4)
_cell_length_c                   18.9044(8)
_cell_measurement_reflns_used    2148
_cell_measurement_temperature    296(2)
_cell_measurement_theta_max      27.40
_cell_measurement_theta_min      3.92
_cell_volume                     1091.15(8)
_computing_cell_refinement       'Bruker SAINT'
_computing_data_collection       'Bruker APEX2'
_computing_data_reduction        'Bruker SAINT'
_computing_molecular_graphics    'Bruker SHELXTL'
_computing_publication_material  'Bruker SHELXTL'
_computing_structure_refinement  'SHELXL-2014/7 (Sheldrick, 2014)'
_computing_structure_solution    'SHELXS-97 (Sheldrick, 2008)'
_diffrn_ambient_temperature      296(2)
_diffrn_detector_area_resol_mean 8.33
_diffrn_measured_fraction_theta_full 1.000
_diffrn_measured_fraction_theta_max 1.000
_diffrn_measurement_device_type  'Bruker APEX-II CCD'
_diffrn_measurement_method       '\w scans'
_diffrn_radiation_type           MoK\a
_diffrn_radiation_wavelength     0.71073
_diffrn_reflns_av_R_equivalents  0.0244
_diffrn_reflns_av_unetI/netI     0.0148
_diffrn_reflns_Laue_measured_fraction_full 1.000
_diffrn_reflns_Laue_measured_fraction_max 1.000
_diffrn_reflns_limit_h_max       8
_diffrn_reflns_limit_h_min       -8
_diffrn_reflns_limit_k_max       13
_diffrn_reflns_limit_k_min       -13
_diffrn_reflns_limit_l_max       25
_diffrn_reflns_limit_l_min       -26
_diffrn_reflns_number            6473
_diffrn_reflns_point_group_measured_fraction_full 1.000
_diffrn_reflns_point_group_measured_fraction_max 1.000
_diffrn_reflns_theta_full        25.242
_diffrn_reflns_theta_max         30.391
_diffrn_reflns_theta_min         2.155
_exptl_absorpt_coefficient_mu    1.406
_exptl_absorpt_correction_type   multi-scan
_exptl_absorpt_process_details   'Bruker SADABS'
_exptl_crystal_colour            blue
_exptl_crystal_density_diffrn    1.973
_exptl_crystal_description       prizm
_exptl_crystal_F_000             654
_exptl_crystal_size_max          0.190
_exptl_crystal_size_mid          0.190
_exptl_crystal_size_min          0.130
_exptl_transmission_factor_max   0.7461
_exptl_transmission_factor_min   0.6579
_refine_diff_density_max         0.769
_refine_diff_density_min         -0.389
_refine_diff_density_rms         0.132
_refine_ls_goodness_of_fit_ref   1.001
_refine_ls_matrix_type           full
_refine_ls_number_parameters     78
_refine_ls_number_reflns         967
_refine_ls_number_restraints     0
_refine_ls_restrained_S_all      1.001
_refine_ls_R_factor_all          0.0526
_refine_ls_R_factor_gt           0.0462
_refine_ls_shift/su_max          0.004
_refine_ls_shift/su_mean         0.000
_refine_ls_structure_factor_coef Fsqd
_refine_ls_weighting_details
'w=1/[\s^2^(Fo^2^)+(0.0874P)^2^+2.3850P] where P=(Fo^2^+2Fc^2^)/3'
_refine_ls_weighting_scheme      calc
_refine_ls_wR_factor_gt          0.1356
_refine_ls_wR_factor_ref         0.1416
_reflns_Friedel_coverage         0.000
_reflns_number_gt                837
_reflns_number_total             967
_reflns_threshold_expression     'I > 2\s(I)'
_cod_data_source_file            bp5101sup1.cif
_cod_data_source_block           II
_cod_database_code               2021887
_publcif_datablock.id            {5289dab8-52ce-4d7a-a231-5b09c1863dee}
_shelx_space_group_comment
; 
The symmetry employed for this shelxl refinement is uniquely defined 
by the following loop, which should always be used as a source of 
symmetry information in preference to the above space-group names. 
They are only intended as comments. 
;
_shelx_estimated_absorpt_t_min   0.776
_shelx_estimated_absorpt_t_max   0.838
_shelx_res_file
; 
  
    x71.res created by SHELXL-2014/7 
  
  
TITL x71 in Immm 
CELL 0.71073   6.2986   9.1638  18.9044  90.000  90.000  90.000 
ZERR    6.00   0.0003   0.0004   0.0008   0.000   0.000   0.000 
LATT 2 
SYMM -X, -Y, Z 
SYMM -X, Y, -Z 
SYMM X, -Y, -Z 
SFAC N  H  O  F  V 
UNIT 18 72 6 30 6 
L.S. 6 
ACTA 
BOND 
FMAP 2 
PLAN 2 
SIZE 0.19 0.19 0.13 
DAMP 1000 
TEMP 23.000 
WGHT    0.087400    2.385000 
FVAR       0.12729 
MOLE 1 
V1    5    0.027257    0.000000    0.317980    10.25000    0.02003    0.02444 = 
         0.02037    0.00000   -0.00054    0.00000 
F1    4    0.212287    0.000000    0.257567    10.50000    0.04419    0.09763 = 
         0.04338    0.00000    0.01875    0.00000 
F2    4    0.209426    0.000000    0.397609    10.50000    0.05145    0.09081 = 
         0.03575    0.00000   -0.02293    0.00000 
F3    4    0.000000   -0.207509    0.325972    10.50000    0.11309    0.02144 = 
         0.07591    0.00597    0.00000    0.00000 
MOLE 2 
V2    5    0.019765    0.012729    0.000000    10.12500    0.01999    0.03105 = 
         0.03177    0.00000    0.00000   -0.00795 
F4    4    0.000000    0.000000    0.100656    10.12500    0.13489    0.03935 = 
         0.01514    0.00000    0.00000    0.00000 
F5    4    0.000000   -0.206253    0.000000    10.12500    0.03411    0.02560 = 
         0.06823    0.00000    0.00000    0.00000 
F6    4    0.301126    0.000000    0.000000    10.12500    0.02265    0.03543 = 
         0.07642    0.00000    0.00000    0.00000 
F7    4    0.107562    0.000000    0.090153    10.12500    0.12086    0.18398 = 
         0.03855    0.00000   -0.03544    0.00000 
F8    4    0.193270   -0.143172    0.028082    10.25000    0.04343    0.05663 = 
         0.16362    0.02548   -0.02406    0.01905 
MOLE 3 
N1    1    0.000000    0.267132    0.171569    10.50000    0.03727    0.03711 = 
         0.04113    0.00293    0.00000    0.00000 
N2    1    0.000000    0.500000    0.362773    10.25000    0.04892    0.03467 = 
         0.04071    0.00000    0.00000    0.00000 
N3    1    0.500000    0.069234    0.500000    10.12500    0.04389    0.04408 = 
         0.04163    0.00000    0.00000    0.00000 
N4    1    0.057813    0.203730    0.500000    10.25000    0.04699    0.03264 = 
         0.02975    0.00000    0.00000   -0.00687 
  
HKLF 4 
  
REM  x71 in Immm 
REM R1 =  0.0462 for     837 Fo > 4sig(Fo)  and  0.0526 for all     967 data 
REM     78 parameters refined using      0 restraints 
  
END 
  
WGHT      0.0860      1.4175 
  
REM Highest difference peak  0.769,  deepest hole -0.389,  1-sigma level  0.132 
Q1    1   0.0000  0.2358  0.1628  10.50000  0.05    0.77 
Q2    1   0.0000  0.0544  0.3421  10.50000  0.05    0.71 
;
_shelx_res_checksum              2001
_shelx_hkl_file
; 
  -2   0   0  417.11    6.50 
   2   0   0  405.05    6.21 
  -4   0   0  344.30    5.35 
   4   0   0  333.12    5.42 
   6   0   0   33.38    0.94 
  -6   0   0   32.31    0.87 
   8   0   0    1.29    0.28 
  -8   0   0    1.41    0.27 
  -1   1   0  428.54    6.89 
   1   1   0  423.89    6.90 
   1  -1   0  418.51    6.59 
   1   1   0  442.26    6.64 
   1  -1   0  430.83    6.84 
   3   1   0    6.60    0.27 
   3   1   0    6.72    0.18 
   3  -1   0    6.40    0.27 
  -3   1   0    7.16    0.27 
  -3  -1   0    6.68    0.26 
   5   1   0   66.50    1.38 
   5  -1   0   63.43    1.38 
  -5   1   0   65.01    1.34 
  -5  -1   0   65.06    1.32 
   7  -1   0   -0.05    0.14 
   7   1   0    0.03    0.15 
  -7  -1   0   -0.16    0.13 
  -7   1   0    0.01    0.15 
   0   2   0  431.54    6.95 
   0   2   0  420.09    6.76 
   0  -2   0  435.40    6.85 
   2  -2   0   59.14    0.96 
   2   2   0   58.64    1.00 
   2   2   0   58.45    1.05 
  -2   2   0   57.72    1.06 
   2  -2   0   57.43    1.07 
  -4  -2   0   50.08    1.02 
   4   2   0   50.93    0.89 
   4  -2   0   49.83    1.09 
  -4   2   0   49.35    1.06 
   4  -2   0   51.08    0.80 
   4   2   0   48.85    1.06 
  -6   2   0    4.80    0.35 
   6   2   0    4.35    0.34 
  -6  -2   0    4.76    0.32 
   6  -2   0    4.26    0.38 
  -8  -2   0    0.15    0.20 
   8  -2   0    0.01    0.17 
  -8   2   0    0.07    0.19 
   8   2   0    0.19    0.19 
   1  -3   0   42.34    0.82 
  -1   3   0   43.35    0.83 
   1   3   0   43.04    0.81 
   1   3   0   43.18    0.79 
  -1   3   0   42.81    0.80 
   1   3   0   43.68    0.81 
   3   3   0    6.59    0.24 
   3   3   0    6.63    0.28 
  -3   3   0    6.14    0.28 
   3  -3   0    6.43    0.21 
   3  -3   0    6.36    0.30 
   5   3   0   27.05    0.75 
  -5  -3   0   25.93    0.71 
   5  -3   0   26.08    0.78 
  -5   3   0   25.41    0.75 
   5   3   0   26.49    0.58 
   7   3   0    0.59    0.20 
  -7  -3   0    0.46    0.18 
   7  -3   0    0.87    0.23 
  -7   3   0    0.76    0.23 
   0   4   0  986.21   15.44 
   0   4   0  956.87   15.22 
   0  -4   0 1000.00   15.60 
   2  -4   0  144.19    2.49 
   2   4   0  149.24    2.43 
   2  -4   0  147.55    2.39 
   2   4   0  147.22    2.43 
  -2   4   0  148.29    2.49 
   4   4   0  130.37    2.18 
  -4  -4   0  129.32    2.28 
   4   4   0  128.14    2.29 
   4  -4   0  131.82    2.10 
  -4   4   0  129.24    2.34 
   4  -4   0  126.10    2.36 
   6   4   0   15.70    0.60 
  -6  -4   0   14.16    0.56 
  -6   4   0   15.34    0.63 
   6  -4   0   15.04    0.63 
   8   4   0    1.85    0.31 
   8  -4   0    1.57    0.32 
  -8   4   0    1.29    0.30 
  -1   5   0  255.45    4.02 
   1   5   0  253.46    4.03 
   1  -5   0  249.00    4.05 
   1   5   0  251.25    4.03 
  -1  -5   0  252.61    4.01 
  -1   5   0  249.30    4.05 
   3  -5   0   55.75    1.07 
  -3   5   0   55.05    1.20 
   3  -5   0   55.72    1.20 
   3   5   0   56.00    1.13 
   3   5   0   55.78    1.13 
   5   5   0   24.38    0.64 
  -5  -5   0   25.65    0.73 
   5  -5   0   22.67    0.78 
   5   5   0   24.58    0.73 
  -5   5   0   24.07    0.78 
  -7   5   0    0.14    0.19 
  -7  -5   0    0.26    0.18 
   7  -5   0    0.17    0.16 
   7   5   0    0.57    0.20 
   0  -6   0  216.70    3.56 
   0   6   0  220.84    3.60 
   0   6   0  217.61    3.59 
  -2  -6   0    7.63    0.32 
  -2   6   0    7.93    0.38 
   2  -6   0    7.02    0.33 
   2   6   0    8.01    0.36 
   2  -6   0    7.41    0.37 
  -4   6   0   22.75    0.73 
   4  -6   0   23.27    0.75 
   4   6   0   22.93    0.66 
   4   6   0   23.60    0.67 
   4  -6   0   23.33    0.60 
   6  -6   0    2.86    0.36 
  -6  -6   0    3.31    0.33 
   6   6   0    3.11    0.33 
  -6   6   0    2.27    0.34 
   1  -7   0   18.01    0.57 
   1   7   0   18.91    0.58 
  -1   7   0   18.01    0.59 
  -1   7   0   18.37    0.59 
  -1  -7   0   18.64    0.55 
   1   7   0   18.37    0.61 
   3  -7   0    3.32    0.32 
  -3  -7   0    3.10    0.24 
  -3   7   0    3.12    0.32 
   3   7   0    3.00    0.30 
   3  -7   0    2.93    0.26 
   5  -7   0   11.96    0.58 
   5   7   0   11.02    0.50 
  -5   7   0   11.50    0.57 
   7  -7   0    0.84    0.25 
   7   7   0    0.84    0.23 
  -7   7   0    0.42    0.23 
   0   8   0   56.48    1.28 
   0  -8   0   56.73    1.21 
   0   8   0   56.79    1.27 
  -2  -8   0    5.86    0.33 
   2   8   0    5.63    0.37 
   2  -8   0    5.29    0.35 
  -2   8   0    5.33    0.35 
   2  -8   0    5.83    0.37 
   4  -8   0   15.99    0.57 
  -4   8   0   17.39    0.69 
   4  -8   0   18.19    0.69 
  -4  -8   0   16.50    0.59 
   4   8   0   16.92    0.63 
  -6   8   0    3.00    0.40 
  -6  -8   0    3.14    0.36 
   6  -8   0    3.07    0.40 
   1  -9   0   25.74    0.81 
  -1   9   0   26.91    0.82 
  -1  -9   0   25.94    0.75 
   1   9   0   25.29    0.82 
   1   9   0   25.87    0.80 
   1  -9   0   25.49    0.77 
   3  -9   0   12.08    0.56 
  -3  -9   0   11.83    0.50 
   3   9   0   12.50    0.56 
   3  -9   0   12.55    0.53 
  -3   9   0   11.99    0.58 
  -5   9   0    3.33    0.40 
  -5  -9   0    3.37    0.36 
   5  -9   0    2.79    0.38 
   0 -10   0   43.13    1.16 
   0  10   0   39.91    1.11 
   0 -10   0   40.78    1.05 
  -2 -10   0   18.17    0.64 
  -2  10   0   18.20    0.72 
   2 -10   0   18.60    0.70 
   2 -10   0   18.56    0.69 
  -2 -10   0   17.89    0.71 
  -4 -10   0    9.43    0.53 
   4 -10   0    8.93    0.50 
   4 -10   0    8.87    0.54 
  -4  10   0    9.84    0.56 
  -1  11   0    8.48    0.51 
   1 -11   0    7.41    0.48 
   1 -11   0    8.60    0.52 
  -1 -11   0    7.24    0.48 
   3 -11   0    5.15    0.46 
  -3 -11   0    4.92    0.47 
  -3  11   0    4.42    0.46 
   3 -11   0    4.16    0.43 
   0  12   0    3.12    0.39 
   0 -12   0    2.59    0.37 
  -2  12   0    0.81    0.23 
   2 -12   0    0.62    0.24 
   2 -12   0    1.12    0.28 
  -2 -12   0    1.13    0.28 
  -1   0   1    0.36    0.04 
   1   0  -1    0.38    0.05 
  -1   0  -1    0.39    0.05 
   1   0   1    0.44    0.05 
   1   0  -1    0.36    0.04 
   3   0   1   10.55    0.35 
   3   0  -1   10.96    0.22 
  -3   0   1   10.80    0.32 
  -3   0  -1   11.05    0.34 
   3   0  -1   10.51    0.35 
   5   0   1    0.27    0.15 
   5   0  -1   -0.01    0.11 
  -5   0   1    0.24    0.14 
  -5   0  -1    0.18    0.15 
   7   0   1    3.30    0.36 
  -7   0   1    4.33    0.38 
   7   0  -1    4.12    0.40 
  -7   0  -1    4.09    0.38 
   0   1   1    0.17    0.03 
   0   1  -1    0.20    0.03 
   0   1  -1    0.20    0.03 
   0  -1  -1    0.14    0.03 
   0  -1  -1    0.18    0.02 
   0  -1   1    0.24    0.04 
   2   1  -1   13.76    0.36 
  -2   1   1   14.36    0.34 
   2   1  -1   13.95    0.29 
   2  -1   1   13.68    0.36 
  -2  -1  -1   13.97    0.35 
   2  -1   1   14.39    0.24 
   2   1   1   13.78    0.34 
   2  -1  -1   14.03    0.28 
  -2   1  -1   13.47    0.36 
  -2  -1   1   13.55    0.32 
   2   1   1   14.43    0.28 
   2  -1  -1   14.17    0.37 
  -4   1   1   -0.08    0.10 
   4   1  -1    0.03    0.05 
   4   1  -1    0.06    0.09 
   4  -1   1   -0.02    0.10 
  -4  -1  -1    0.01    0.04 
  -4  -1  -1    0.19    0.11 
   4  -1  -1    0.16    0.10 
   4   1   1    0.15    0.11 
  -4  -1   1    0.07    0.09 
  -4   1  -1   -0.09    0.09 
   4  -1  -1    0.06    0.04 
   6  -1   1    1.60    0.25 
   6   1  -1    1.58    0.24 
  -6  -1  -1    1.41    0.22 
  -6   1   1    1.57    0.23 
  -6  -1   1    1.30    0.21 
   6   1   1    1.53    0.24 
   6  -1  -1    1.91    0.28 
  -6   1  -1    1.53    0.24 
  -8   1   1    0.04    0.20 
  -8  -1  -1   -0.23    0.16 
   8  -1   1    0.23    0.18 
   8   1  -1    0.12    0.19 
  -8  -1   1   -0.04    0.18 
  -8   1  -1    0.09    0.20 
   8  -1  -1    0.16    0.19 
   8   1   1    0.22    0.20 
   1   2  -1    0.22    0.06 
   1   2  -1    0.24    0.07 
  -1   2   1    0.19    0.08 
   1  -2   1    0.29    0.09 
   1   2   1    0.20    0.05 
   1  -2  -1    0.29    0.09 
   1  -2  -1    0.25    0.07 
  -1   2  -1    0.17    0.06 
  -1   2  -1    0.20    0.08 
   1   2   1    0.21    0.06 
  -3  -2  -1   16.05    0.45 
  -3   2   1   16.78    0.46 
   3  -2   1   17.15    0.32 
   3   2  -1   16.78    0.46 
   3   2  -1   17.01    0.38 
   3   2   1   17.02    0.45 
   3  -2  -1   16.83    0.35 
  -3  -2   1   16.77    0.43 
   3  -2  -1   16.45    0.48 
  -3   2  -1   15.95    0.47 
   3   2   1   16.22    0.37 
   5  -2   1    7.94    0.41 
  -5   2   1    9.25    0.41 
  -5  -2  -1    7.95    0.38 
   5   2  -1    8.30    0.40 
   5   2   1    7.89    0.39 
  -5  -2   1    8.57    0.36 
  -5   2  -1    8.14    0.41 
   5  -2  -1    6.90    0.39 
   7   2  -1    0.23    0.17 
  -7   2   1    0.49    0.19 
  -7  -2  -1    0.24    0.17 
   7  -2   1    0.55    0.20 
   7  -2  -1    0.49    0.20 
   7   2   1    0.33    0.17 
  -7  -2   1    0.24    0.17 
  -7   2  -1    0.12    0.17 
   0   3   1    5.07    0.21 
   0  -3  -1    5.22    0.18 
   0  -3   1    5.18    0.20 
   0   3   1    5.05    0.20 
   0   3  -1    4.94    0.20 
   0   3  -1    5.07    0.19 
  -2   3   1   82.04    1.47 
   2   3  -1   84.26    1.47 
   2   3  -1   85.26    1.44 
   2  -3   1   83.74    1.50 
   2   3   1   83.67    1.42 
   2  -3  -1   84.06    1.40 
  -2   3  -1   82.88    1.49 
   2  -3  -1   82.31    1.48 
  -2   3  -1   83.68    1.39 
   2   3   1   84.99    1.44 
  -4  -3  -1   -0.08    0.09 
   4   3  -1    0.09    0.09 
  -4   3   1    0.28    0.14 
   4   3  -1    0.31    0.12 
   4  -3   1    0.16    0.07 
   4  -3   1    0.26    0.13 
   4   3   1    0.01    0.07 
  -4   3  -1    0.17    0.13 
   4  -3  -1    0.11    0.13 
   4   3   1    0.19    0.11 
   4  -3  -1    0.03    0.07 
  -4  -3   1    0.11    0.10 
  -6   3   1    0.24    0.16 
   6  -3   1   -0.03    0.14 
   6   3  -1   -0.08    0.11 
  -6  -3  -1    0.16    0.14 
  -6  -3   1   -0.09    0.12 
   6   3   1   -0.01    0.13 
   6  -3  -1    0.11    0.15 
  -6   3  -1   -0.13    0.14 
  -8  -3  -1   -0.49    0.17 
  -8   3   1    0.25    0.22 
   8  -3   1    0.03    0.19 
   8   3  -1    0.51    0.20 
   8  -3  -1    0.30    0.22 
   8   3   1    0.11    0.17 
  -8   3  -1   -0.13    0.19 
  -1   4   1    1.43    0.15 
   1   4  -1    1.42    0.15 
   1   4  -1    1.52    0.14 
  -1  -4  -1    1.67    0.13 
   1  -4   1    1.36    0.16 
  -1   4  -1    1.37    0.14 
  -1  -4   1    1.44    0.14 
   1  -4  -1    1.55    0.14 
  -1   4  -1    1.91    0.16 
   1  -4  -1    1.65    0.15 
   1   4   1    1.71    0.16 
   1   4   1    1.64    0.15 
   3   4  -1   17.77    0.49 
   3  -4   1   18.36    0.44 
  -3   4   1   18.74    0.55 
   3  -4   1   18.37    0.56 
   3   4  -1   17.53    0.51 
   3  -4  -1   18.20    0.55 
   3   4   1   17.88    0.50 
  -3   4  -1   18.11    0.55 
   3   4   1   17.76    0.48 
   3  -4  -1   18.93    0.46 
   5   4  -1    2.46    0.27 
  -5  -4  -1    2.43    0.20 
   5  -4   1    2.53    0.30 
  -5   4   1    2.56    0.28 
   5   4  -1    2.56    0.21 
  -5  -4  -1    2.78    0.27 
  -5  -4   1    2.84    0.26 
   5   4   1    2.62    0.26 
  -5   4  -1    2.58    0.30 
   5  -4  -1    2.41    0.30 
  -7   4   1    2.32    0.32 
   7  -4   1    2.15    0.31 
   7   4  -1    2.20    0.31 
  -7  -4  -1    2.60    0.32 
   7   4   1    1.97    0.29 
  -7  -4   1    2.37    0.29 
   7  -4  -1    1.90    0.30 
  -7   4  -1    2.70    0.35 
   0   5   1    6.60    0.29 
   0  -5  -1    6.92    0.27 
   0  -5   1    6.52    0.28 
   0   5  -1    5.98    0.27 
   0   5   1    6.47    0.29 
   0   5  -1    6.78    0.30 
   2   5  -1    2.23    0.20 
   2   5  -1    2.38    0.22 
  -2   5   1    1.98    0.20 
   2  -5   1    2.18    0.23 
  -2   5  -1    2.19    0.19 
   2  -5  -1    2.23    0.22 
   2  -5  -1    2.43    0.20 
   2   5   1    2.34    0.21 
  -2   5  -1    2.45    0.22 
  -4   5   1   -0.11    0.12 
   4  -5   1    0.04    0.09 
   4   5  -1    0.02    0.10 
   4   5  -1    0.09    0.11 
   4  -5   1   -0.24    0.15 
   4   5   1    0.02    0.11 
  -4   5  -1   -0.02    0.12 
   4   5   1    0.07    0.10 
   4  -5  -1   -0.04    0.10 
   4  -5  -1   -0.15    0.14 
   6  -5   1    0.89    0.24 
  -6  -5  -1    1.45    0.25 
   6   5  -1    1.10    0.22 
  -6   5   1    1.27    0.26 
   6   5   1    0.97    0.20 
  -6   5  -1    1.28    0.26 
  -6  -5   1    0.94    0.20 
   6  -5  -1    1.71    0.28 
   8   5  -1    0.33    0.20 
  -8   5   1    0.36    0.23 
   8  -5   1    0.31    0.22 
   8  -5  -1   -0.13    0.18 
  -8   5  -1    0.01    0.21 
   8   5   1   -0.01    0.18 
   1   6  -1    2.50    0.22 
   1  -6   1    2.17    0.23 
  -1   6   1    2.53    0.23 
   1   6  -1    1.97    0.21 
  -1  -6  -1    2.62    0.20 
   1  -6  -1    2.53    0.23 
  -1   6  -1    2.50    0.24 
   1  -6  -1    2.52    0.23 
   1   6   1    2.32    0.23 
   1   6   1    1.93    0.22 
  -1  -6   1    2.44    0.21 
  -1   6  -1    2.80    0.21 
   3  -6   1    0.18    0.12 
   3   6  -1    0.08    0.12 
   3  -6   1    0.01    0.13 
   3   6  -1    0.06    0.12 
  -3   6   1    0.21    0.13 
   3  -6  -1    0.17    0.12 
   3   6   1    0.04    0.11 
   3   6   1    0.19    0.13 
   3  -6  -1   -0.15    0.14 
  -3   6  -1    0.08    0.13 
  -5  -6  -1    0.97    0.17 
  -5   6   1    0.93    0.21 
   5   6  -1    0.75    0.18 
  -5  -6  -1    0.83    0.19 
   5  -6   1    0.76    0.22 
   5   6  -1    0.88    0.18 
  -5  -6   1    0.62    0.18 
   5  -6  -1    0.50    0.21 
  -5   6  -1    0.88    0.23 
   5   6   1    1.20    0.20 
  -7   6   1    0.15    0.19 
  -7  -6  -1    0.30    0.18 
   7  -6   1    0.11    0.16 
   7   6  -1    0.12    0.18 
   7  -6  -1    0.17    0.21 
   7   6   1    0.11    0.16 
  -7   6  -1    0.44    0.24 
   0  -7   1   14.32    0.49 
   0  -7  -1   15.33    0.49 
   0   7  -1   15.60    0.53 
   0   7  -1   14.97    0.51 
   0   7   1   15.35    0.52 
   2  -7   1    4.26    0.33 
   2   7  -1    4.71    0.31 
  -2   7   1    5.07    0.32 
  -2  -7  -1    4.44    0.26 
   2  -7  -1    5.04    0.31 
  -2  -7   1    4.56    0.29 
   2  -7  -1    5.26    0.33 
   2   7   1    4.99    0.33 
  -2   7  -1    4.67    0.32 
   4  -7   1    0.68    0.19 
   4   7  -1    0.86    0.18 
   4   7  -1    1.18    0.20 
   4  -7   1    0.84    0.16 
  -4   7   1    1.01    0.21 
   4   7   1    1.04    0.19 
   4  -7  -1    1.20    0.22 
  -4   7  -1    1.40    0.25 
   4  -7  -1    1.10    0.18 
  -6  -7  -1    0.29    0.17 
  -6   7   1    0.65    0.23 
   6  -7   1    0.65    0.24 
   6   7  -1    0.28    0.17 
  -6  -7   1    0.65    0.19 
  -6   7  -1    0.17    0.20 
   6   7   1    0.33    0.18 
   6  -7  -1    0.24    0.19 
   1   8  -1    0.10    0.14 
   1   8  -1    0.18    0.13 
  -1  -8  -1    0.16    0.13 
   1  -8   1    0.24    0.18 
  -1   8   1    0.01    0.13 
   1  -8  -1   -0.16    0.10 
   1   8   1    0.23    0.12 
  -1   8  -1    0.11    0.13 
   1  -8  -1    0.02    0.15 
  -1  -8   1    0.14    0.15 
  -1   8  -1   -0.06    0.12 
   3  -8   1    0.36    0.15 
   3  -8   1    0.45    0.18 
  -3  -8  -1    0.35    0.14 
  -3   8   1    0.28    0.17 
   3   8  -1    0.52    0.18 
  -3  -8   1    0.32    0.15 
   3  -8  -1   -0.23    0.12 
   3  -8  -1    0.24    0.14 
  -3   8  -1    0.40    0.19 
  -5   8   1    0.20    0.18 
   5   8  -1   -0.03    0.15 
   5   8  -1    0.48    0.17 
   5  -8   1    0.54    0.21 
  -5  -8  -1    0.37    0.16 
   5  -8  -1    0.36    0.19 
  -5   8  -1    0.18    0.18 
  -7   8   1    0.01    0.19 
   7  -8   1    0.19    0.21 
  -7   8  -1    0.23    0.23 
   7  -8  -1    0.16    0.19 
   0   9  -1    0.24    0.17 
   0   9  -1    0.36    0.16 
   0  -9  -1    0.23    0.17 
   0   9   1    0.22    0.15 
   0  -9   1    0.14    0.15 
   0  -9  -1    0.27    0.17 
   2  -9   1   -0.27    0.14 
   2  -9   1    0.19    0.14 
  -2  -9  -1   -0.21    0.12 
  -2  -9  -1   -0.12    0.12 
   2   9  -1    0.07    0.15 
  -2   9   1    0.00    0.12 
  -2   9  -1    0.19    0.13 
   2  -9  -1    0.24    0.16 
   2  -9  -1    0.00    0.14 
  -2  -9   1    0.07    0.15 
  -4  -9  -1   -0.10    0.13 
  -4   9   1   -0.12    0.15 
   4   9  -1   -0.11    0.14 
   4  -9   1    0.01    0.17 
   4  -9   1    0.04    0.14 
  -4  -9   1   -0.18    0.12 
   4  -9  -1   -0.22    0.13 
   4  -9  -1   -0.07    0.16 
  -4   9  -1    0.23    0.18 
   6  -9   1   -0.19    0.18 
  -6   9   1    0.21    0.22 
  -6  -9  -1   -0.03    0.15 
   6  -9  -1    0.27    0.20 
  -6   9  -1    0.10    0.20 
  -1 -10  -1    2.36    0.28 
  -1 -10  -1    2.59    0.33 
   1 -10   1    2.60    0.32 
   1  10  -1    2.27    0.32 
   1 -10   1    2.50    0.32 
  -1  10   1    2.48    0.31 
   1  10  -1    2.65    0.32 
  -1  10  -1    2.46    0.31 
   1 -10  -1    2.26    0.29 
   1 -10  -1    2.32    0.30 
   1  10   1    2.54    0.30 
  -1 -10   1    2.27    0.28 
   3 -10   1   -0.22    0.12 
  -3  10   1    0.21    0.18 
  -3 -10  -1    0.14    0.16 
   3  10  -1   -0.06    0.15 
   3 -10   1    0.05    0.16 
  -3 -10   1   -0.27    0.13 
   3 -10  -1   -0.13    0.13 
   3 -10  -1   -0.04    0.15 
  -3  10  -1    0.25    0.19 
   5 -10   1    0.01    0.19 
  -5  10   1    0.12    0.20 
  -5 -10  -1    0.60    0.21 
   5 -10  -1    0.53    0.24 
  -5  10  -1    0.88    0.27 
  -5 -10   1    0.24    0.19 
   0  11   1    0.02    0.15 
   0 -11   1    0.01    0.15 
   0 -11   1    0.24    0.19 
   0  11  -1    0.10    0.15 
   0 -11  -1    0.23    0.18 
  -2 -11  -1    0.06    0.15 
  -2  11   1    0.00    0.14 
   2 -11   1    0.15    0.21 
   2 -11   1    0.18    0.19 
  -2 -11   1    0.60    0.21 
  -2  11  -1    0.24    0.19 
   2 -11  -1   -0.13    0.16 
   2 -11  -1    0.06    0.19 
  -4  11   1   -0.03    0.17 
  -4 -11  -1   -0.03    0.16 
   4 -11   1   -0.43    0.14 
   4 -11  -1   -0.08    0.19 
  -4  11  -1    0.09    0.21 
  -4 -11   1    0.07    0.17 
   4 -11  -1    0.17    0.20 
   1 -12   1    0.19    0.22 
   1 -12   1   -0.14    0.17 
  -1 -12  -1   -0.13    0.19 
  -1  12   1    0.28    0.21 
  -1  12  -1    0.17    0.18 
   1 -12  -1   -0.11    0.19 
  -1 -12   1    0.11    0.20 
   3 -12   1    0.02    0.22 
   3 -12   1   -0.20    0.16 
  -3 -12  -1    0.04    0.20 
  -3  12   1    0.04    0.16 
  -3  12  -1   -0.17    0.16 
   3 -12  -1    0.15    0.20 
  -3 -12   1    0.20    0.21 
   3 -12  -1    0.01    0.19 
   0  13  -1    0.22    0.20 
   0 -13   1   -0.04    0.19 
   0 -13  -1   -0.02    0.20 
   0  13   1    0.13    0.19 
   0   0  -2    2.48    0.08 
   0   0  -2    2.46    0.07 
   2   0   2    4.76    0.19 
   2   0  -2    4.82    0.15 
  -2   0   2    5.50    0.17 
  -2   0  -2    4.73    0.20 
   2   0  -2    4.46    0.20 
   4   0   2    6.85    0.32 
   4   0  -2    6.80    0.33 
   4   0  -2    6.71    0.19 
  -4   0  -2    6.27    0.31 
  -4   0   2    6.49    0.29 
   6   0  -2    0.31    0.16 
  -6   0   2    0.18    0.14 
   6   0   2    0.14    0.15 
  -6   0  -2    0.29    0.17 
   8   0  -2    0.16    0.19 
  -8   0  -2    0.18    0.19 
   8   0   2   -0.01    0.15 
  -1   1   2    2.77    0.12 
   1   1  -2    2.70    0.13 
   1  -1   2    2.58    0.14 
   1   1  -2    2.71    0.11 
  -1  -1  -2    2.64    0.10 
  -1   1  -2    2.79    0.09 
  -1   1  -2    2.71    0.13 
   1  -1  -2    2.89    0.12 
   1  -1  -2    2.81    0.11 
   1   1   2    2.73    0.10 
   3   1  -2    0.87    0.09 
  -3  -1  -2    0.91    0.07 
  -3  -1  -2    0.94    0.14 
   3  -1   2    0.93    0.14 
   3   1  -2    0.75    0.12 
  -3   1   2    0.93    0.12 
   3   1   2    0.70    0.11 
   3  -1  -2    0.90    0.08 
  -3   1  -2    1.11    0.15 
  -3  -1   2    0.81    0.11 
   3  -1  -2    0.88    0.14 
  -5   1   2    3.11    0.27 
  -5  -1  -2    2.88    0.28 
   5   1  -2    2.86    0.29 
   5  -1   2    3.14    0.30 
   5  -1  -2    3.03    0.30 
  -5   1  -2    3.33    0.31 
   5   1   2    3.24    0.29 
  -5  -1   2    3.10    0.24 
   7  -1   2    1.27    0.26 
  -7  -1  -2    0.99    0.23 
   7   1  -2    0.58    0.21 
  -7   1   2    1.02    0.23 
   7  -1  -2    1.28    0.26 
  -7  -1   2    1.09    0.22 
  -7   1  -2    0.68    0.22 
   7   1   2    1.37    0.25 
   0   2  -2    0.24    0.06 
   0  -2  -2    0.25    0.05 
   0  -2  -2    0.19    0.06 
   0   2   2    0.17    0.06 
   0  -2   2    0.32    0.08 
   0   2  -2    0.21    0.07 
  -2  -2  -2   26.27    0.50 
   2  -2   2   23.93    0.57 
   2   2  -2   25.09    0.57 
   2   2  -2   25.66    0.52 
  -2   2   2   25.47    0.55 
  -2   2  -2   24.96    0.57 
  -2   2  -2   25.65    0.47 
   2  -2  -2   25.26    0.50 
   2   2   2   25.87    0.52 
  -4  -2  -2    0.00    0.06 
   4  -2   2    0.07    0.12 
  -4   2   2   -0.02    0.10 
  -4  -2  -2    0.06    0.10 
   4   2  -2    0.12    0.11 
   4   2  -2    0.05    0.07 
   4  -2  -2    0.11    0.11 
   4   2   2    0.09    0.10 
  -4  -2   2   -0.02    0.09 
   4  -2  -2    0.03    0.06 
  -4   2  -2   -0.02    0.11 
  -6   2   2    1.20    0.21 
   6  -2   2    0.93    0.21 
   6   2  -2    0.93    0.21 
  -6  -2  -2    0.97    0.21 
  -6  -2   2    0.94    0.18 
   6  -2  -2    0.96    0.20 
   6   2   2    0.98    0.20 
  -6   2  -2    1.02    0.23 
  -8  -2  -2    0.76    0.24 
  -8   2   2    0.14    0.17 
   8  -2   2    0.25    0.20 
   8   2  -2    0.32    0.20 
   8   2   2    0.23    0.19 
  -8   2  -2    0.68    0.25 
   8  -2  -2    0.53    0.22 
   1   3  -2   18.26    0.44 
   1   3  -2   18.47    0.41 
  -1   3   2   18.84    0.45 
   1  -3   2   18.29    0.46 
   1   3  -2   18.92    0.44 
   1  -3  -2   18.22    0.43 
   1  -3  -2   18.34    0.42 
  -1   3  -2   18.73    0.42 
  -3   3   2    7.35    0.31 
   3  -3   2    7.42    0.22 
   3   3  -2    7.18    0.31 
   3   3  -2    7.19    0.26 
   3  -3   2    7.62    0.34 
   3  -3  -2    7.71    0.25 
   3  -3  -2    7.30    0.32 
   3   3   2    7.45    0.28 
  -3   3  -2    6.80    0.31 
   5   3  -2    7.13    0.37 
   5  -3   2    7.13    0.39 
  -5  -3  -2    6.96    0.37 
   5   3  -2    7.13    0.28 
  -5   3   2    6.78    0.37 
   5  -3  -2    7.58    0.41 
  -5   3  -2    6.22    0.39 
   5   3   2    6.81    0.36 
  -5  -3   2    7.42    0.34 
  -7   3   2    1.02    0.25 
  -7  -3  -2    0.84    0.22 
   7  -3   2    1.02    0.25 
   7   3  -2    0.99    0.23 
   7  -3  -2    1.28    0.27 
  -7  -3   2    1.05    0.22 
  -7   3  -2    1.24    0.27 
   7   3   2    1.53    0.26 
   0   4  -2   49.57    0.95 
   0  -4  -2   51.41    0.90 
   0   4   2   49.33    0.96 
   0  -4   2   49.69    0.96 
   0  -4  -2   48.99    0.96 
   0   4  -2   50.90    0.97 
   2   4  -2    0.18    0.09 
   2  -4   2    0.06    0.11 
   2   4  -2    0.11    0.09 
  -2   4   2    0.09    0.08 
   2   4   2    0.12    0.08 
  -2   4  -2    0.19    0.11 
   2  -4  -2    0.06    0.10 
   2   4   2    0.07    0.06 
   2  -4  -2    0.04    0.08 
  -2   4  -2    0.11    0.08 
  -4  -4  -2    5.74    0.33 
   4  -4   2    6.27    0.23 
   4   4  -2    7.05    0.29 
  -4   4   2    6.07    0.35 
   4  -4   2    5.26    0.36 
  -4  -4  -2    6.06    0.27 
   4   4  -2    6.74    0.34 
  -4  -4   2    6.44    0.30 
   4  -4  -2    6.56    0.35 
   4   4   2    6.26    0.31 
   4  -4  -2    6.59    0.26 
  -4   4  -2    6.53    0.38 
   6   4  -2    0.27    0.15 
  -6  -4  -2    0.15    0.15 
   6  -4   2    0.15    0.17 
  -6   4   2    0.24    0.17 
   6   4   2   -0.07    0.12 
  -6   4  -2    0.21    0.19 
  -6  -4   2    0.23    0.15 
   6  -4  -2    0.10    0.13 
  -8  -4  -2    0.13    0.20 
   8  -4   2   -0.12    0.14 
  -8   4   2    0.21    0.19 
   8   4  -2   -0.01    0.16 
  -8   4  -2    0.22    0.23 
   8   4   2   -0.18    0.15 
   8  -4  -2   -0.23    0.16 
  -1   5   2    0.22    0.11 
   1  -5   2    0.32    0.13 
   1   5  -2    0.29    0.10 
  -1  -5  -2    0.26    0.08 
   1   5  -2    0.29    0.11 
  -1  -5   2    0.21    0.10 
   1  -5  -2    0.07    0.10 
   1   5   2    0.24    0.10 
   1   5   2    0.21    0.09 
  -1   5  -2    0.17    0.10 
   1  -5  -2    0.27    0.11 
  -1   5  -2    0.34    0.10 
   3  -5   2    2.11    0.26 
   3   5  -2    1.93    0.20 
  -3   5   2    2.05    0.24 
   3  -5   2    2.42    0.18 
   3   5  -2    2.77    0.24 
   3  -5  -2    2.52    0.21 
   3  -5  -2    1.97    0.23 
  -3   5  -2    2.45    0.27 
   3   5   2    2.16    0.20 
   5  -5   2    0.95    0.23 
  -5  -5  -2    1.17    0.21 
  -5  -5  -2    1.34    0.18 
   5   5  -2    1.36    0.22 
  -5   5   2    1.08    0.22 
   5   5  -2    1.17    0.18 
  -5   5  -2    1.20    0.24 
   5   5   2    1.00    0.18 
  -5  -5   2    0.81    0.17 
   5  -5  -2    1.19    0.23 
   7  -5   2    0.97    0.26 
  -7   5   2    1.06    0.26 
   7   5  -2    1.01    0.24 
  -7  -5  -2    0.97    0.25 
  -7   5  -2    1.12    0.28 
   7   5   2    0.79    0.21 
   7  -5  -2    1.29    0.28 
   0   6  -2   -0.05    0.09 
   0   6   2   -0.05    0.09 
   0   6  -2    0.06    0.11 
   0  -6  -2   -0.09    0.10 
   0  -6  -2    0.10    0.11 
   0  -6   2   -0.16    0.10 
   2   6  -2   -0.03    0.11 
   2  -6   2    0.10    0.16 
  -2   6   2    0.39    0.14 
  -2  -6  -2    0.05    0.09 
  -2  -6   2    0.17    0.11 
  -2   6  -2   -0.04    0.10 
  -2   6  -2    0.03    0.13 
   2  -6  -2   -0.11    0.12 
   2  -6  -2    0.04    0.11 
   4  -6   2    0.21    0.17 
   4   6  -2    0.28    0.14 
   4  -6   2    0.41    0.12 
  -4  -6  -2    0.26    0.13 
   4   6  -2    0.26    0.13 
  -4   6   2    0.49    0.18 
  -4   6  -2    0.16    0.15 
   4   6   2    0.28    0.12 
   4  -6  -2    0.59    0.15 
   4  -6  -2    0.55    0.18 
   6   6  -2    0.04    0.13 
   6  -6   2    0.25    0.20 
  -6   6   2    0.37    0.18 
  -6  -6  -2    0.10    0.16 
  -6  -6   2    0.19    0.14 
   6  -6  -2    0.39    0.19 
   6   6   2    0.42    0.17 
  -6   6  -2    0.38    0.21 
   1  -7   2    0.58    0.16 
   1   7  -2    0.62    0.15 
  -1  -7  -2    0.54    0.17 
  -1   7   2    0.67    0.16 
  -1  -7  -2    0.56    0.15 
   1   7  -2    0.67    0.18 
   1   7   2    0.73    0.16 
  -1   7  -2    0.59    0.15 
  -1  -7   2    0.78    0.17 
  -1   7  -2    0.56    0.16 
   1  -7  -2    0.67    0.18 
   1  -7  -2    0.93    0.19 
  -3   7   2    0.21    0.14 
  -3  -7  -2    0.34    0.15 
   3  -7   2    0.22    0.13 
   3   7  -2    0.22    0.14 
  -3  -7  -2    0.48    0.13 
   3  -7   2    0.22    0.18 
  -3   7  -2    0.28    0.14 
   3  -7  -2    0.54    0.17 
   3  -7  -2    0.44    0.14 
  -3  -7   2    0.21    0.13 
   5  -7   2    0.57    0.20 
  -5  -7  -2    0.70    0.18 
  -5   7   2    0.25    0.17 
   5   7  -2    0.42    0.17 
   5   7  -2    0.39    0.16 
   5   7   2    0.34    0.15 
  -5   7  -2    0.38    0.20 
   5  -7  -2    0.59    0.21 
   7  -7   2    0.11    0.20 
  -7   7   2   -0.02    0.18 
  -7  -7  -2    0.13    0.18 
   7   7  -2   -0.11    0.16 
   7  -7  -2    0.19    0.20 
  -7   7  -2    0.01    0.21 
   0  -8  -2    2.00    0.27 
   0   8   2    2.08    0.26 
   0  -8   2    1.99    0.26 
   0   8  -2    2.51    0.27 
   0  -8  -2    2.16    0.24 
   0   8  -2    2.06    0.26 
   2  -8   2    2.50    0.30 
  -2  -8  -2    3.11    0.31 
  -2  -8  -2    3.27    0.25 
  -2   8   2    3.46    0.32 
   2   8  -2    2.58    0.30 
   2  -8  -2    3.02    0.29 
  -2  -8   2    3.04    0.29 
  -2   8  -2    3.02    0.29 
  -2   8  -2    3.13    0.32 
   2  -8  -2    3.64    0.32 
  -4  -8  -2    1.09    0.22 
  -4   8   2    1.05    0.22 
   4  -8   2    0.87    0.18 
   4   8  -2    1.25    0.22 
   4  -8   2    0.62    0.23 
  -4   8  -2    0.88    0.21 
   4  -8  -2    1.27    0.25 
  -4  -8   2    1.26    0.21 
   4  -8  -2    1.36    0.22 
  -6   8   2   -0.10    0.16 
  -6  -8  -2    0.14    0.17 
   6   8  -2    0.50    0.20 
   6  -8   2    0.04    0.19 
  -6   8  -2    0.11    0.18 
   6  -8  -2    0.09    0.18 
   1   9  -2    0.71    0.18 
  -1   9   2    0.68    0.19 
  -1  -9  -2    0.47    0.18 
  -1  -9  -2    0.33    0.15 
   1  -9   2    0.06    0.16 
   1   9  -2    0.49    0.19 
  -1   9  -2    0.41    0.16 
  -1  -9   2    0.73    0.19 
   1  -9  -2    0.56    0.18 
   1   9   2    0.63    0.19 
   1  -9  -2    0.53    0.17 
  -1   9  -2    0.34    0.17 
  -3  -9  -2    0.22    0.16 
   3  -9   2    0.01    0.17 
  -3   9   2    0.08    0.16 
   3  -9   2    0.08    0.14 
   3   9  -2    0.18    0.16 
   3  -9  -2    0.21    0.15 
  -3   9  -2    0.27    0.17 
   3  -9  -2    0.15    0.16 
  -3  -9   2    0.21    0.15 
   5  -9   2    0.03    0.18 
   5   9  -2   -0.05    0.17 
  -5  -9  -2    0.06    0.16 
  -5   9   2    0.37    0.20 
  -5   9  -2    0.54    0.23 
   5  -9  -2    0.17    0.19 
  -5  -9   2   -0.09    0.15 
   0 -10  -2    1.64    0.27 
   0  10  -2    1.49    0.27 
   0 -10  -2    1.36    0.23 
   0  10   2    1.76    0.26 
   0 -10   2    1.42    0.26 
   0  10  -2    1.73    0.26 
   2 -10   2    0.12    0.19 
  -2 -10  -2    0.20    0.18 
   2  10  -2   -0.08    0.16 
   2 -10   2    0.18    0.16 
  -2  10   2    0.18    0.15 
   2 -10  -2    0.22    0.16 
   2 -10  -2    0.32    0.18 
  -2  10  -2   -0.08    0.15 
  -2 -10   2    0.20    0.18 
   4 -10   2   -0.02    0.21 
  -4 -10  -2    0.08    0.16 
   4 -10   2    0.32    0.19 
  -4  10   2    0.37    0.21 
   4  10  -2    0.07    0.19 
   4 -10  -2    0.53    0.21 
   4 -10  -2    0.44    0.20 
  -4  10  -2    0.07    0.17 
  -4 -10   2    0.13    0.18 
   1 -11   2    1.40    0.27 
  -1  11   2    1.01    0.23 
   1  11  -2    1.34    0.25 
  -1 -11  -2    0.88    0.25 
   1  11  -2    0.88    0.25 
   1 -11   2    1.23    0.28 
  -1 -11   2    0.76    0.25 
  -1  11  -2    1.12    0.25 
   1 -11  -2    1.08    0.25 
  -3 -11  -2    0.36    0.20 
   3  11  -2    0.33    0.22 
   3 -11   2    0.24    0.20 
   3 -11   2    0.02    0.20 
  -3  11   2   -0.11    0.18 
  -3  11  -2    0.29    0.19 
   3 -11  -2    0.22    0.22 
   3 -11  -2    0.48    0.21 
   0 -12   2    0.71    0.25 
   0  12   2    0.71    0.23 
   0 -12   2    0.20    0.21 
   0 -12  -2    0.60    0.24 
   0  12  -2    0.26    0.19 
  -2 -12  -2    0.25    0.21 
   2 -12   2    0.64    0.24 
  -2  12   2    0.72    0.25 
   2 -12   2    0.30    0.24 
   2 -12  -2    0.06    0.22 
  -2  12  -2    0.49    0.22 
  -2 -12   2    0.68    0.24 
   1   0   3  364.50    5.74 
  -1   0   3  367.61    5.54 
   1   0  -3  359.79    5.63 
  -1   0  -3  347.48    5.67 
  -1   0  -3  365.37    5.59 
   1   0  -3  347.18    5.82 
   3   0  -3  101.25    1.82 
  -3   0   3  103.96    1.71 
  -3   0  -3  101.18    1.79 
   3   0  -3  104.71    1.65 
   3   0   3  104.46    1.79 
   5   0   3   45.73    1.05 
  -5   0   3   45.58    0.98 
   5   0  -3   44.31    1.08 
  -5   0  -3   45.07    1.06 
  -7   0   3    3.35    0.33 
  -7   0  -3    3.26    0.35 
   7   0  -3    2.63    0.34 
   7   0   3    3.49    0.36 
   0   1  -3  407.20    6.24 
   0  -1   3  399.17    6.40 
   0   1  -3  395.58    6.23 
   0  -1  -3  396.04    6.12 
   2   1  -3   16.32    0.36 
   2  -1   3   16.51    0.41 
  -2   1   3   16.11    0.36 
  -2  -1  -3   16.29    0.41 
  -2  -1  -3   16.58    0.33 
   2   1  -3   15.84    0.42 
  -2   1  -3   16.12    0.41 
   2  -1  -3   16.12    0.35 
  -2  -1   3   16.48    0.33 
   2   1   3   16.53    0.37 
   2  -1  -3   16.86    0.41 
  -2   1  -3   16.90    0.30 
   4   1  -3   63.09    1.30 
   4   1  -3   62.91    1.09 
   4  -1   3   62.79    1.27 
  -4  -1  -3   62.34    1.27 
  -4   1   3   62.93    1.21 
   4  -1  -3   64.59    1.31 
   4   1   3   63.43    1.25 
  -4  -1   3   63.23    1.17 
   4  -1  -3   64.36    1.07 
  -4   1  -3   62.53    1.27 
  -6  -1  -3    7.42    0.41 
   6   1  -3    8.69    0.46 
   6  -1   3    8.40    0.44 
  -6   1   3    7.81    0.39 
   6   1   3    8.47    0.43 
  -6  -1   3    8.13    0.39 
   6  -1  -3    7.82    0.45 
  -6   1  -3    8.08    0.43 
   8  -1   3    0.29    0.20 
   8   1  -3    0.42    0.23 
  -8  -1  -3    0.38    0.23 
   8  -1  -3    0.62    0.24 
  -8   1  -3    0.48    0.23 
   8   1   3    0.48    0.21 
   1   2  -3  301.60    4.69 
  -1  -2  -3  298.04    4.62 
   1   2  -3  294.44    4.81 
  -1   2   3  301.82    4.67 
   1  -2   3  295.84    4.62 
   1   2  -3  290.39    4.67 
   1  -2  -3  299.44    4.72 
   1   2   3  308.97    4.69 
  -1   2  -3  288.01    4.57 
  -1   2  -3  293.45    4.69 
   1  -2  -3  287.19    4.78 
   3   2  -3  109.56    1.96 
  -3  -2  -3  113.80    1.78 
   3  -2   3  111.62    1.96 
  -3  -2  -3  111.25    1.94 
  -3   2   3  108.49    1.88 
   3   2  -3  111.34    1.83 
   3   2   3  112.00    1.88 
  -3   2  -3  109.25    1.94 
   3  -2  -3  112.78    1.96 
   3  -2  -3  112.80    1.80 
  -3  -2   3  109.82    1.83 
  -3   2  -3  111.01    1.72 
   5   2  -3   28.41    0.60 
  -5   2   3   28.33    0.75 
   5  -2   3   26.91    0.79 
   5   2  -3   27.77    0.81 
  -5  -2  -3   28.35    0.78 
   5  -2  -3   28.61    0.81 
  -5  -2   3   27.84    0.69 
  -5   2  -3   27.18    0.79 
   5   2   3   27.89    0.75 
  -7  -2  -3    5.90    0.41 
  -7   2   3    4.79    0.37 
   7   2  -3    5.16    0.40 
   7  -2   3    5.66    0.41 
   7   2   3    5.31    0.39 
   7  -2  -3    4.50    0.43 
  -7   2  -3    5.98    0.45 
   0   3  -3   25.89    0.54 
   0   3  -3   26.75    0.57 
   0   3   3   26.19    0.57 
   0  -3  -3   26.98    0.49 
   0  -3   3   26.67    0.57 
   2  -3   3    3.96    0.24 
  -2  -3  -3    3.77    0.18 
   2   3  -3    3.64    0.19 
  -2   3   3    3.89    0.20 
  -2   3  -3    3.64    0.21 
   2  -3  -3    3.97    0.20 
   2   3   3    4.20    0.16 
  -2   3  -3    3.85    0.17 
   2  -3  -3    3.75    0.20 
  -4   3   3   18.88    0.57 
   4   3  -3   19.52    0.59 
  -4  -3  -3   19.74    0.60 
   4  -3   3   20.18    0.39 
   4  -3   3   18.84    0.60 
   4   3  -3   20.03    0.50 
  -4  -3  -3   19.47    0.47 
  -4   3  -3   19.23    0.60 
  -4  -3   3   19.67    0.51 
   4  -3  -3   19.60    0.61 
   4   3   3   19.78    0.54 
   4  -3  -3   19.28    0.46 
  -6  -3  -3    1.93    0.28 
   6   3  -3    1.50    0.24 
   6  -3   3    1.44    0.24 
  -6   3   3    1.02    0.23 
  -6   3  -3    1.34    0.26 
   6  -3  -3    1.58    0.26 
  -6  -3   3    1.77    0.22 
   6   3   3    1.69    0.24 
   8   3  -3   -0.07    0.16 
   8  -3   3   -0.08    0.18 
  -8  -3  -3    0.04    0.19 
  -8   3   3    0.48    0.23 
  -8   3  -3    0.44    0.26 
   8  -3  -3    0.29    0.21 
   8   3   3    0.28    0.20 
   1  -4   3   90.37    1.62 
  -1   4   3   90.18    1.59 
   1   4  -3   91.26    1.59 
  -1  -4  -3   91.08    1.48 
   1   4  -3   92.34    1.54 
  -1  -4  -3   90.76    1.59 
  -1   4  -3   89.57    1.56 
   1  -4  -3   90.30    1.54 
  -1   4  -3   88.33    1.58 
   1  -4  -3   88.99    1.57 
  -1  -4   3   89.63    1.59 
   3   4  -3   64.73    1.31 
   3   4  -3   66.64    1.25 
  -3  -4  -3   66.20    1.23 
   3  -4   3   64.95    1.34 
  -3   4   3   66.85    1.29 
   3   4   3   64.95    1.21 
   3  -4  -3   64.78    1.20 
  -3   4  -3   66.10    1.17 
  -3   4  -3   67.02    1.33 
   3  -4  -3   63.56    1.29 
  -5  -4  -3    9.07    0.43 
   5  -4   3    8.60    0.46 
   5   4  -3    9.34    0.36 
  -5   4   3    9.07    0.43 
   5   4  -3    9.25    0.44 
   5  -4  -3    8.30    0.43 
   5   4   3   10.26    0.42 
  -5  -4   3    9.84    0.39 
  -5   4  -3    8.93    0.47 
   7   4  -3    1.97    0.30 
  -7   4   3    2.47    0.33 
   7  -4   3    2.29    0.34 
  -7  -4  -3    2.68    0.34 
   7  -4  -3    1.85    0.30 
   7   4   3    2.89    0.33 
  -7   4  -3    2.51    0.36 
   0  -5  -3  247.16    3.97 
   0   5  -3  250.02    3.97 
   0   5  -3  245.42    3.97 
   0  -5   3  247.33    4.01 
   0  -5  -3  254.70    3.91 
   0   5   3  243.98    4.00 
  -2   5   3   86.40    1.65 
   2   5  -3   86.72    1.63 
  -2  -5  -3   89.60    1.63 
   2  -5   3   91.57    1.70 
  -2  -5  -3   90.56    1.53 
   2   5  -3   91.41    1.66 
   2  -5  -3   88.24    1.62 
   2  -5  -3   87.84    1.60 
  -2   5  -3   88.52    1.59 
  -2   5  -3   90.78    1.68 
   4  -5   3   49.38    0.96 
  -4   5   3   49.31    1.14 
   4   5  -3   49.44    1.07 
   4   5  -3   51.31    1.16 
   4  -5   3   50.93    1.20 
  -4  -5  -3   49.16    1.05 
   4   5   3   52.14    1.07 
   4  -5  -3   49.90    1.17 
  -4   5  -3   50.65    1.19 
   4  -5  -3   52.09    1.03 
  -6  -5  -3   10.20    0.51 
   6   5  -3   10.02    0.52 
  -6   5   3   10.51    0.52 
   6  -5   3   10.70    0.56 
   6  -5  -3   11.39    0.56 
  -6   5  -3   10.36    0.56 
   6   5   3   10.01    0.46 
   8   5  -3    1.16    0.29 
  -8   5   3    1.37    0.30 
  -8  -5  -3    0.64    0.25 
   8  -5   3    0.88    0.26 
  -8   5  -3    1.36    0.32 
   8  -5  -3    0.92    0.29 
   1   6  -3   87.02    1.64 
   1  -6   3   85.92    1.66 
  -1  -6  -3   88.18    1.66 
  -1   6   3   85.44    1.65 
   1   6  -3   88.07    1.60 
  -1  -6  -3   87.23    1.52 
   1   6   3   84.87    1.64 
  -1  -6   3   87.34    1.64 
  -1   6  -3   89.97    1.65 
   1  -6  -3   88.01    1.58 
   1  -6  -3   85.29    1.63 
  -1   6  -3   85.62    1.63 
  -3   6   3   39.83    0.98 
   3   6  -3   39.41    0.94 
   3  -6   3   39.53    1.00 
  -3  -6  -3   39.07    0.94 
   3   6  -3   40.04    0.96 
   3   6   3   38.71    0.85 
   3  -6  -3   38.76    0.94 
   3  -6  -3   39.80    0.90 
  -3   6  -3   41.05    1.01 
  -3   6  -3   40.07    0.88 
   5   6  -3   16.35    0.62 
   5  -6   3   16.13    0.66 
  -5  -6  -3   16.46    0.54 
   5   6  -3   15.82    0.55 
  -5   6   3   16.21    0.63 
  -5  -6  -3   16.40    0.63 
   5   6   3   15.93    0.55 
  -5  -6   3   15.49    0.55 
   5  -6  -3   15.72    0.63 
  -5   6  -3   16.78    0.68 
   7  -6   3    2.49    0.38 
  -7   6   3    2.33    0.34 
  -7  -6  -3    3.00    0.38 
   7   6  -3    2.35    0.34 
   7  -6  -3    2.64    0.37 
  -7   6  -3    2.59    0.37 
   0  -7  -3   15.22    0.47 
   0   7  -3   15.56    0.55 
   0  -7   3   16.92    0.55 
   0   7  -3   16.29    0.53 
   0   7   3   15.72    0.55 
   0  -7  -3   14.75    0.54 
  -2  -7  -3    0.22    0.15 
   2   7  -3    0.10    0.14 
  -2  -7  -3    0.28    0.12 
   2  -7   3    0.34    0.17 
  -2   7   3    0.18    0.15 
  -2   7  -3    0.11    0.14 
   2  -7  -3    0.16    0.13 
  -2   7  -3   -0.02    0.12 
  -2  -7   3    0.29    0.14 
   2  -7  -3    0.31    0.15 
   4  -7   3    4.42    0.27 
  -4   7   3    3.76    0.36 
   4  -7   3    3.42    0.36 
  -4  -7  -3    4.12    0.30 
   4   7  -3    3.91    0.35 
   4   7  -3    3.53    0.33 
   4  -7  -3    3.87    0.36 
  -4   7  -3    3.64    0.37 
   4  -7  -3    3.97    0.28 
   4   7   3    4.23    0.28 
   6  -7   3    0.69    0.25 
  -6  -7  -3    0.55    0.21 
   6   7  -3    0.79    0.21 
  -6   7   3    0.41    0.20 
   6  -7  -3    0.53    0.21 
  -6   7  -3    0.62    0.25 
   1   8  -3    8.66    0.44 
  -1   8   3    9.38    0.45 
  -1  -8  -3    9.27    0.36 
  -1  -8  -3    9.02    0.46 
   1   8  -3    8.98    0.41 
   1  -8   3    8.93    0.45 
  -1   8  -3    8.66    0.43 
  -1  -8   3    8.72    0.42 
   1  -8  -3    8.77    0.44 
  -1   8  -3    8.93    0.43 
   1  -8  -3    9.23    0.40 
   3  -8   3    5.27    0.40 
  -3  -8  -3    6.54    0.39 
  -3   8   3    5.47    0.37 
   3   8  -3    6.51    0.39 
   3  -8   3    5.45    0.34 
  -3  -8   3    6.03    0.37 
   3  -8  -3    5.33    0.34 
   3  -8  -3    5.38    0.36 
  -3   8  -3    6.13    0.39 
   5   8  -3    2.37    0.31 
   5   8  -3    2.02    0.28 
  -5   8   3    2.39    0.32 
  -5  -8  -3    1.98    0.27 
   5  -8   3    2.24    0.35 
   5  -8  -3    1.30    0.27 
  -5   8  -3    1.62    0.29 
   7  -8   3    0.26    0.22 
   7   8  -3    0.19    0.20 
  -7  -8  -3    0.33    0.23 
  -7   8   3    0.12    0.20 
   7  -8  -3    0.07    0.20 
  -7   8  -3    0.22    0.24 
   0   9   3   35.90    0.99 
   0   9  -3   36.27    0.96 
   0   9  -3   37.73    1.01 
   0  -9   3   36.91    0.99 
   0  -9  -3   35.96    1.01 
   0  -9  -3   36.65    0.89 
  -2   9   3   20.21    0.73 
   2  -9   3   20.22    0.74 
   2   9  -3   20.53    0.74 
  -2  -9  -3   21.45    0.75 
   2  -9  -3   19.27    0.66 
  -2   9  -3   20.85    0.74 
  -2   9  -3   21.31    0.71 
   2  -9  -3   20.45    0.71 
  -2  -9   3   21.32    0.70 
   4   9  -3   12.02    0.56 
   4  -9   3   13.12    0.63 
   4  -9   3   14.50    0.55 
  -4   9   3   12.46    0.60 
  -4  -9  -3   11.59    0.55 
   4  -9  -3   11.43    0.56 
  -4   9  -3   13.50    0.64 
   4  -9  -3   11.91    0.54 
  -4  -9   3   11.75    0.56 
   6  -9   3    2.70    0.39 
  -6  -9  -3    2.28    0.34 
  -6   9   3    1.96    0.35 
  -6  -9   3    1.91    0.31 
   6  -9  -3    2.38    0.36 
  -6   9  -3    2.90    0.41 
   1  10  -3   24.04    0.84 
   1  10  -3   23.78    0.78 
   1 -10   3   24.05    0.82 
  -1 -10  -3   23.82    0.84 
  -1  10   3   22.35    0.80 
  -1 -10   3   22.59    0.78 
   1 -10  -3   23.73    0.82 
  -1  10  -3   23.71    0.80 
   1 -10  -3   22.69    0.72 
  -1  10  -3   23.23    0.81 
   3  10  -3   17.39    0.72 
  -3  10   3   16.44    0.71 
  -3 -10  -3   16.93    0.71 
   3 -10   3   17.87    0.68 
   3 -10   3   17.77    0.74 
   3 -10  -3   16.97    0.67 
   3 -10  -3   17.90    0.70 
  -3 -10   3   18.23    0.69 
  -3  10  -3   16.63    0.71 
   5 -10   3    3.03    0.42 
  -5  10   3    4.32    0.47 
  -5 -10  -3    3.54    0.39 
   5  10  -3    4.10    0.42 
   5 -10  -3    3.52    0.43 
  -5  10  -3    3.53    0.45 
   0  11   3    2.16    0.33 
   0 -11   3    2.60    0.34 
   0  11  -3    2.54    0.34 
   0 -11  -3    2.58    0.35 
   0  11  -3    2.35    0.32 
  -2  11   3    2.34    0.34 
   2  11  -3    1.57    0.30 
  -2 -11  -3    1.98    0.32 
   2 -11   3    1.30    0.26 
   2 -11   3    1.64    0.30 
   2 -11  -3    2.02    0.32 
  -2 -11   3    1.58    0.30 
  -2  11  -3    1.65    0.30 
  -4  11   3    0.39    0.20 
   4 -11   3    0.60    0.26 
   4  11  -3    0.80    0.26 
  -4 -11  -3    0.65    0.24 
   4 -11  -3    0.85    0.24 
   4 -11  -3    0.95    0.26 
  -4  11  -3    0.89    0.27 
  -1 -12  -3    1.73    0.33 
   1 -12   3    1.64    0.32 
   1 -12   3    1.62    0.31 
  -1  12   3    1.59    0.31 
  -1 -12   3    0.98    0.30 
   1 -12  -3    2.46    0.36 
  -1  12  -3    0.99    0.27 
   3 -12   3    0.92    0.25 
  -3  12   3    1.58    0.30 
   3 -12   3    0.70    0.28 
  -3 -12  -3    1.09    0.30 
  -3  12  -3    1.13    0.29 
   3 -12  -3    1.59    0.31 
   0   0  -4   19.73    0.36 
   0   0  -4   20.16    0.40 
   0   0  -4   19.10    0.36 
  -2   0  -4   13.39    0.27 
  -2   0  -4   13.10    0.36 
  -2   0   4   12.86    0.28 
   2   0  -4   13.51    0.37 
   2   0  -4   12.19    0.31 
   2   0   4   13.02    0.33 
   4   0   4    2.77    0.22 
   4   0  -4    2.38    0.14 
  -4   0   4    2.79    0.19 
  -4   0  -4    2.30    0.23 
   4   0  -4    2.36    0.23 
   6   0  -4    0.69    0.18 
  -6   0  -4    0.71    0.21 
  -6   0   4    0.83    0.18 
   6   0   4    0.69    0.18 
  -8   0  -4   -0.10    0.19 
   8   0  -4   -0.24    0.14 
   8   0   4   -0.04    0.16 
   1   1  -4   14.15    0.33 
   1  -1   4   14.04    0.34 
  -1   1   4   13.52    0.29 
  -1  -1  -4   13.86    0.32 
   1   1  -4   13.73    0.35 
  -1   1  -4   14.15    0.31 
   1   1   4   14.15    0.27 
  -1   1  -4   14.32    0.34 
   1  -1  -4   13.30    0.33 
   1  -1  -4   14.06    0.32 
   3   1  -4    6.89    0.23 
   3   1  -4    6.50    0.29 
  -3  -1  -4    7.01    0.19 
  -3  -1  -4    6.76    0.30 
  -3   1   4    6.53    0.24 
   3  -1   4    6.67    0.28 
   3  -1  -4    7.02    0.22 
   3  -1  -4    6.45    0.29 
   3   1   4    6.95    0.27 
  -3   1  -4    6.69    0.30 
  -3  -1   4    7.47    0.22 
  -3   1  -4    6.69    0.14 
  -5   1   4    3.43    0.28 
   5  -1   4    3.21    0.29 
   5   1  -4    2.77    0.30 
  -5  -1  -4    3.15    0.30 
   5   1  -4    3.13    0.18 
  -5   1  -4    3.19    0.30 
   5  -1  -4    2.77    0.29 
  -5  -1   4    3.46    0.24 
   5   1   4    3.12    0.28 
  -7  -1  -4    0.83    0.24 
   7  -1   4    0.48    0.19 
  -7   1   4    0.48    0.19 
   7   1  -4    0.35    0.19 
  -7   1  -4    0.50    0.20 
   7   1   4    0.77    0.20 
   7  -1  -4    0.17    0.17 
   0  -2   4    0.31    0.08 
   0   2  -4    0.30    0.06 
   0   2   4    0.42    0.08 
   0  -2  -4    0.28    0.09 
   0  -2  -4    0.37    0.04 
   0   2  -4    0.26    0.08 
  -2  -2  -4    0.31    0.08 
  -2   2   4    0.50    0.09 
   2   2  -4    0.34    0.09 
   2  -2   4    0.20    0.09 
   2   2  -4    0.35    0.08 
   2  -2  -4    0.50    0.09 
   2   2   4    0.52    0.07 
  -2   2  -4    0.47    0.07 
  -2   2  -4    0.48    0.10 
   2  -2  -4    0.41    0.09 
  -4   2   4    3.12    0.22 
   4   2  -4    3.70    0.27 
  -4  -2  -4    3.40    0.16 
   4  -2   4    3.49    0.26 
  -4  -2  -4    3.74    0.25 
   4   2  -4    4.18    0.20 
   4  -2  -4    3.21    0.18 
   4  -2  -4    3.50    0.26 
   4   2   4    4.13    0.24 
  -4  -2   4    4.03    0.20 
  -4   2  -4    3.97    0.29 
   6   2  -4    0.79    0.20 
   6  -2   4    1.00    0.21 
  -6  -2  -4    1.08    0.22 
  -6   2   4    0.87    0.19 
   6  -2  -4    1.37    0.24 
  -6  -2   4    0.77    0.17 
  -6   2  -4    0.87    0.23 
   6   2   4    1.09    0.20 
   8   2  -4    0.35    0.20 
   8  -2   4   -0.18    0.15 
  -8  -2  -4    0.19    0.21 
   8   2   4    0.18    0.19 
  -8   2  -4    0.13    0.22 
   8  -2  -4   -0.18    0.16 
   1   3  -4   -0.01    0.05 
   1   3  -4   -0.03    0.06 
  -1   3   4   -0.01    0.05 
  -1  -3  -4    0.02    0.03 
   1  -3   4    0.04    0.08 
  -1  -3  -4   -0.01    0.07 
   1   3  -4    0.07    0.07 
   1  -3  -4    0.08    0.08 
  -1   3  -4    0.02    0.06 
  -1   3  -4    0.00    0.06 
   1  -3  -4    0.00    0.06 
  -3  -3  -4   11.02    0.33 
   3   3  -4   10.62    0.35 
  -3   3   4   11.00    0.37 
   3  -3   4   11.55    0.41 
   3   3  -4   11.16    0.40 
  -3   3  -4   10.94    0.29 
  -3   3  -4   11.28    0.41 
  -3  -3   4   10.62    0.31 
   3   3   4   11.22    0.33 
   3  -3  -4   10.53    0.33 
   3  -3  -4   10.80    0.39 
   5   3  -4    0.24    0.14 
  -5  -3  -4    0.05    0.14 
   5   3  -4    0.21    0.10 
  -5   3   4    0.56    0.17 
   5  -3   4    0.27    0.15 
  -5   3  -4    0.33    0.16 
   5   3   4    0.22    0.11 
  -5  -3   4    0.40    0.13 
   5  -3  -4    0.20    0.13 
  -7  -3  -4    1.12    0.26 
   7  -3   4    0.83    0.23 
  -7   3   4    1.28    0.24 
   7   3  -4    0.80    0.23 
  -7   3  -4    0.70    0.25 
   7   3   4    0.82    0.19 
   7  -3  -4    0.64    0.23 
   0  -4  -4    2.00    0.18 
   0   4   4    2.17    0.16 
   0  -4   4    2.06    0.18 
   0   4  -4    1.63    0.17 
   0   4  -4    1.91    0.16 
   0  -4  -4    2.14    0.13 
  -2   4   4    0.72    0.13 
   2  -4   4    0.78    0.15 
  -2  -4  -4    0.73    0.12 
   2   4  -4    0.75    0.12 
   2   4  -4    0.65    0.13 
   2  -4  -4    0.83    0.13 
   2  -4  -4    0.85    0.13 
  -2   4  -4    0.85    0.12 
   2   4   4    0.82    0.09 
  -2   4  -4    0.74    0.14 
   4  -4   4    0.12    0.08 
  -4   4   4    0.11    0.13 
   4  -4   4   -0.16    0.14 
   4   4  -4    0.10    0.10 
  -4  -4  -4   -0.03    0.11 
   4   4  -4    0.02    0.10 
  -4  -4  -4    0.00    0.09 
   4  -4  -4    0.02    0.11 
  -4  -4   4    0.06    0.10 
  -4   4  -4   -0.05    0.13 
   4   4   4    0.00    0.10 
   4  -4  -4    0.01    0.13 
  -6  -4  -4    0.03    0.15 
   6   4  -4    0.07    0.14 
  -6   4   4   -0.14    0.12 
   6  -4   4    0.00    0.15 
   6  -4  -4    0.04    0.14 
   6   4   4   -0.04    0.12 
  -6   4  -4    0.01    0.17 
  -8  -4  -4    0.06    0.22 
   8  -4   4   -0.33    0.12 
   8   4  -4   -0.24    0.15 
   8  -4  -4    0.18    0.21 
  -8   4  -4    0.10    0.23 
   1   5  -4   11.34    0.40 
   1  -5   4   11.43    0.42 
  -1  -5  -4   11.51    0.30 
  -1  -5  -4   11.69    0.41 
  -1   5   4   11.69    0.40 
   1   5  -4   11.56    0.36 
   1  -5  -4   11.58    0.40 
   1  -5  -4   11.60    0.35 
  -1  -5   4   11.01    0.40 
  -1   5  -4   11.90    0.40 
  -1   5  -4   11.72    0.39 
   3   5  -4    8.37    0.38 
  -3   5   4    8.09    0.37 
   3  -5   4    8.66    0.43 
  -3  -5  -4    8.93    0.36 
   3   5  -4    8.52    0.36 
   3  -5  -4    9.07    0.38 
   3   5   4    8.63    0.30 
  -3   5  -4    8.81    0.42 
   3  -5  -4    8.36    0.35 
  -3   5  -4    8.34    0.32 
   5   5  -4    1.45    0.24 
  -5  -5  -4    1.70    0.25 
  -5   5   4    1.55    0.24 
   5  -5   4    1.45    0.25 
   5   5  -4    1.84    0.21 
   5   5   4    2.05    0.22 
   5  -5  -4    1.60    0.24 
  -5   5  -4    1.67    0.27 
  -5  -5   4    1.68    0.20 
   7  -5   4    0.78    0.26 
  -7  -5  -4    0.76    0.24 
   7   5  -4    0.81    0.23 
  -7   5   4    0.94    0.25 
  -7   5  -4    0.83    0.25 
   7  -5  -4    0.84    0.23 
   0  -6  -4    2.01    0.18 
   0   6   4    2.05    0.23 
   0  -6  -4    1.97    0.22 
   0   6  -4    2.39    0.22 
   0   6  -4    2.02    0.22 
   0  -6   4    2.06    0.23 
  -2   6   4    0.98    0.19 
   2   6  -4    0.60    0.16 
  -2  -6  -4    0.76    0.12 
  -2  -6  -4    0.88    0.18 
   2  -6   4    0.79    0.21 
   2  -6  -4    0.82    0.16 
  -2  -6   4    0.85    0.17 
  -2   6  -4    0.98    0.16 
   2  -6  -4    0.70    0.16 
  -2   6  -4    0.80    0.17 
  -4  -6  -4    0.51    0.15 
   4  -6   4    0.39    0.19 
  -4   6   4    0.45    0.17 
   4   6  -4    0.61    0.17 
   4   6  -4    0.67    0.16 
   4  -6   4    0.32    0.11 
   4   6   4    0.44    0.12 
   4  -6  -4    0.46    0.14 
  -4   6  -4    0.47    0.17 
   4  -6  -4    0.75    0.19 
  -6  -6  -4    0.41    0.17 
   6   6  -4    0.27    0.17 
   6  -6   4    0.34    0.20 
  -6   6   4    0.28    0.17 
   6  -6  -4    0.62    0.21 
  -6   6  -4    0.30    0.22 
  -1   7   4    1.08    0.18 
   1   7  -4    1.01    0.20 
   1   7  -4    1.04    0.17 
   1  -7   4    1.17    0.23 
  -1  -7  -4    1.17    0.16 
  -1  -7  -4    1.00    0.20 
  -1   7  -4    0.89    0.17 
   1  -7  -4    1.20    0.21 
  -1   7  -4    1.39    0.21 
  -1  -7   4    1.09    0.19 
   1  -7  -4    1.15    0.18 
  -3   7   4    0.68    0.18 
  -3  -7  -4    0.60    0.16 
   3  -7   4    0.74    0.20 
  -3  -7  -4    0.41    0.12 
   3   7  -4    0.52    0.17 
   3  -7  -4    0.54    0.16 
  -3  -7   4    0.29    0.15 
  -3   7  -4    0.66    0.16 
  -3   7  -4    0.66    0.18 
   3  -7  -4    1.00    0.19 
   5   7  -4    0.96    0.22 
  -5  -7  -4    0.37    0.16 
  -5   7   4    0.36    0.19 
   5   7  -4    0.64    0.19 
   5  -7   4    0.75    0.22 
   5  -7  -4    0.50    0.20 
  -5   7  -4    0.65    0.23 
  -7   7   4    0.24    0.20 
   7   7  -4    0.19    0.20 
  -7  -7  -4    0.15    0.21 
   7  -7   4    0.24    0.21 
   7  -7  -4    0.15    0.19 
  -7   7  -4    0.02    0.22 
   0  -8  -4   -0.03    0.12 
   0  -8   4    0.05    0.15 
   0  -8  -4    0.06    0.14 
   0   8   4    0.01    0.10 
   0   8  -4   -0.14    0.12 
   0   8  -4   -0.05    0.10 
  -2   8   4    1.32    0.22 
  -2  -8  -4    1.36    0.23 
   2  -8   4    2.09    0.29 
   2   8  -4    2.27    0.28 
  -2   8  -4    1.24    0.21 
   2  -8  -4    1.97    0.24 
  -2   8  -4    1.77    0.23 
   2  -8  -4    2.01    0.26 
  -2  -8   4    1.54    0.24 
   4  -8   4    0.12    0.12 
   4   8  -4    0.12    0.14 
   4  -8   4   -0.29    0.16 
  -4   8   4    0.08    0.15 
  -4  -8  -4   -0.04    0.13 
   4  -8  -4   -0.21    0.12 
  -4  -8   4    0.13    0.14 
   4  -8  -4   -0.01    0.13 
  -4   8  -4    0.07    0.16 
   6  -8   4    0.11    0.21 
   6   8  -4    0.00    0.16 
  -6  -8  -4    0.20    0.19 
  -6   8   4   -0.06    0.17 
   6  -8  -4    0.19    0.18 
  -6   8  -4    0.22    0.22 
   1   9  -4    1.64    0.23 
   1   9  -4    1.71    0.26 
  -1   9   4    1.72    0.27 
   1  -9   4    1.51    0.27 
  -1  -9  -4    1.88    0.28 
  -1  -9   4    1.71    0.26 
  -1   9  -4    1.54    0.24 
   1  -9  -4    1.51    0.26 
  -1   9  -4    1.84    0.26 
   1  -9  -4    1.93    0.24 
   3  -9   4    2.40    0.28 
  -3  -9  -4    2.30    0.31 
   3   9  -4    2.69    0.32 
   3  -9   4    1.64    0.31 
  -3   9   4    3.08    0.34 
   3  -9  -4    2.58    0.31 
  -3   9  -4    3.41    0.38 
   3  -9  -4    2.50    0.30 
  -3  -9   4    2.34    0.30 
   5  -9   4    0.30    0.21 
  -5  -9  -4    0.40    0.18 
   5   9  -4    0.15    0.19 
  -5   9   4    0.25    0.20 
  -5   9  -4    0.63    0.24 
  -5  -9   4    0.46    0.20 
   5  -9  -4    0.46    0.21 
   0  10   4    0.13    0.14 
   0  10  -4    0.06    0.13 
   0 -10  -4    0.16    0.18 
   0 -10   4   -0.06    0.17 
   0  10  -4    0.24    0.17 
  -2 -10  -4    0.01    0.16 
   2  10  -4   -0.24    0.13 
   2 -10   4   -0.27    0.16 
  -2  10   4   -0.04    0.15 
   2 -10  -4    0.11    0.16 
   2 -10  -4    0.09    0.17 
  -2 -10   4    0.02    0.16 
  -2  10  -4   -0.06    0.14 
  -2  10  -4   -0.15    0.14 
  -4  10   4   -0.13    0.15 
   4  10  -4    0.32    0.20 
   4 -10   4   -0.07    0.20 
  -4 -10  -4   -0.29    0.14 
   4 -10  -4    0.14    0.18 
   4 -10  -4   -0.19    0.14 
  -4 -10   4    0.14    0.16 
  -4  10  -4    0.14    0.17 
   1 -11   4   -0.10    0.18 
  -1  11   4    0.11    0.14 
   1  11  -4   -0.10    0.13 
   1  11  -4    0.07    0.18 
  -1 -11  -4    0.01    0.17 
  -1  11  -4   -0.06    0.15 
   1 -11  -4   -0.12    0.16 
  -1  11  -4    0.20    0.18 
  -1 -11   4    0.25    0.19 
   3 -11   4    0.06    0.16 
   3  11  -4    0.29    0.22 
   3 -11   4    0.01    0.21 
  -3 -11  -4   -0.04    0.18 
  -3  11   4    0.18    0.20 
  -3  11  -4    0.26    0.21 
   3 -11  -4    0.23    0.20 
  -3 -11   4    0.12    0.21 
   0  12  -4   -0.15    0.19 
   0 -12  -4   -0.03    0.18 
   0 -12   4    0.03    0.23 
   0  12  -4   -0.17    0.12 
   2 -12   4    0.20    0.24 
  -2  12   4    0.10    0.19 
  -2 -12  -4    0.09    0.21 
   2  12  -4    0.06    0.19 
   2 -12   4    0.60    0.23 
  -2 -12   4   -0.02    0.22 
   2 -12  -4    0.12    0.20 
  -2  12  -4    0.33    0.21 
   1   0  -5   14.70    0.35 
  -1   0  -5   13.83    0.34 
  -1   0  -5   14.28    0.32 
   1   0  -5   13.58    0.34 
   1   0   5   14.23    0.31 
   3   0   5   13.35    0.39 
   3   0  -5   13.75    0.43 
  -3   0   5   13.39    0.33 
  -3   0  -5   13.62    0.28 
  -3   0  -5   13.62    0.43 
   3   0  -5   14.65    0.36 
   5   0  -5    4.87    0.21 
   5   0  -5    4.79    0.34 
   5   0   5    4.79    0.31 
  -5   0  -5    4.76    0.33 
  -5   0   5    5.03    0.29 
   7   0   5    0.48    0.17 
   7   0  -5    0.12    0.17 
  -7   0  -5    0.57    0.22 
   0   1  -5    9.41    0.22 
   0  -1  -5    9.30    0.27 
   0  -1  -5    9.62    0.20 
   0   1  -5    8.99    0.27 
   0  -1   5    9.36    0.26 
  -2  -1  -5  167.25    2.55 
  -2  -1  -5  161.51    2.67 
   2  -1   5  163.09    2.66 
  -2   1   5  166.97    2.56 
   2   1  -5  152.99    2.68 
   2   1  -5  166.58    2.60 
  -2   1  -5  163.75    2.67 
  -2   1  -5  168.32    2.53 
  -2  -1   5  163.93    2.49 
   2   1   5  167.57    2.59 
   2  -1  -5  161.82    2.59 
   2  -1  -5  161.66    2.66 
   4  -1   5    0.79    0.15 
  -4  -1  -5    0.86    0.16 
   4   1  -5    0.82    0.12 
  -4   1   5    0.92    0.14 
  -4  -1  -5    0.92    0.08 
   4   1  -5    0.85    0.16 
  -4   1  -5    0.58    0.17 
   4   1   5    0.81    0.14 
   4  -1  -5    0.86    0.11 
   4  -1  -5    0.69    0.16 
  -4  -1   5    0.76    0.12 
   6   1  -5   -0.08    0.13 
  -6  -1  -5   -0.04    0.15 
   6  -1   5    0.01    0.13 
  -6   1   5    0.05    0.13 
  -6  -1   5    0.05    0.12 
   6  -1  -5   -0.14    0.13 
   6   1   5   -0.06    0.12 
  -6   1  -5   -0.21    0.15 
   8   1  -5    0.18    0.20 
   8  -1   5    0.10    0.17 
  -8  -1  -5    0.14    0.21 
   8  -1  -5    0.15    0.20 
  -8   1  -5    0.31    0.24 
   8   1   5    0.31    0.19 
  -1  -2  -5    3.89    0.18 
  -1   2   5    3.63    0.16 
   1   2  -5    4.02    0.11 
   1  -2   5    4.14    0.20 
   1   2  -5    3.80    0.19 
   1   2  -5    3.93    0.19 
  -1   2  -5    3.56    0.17 
   1  -2  -5    3.59    0.18 
  -1   2  -5    3.61    0.17 
   1  -2  -5    3.76    0.15 
  -3  -2  -5    8.91    0.26 
  -3   2   5    8.10    0.29 
   3   2  -5    8.57    0.30 
   3  -2   5    7.90    0.34 
   3   2  -5    8.32    0.34 
  -3  -2  -5    8.38    0.34 
   3  -2  -5    8.06    0.33 
  -3   2  -5    8.59    0.22 
   3  -2  -5    8.74    0.29 
   3   2   5    8.44    0.28 
  -3   2  -5    8.20    0.34 
  -3  -2   5    8.40    0.24 
   5   2  -5    0.51    0.17 
  -5   2   5    0.40    0.15 
  -5  -2  -5    0.54    0.18 
   5   2  -5    0.41    0.11 
   5  -2   5    0.32    0.16 
   5   2   5    0.41    0.13 
  -5  -2   5    0.36    0.13 
   5  -2  -5    0.20    0.15 
   5  -2  -5    0.47    0.10 
  -5   2  -5    0.33    0.16 
   7  -2   5    0.42    0.19 
  -7   2   5    0.79    0.19 
   7   2  -5    0.51    0.20 
  -7  -2  -5    0.65    0.21 
  -7   2  -5    1.04    0.24 
   7   2   5    0.51    0.19 
   7  -2  -5    0.54    0.21 
   0   3   5    3.45    0.18 
   0   3  -5    3.57    0.16 
   0   3  -5    3.61    0.19 
   0  -3  -5    3.37    0.11 
   0  -3   5    3.33    0.19 
   0  -3  -5    3.60    0.20 
  -2   3   5   19.60    0.49 
   2  -3   5   18.97    0.53 
   2   3  -5   18.67    0.49 
   2   3  -5   19.07    0.52 
  -2  -3  -5   19.24    0.47 
  -2   3  -5   18.71    0.44 
  -2   3  -5   19.30    0.52 
   2  -3  -5   19.66    0.49 
   2   3   5   19.71    0.39 
   2  -3  -5   19.49    0.49 
  -4   3   5    0.24    0.13 
   4   3  -5    0.25    0.13 
   4   3  -5    0.16    0.10 
   4  -3   5    0.22    0.13 
  -4  -3  -5    0.22    0.13 
  -4  -3  -5    0.25    0.10 
  -4   3  -5    0.15    0.16 
   4  -3  -5    0.24    0.13 
  -4   3  -5    0.20    0.07 
   4  -3  -5    0.36    0.11 
   4   3   5    0.13    0.10 
  -4  -3   5    0.19    0.09 
  -6  -3  -5    0.67    0.21 
   6  -3   5    0.19    0.16 
   6   3  -5    0.16    0.16 
  -6   3   5    0.38    0.16 
  -6   3  -5    0.14    0.16 
   6   3   5    0.24    0.14 
   6  -3  -5    0.27    0.17 
   8  -3   5    0.13    0.19 
   8   3  -5    0.45    0.22 
  -8  -3  -5    0.08    0.21 
  -8   3  -5    0.30    0.23 
   8  -3  -5    0.18    0.20 
   8   3   5    0.19    0.19 
   1   4  -5    9.70    0.29 
   1  -4   5    9.63    0.36 
  -1  -4  -5   10.03    0.35 
   1   4  -5    9.72    0.35 
  -1  -4  -5    9.99    0.23 
  -1   4   5    9.73    0.34 
  -1  -4   5   10.01    0.36 
   1  -4  -5   10.11    0.29 
  -1   4  -5    9.74    0.33 
   1  -4  -5    9.84    0.35 
  -1   4  -5    9.64    0.33 
  -3   4   5    3.10    0.22 
   3  -4   5    2.78    0.28 
   3   4  -5    2.71    0.23 
   3   4  -5    2.65    0.24 
  -3  -4  -5    3.18    0.21 
   3   4   5    2.85    0.17 
  -3   4  -5    2.82    0.27 
   3  -4  -5    3.03    0.22 
  -3   4  -5    2.75    0.18 
   3  -4  -5    2.91    0.23 
   5  -4   5   -0.07    0.14 
  -5  -4  -5   -0.23    0.11 
   5   4  -5    0.06    0.13 
   5   4  -5    0.00    0.10 
  -5   4   5    0.15    0.13 
  -5  -4   5    0.07    0.11 
   5   4   5   -0.06    0.09 
  -5   4  -5    0.32    0.18 
   5  -4  -5   -0.05    0.12 
  -7  -4  -5    0.55    0.22 
   7  -4   5    0.18    0.19 
   7   4  -5    0.20    0.16 
  -7   4   5    0.41    0.18 
   7   4   5    0.06    0.15 
  -7   4  -5    0.25    0.19 
   7  -4  -5    0.03    0.17 
   0  -5  -5   23.09    0.61 
   0   5  -5   23.63    0.57 
   0  -5   5   22.78    0.62 
   0   5  -5   21.98    0.60 
   0  -5  -5   22.58    0.48 
   0   5   5   22.80    0.60 
  -2   5   5   55.70    1.15 
   2   5  -5   55.91    1.18 
   2   5  -5   56.98    1.16 
   2  -5   5   55.17    1.19 
  -2  -5  -5   54.70    1.13 
  -2  -5  -5   56.69    0.98 
   2  -5  -5   57.15    1.11 
   2  -5  -5   55.73    1.13 
  -2   5  -5   55.08    1.10 
  -2   5  -5   55.14    1.17 
  -4   5   5    2.70    0.27 
   4   5  -5    3.54    0.32 
   4  -5   5    2.80    0.32 
   4   5  -5    2.88    0.26 
  -4  -5  -5    3.21    0.24 
  -4   5  -5    2.51    0.19 
   4   5   5    2.40    0.19 
  -4   5  -5    3.01    0.31 
   4  -5  -5    2.81    0.24 
   4  -5  -5    2.46    0.27 
  -6   5   5    0.17    0.15 
  -6  -5  -5    0.19    0.16 
   6  -5   5   -0.21    0.15 
   6   5  -5   -0.10    0.13 
   6  -5  -5    0.04    0.15 
  -6   5  -5    0.14    0.18 
   6   5   5   -0.03    0.13 
  -8  -5  -5    0.19    0.21 
   8   5  -5   -0.01    0.17 
   8  -5   5   -0.31    0.17 
   8  -5  -5    0.21    0.20 
  -8   5  -5   -0.04    0.23 
   1   6  -5   11.18    0.38 
  -1   6   5   12.32    0.44 
   1  -6   5   10.80    0.45 
  -1  -6  -5   11.31    0.45 
   1   6  -5   10.40    0.43 
  -1  -6  -5   11.66    0.33 
  -1   6  -5   11.60    0.43 
  -1   6  -5   12.34    0.44 
   1  -6  -5   12.10    0.38 
   1  -6  -5   11.54    0.45 
  -1  -6   5   11.69    0.45 
  -3  -6  -5   10.81    0.44 
   3   6  -5    9.44    0.42 
   3  -6   5    9.45    0.49 
   3   6  -5    9.58    0.45 
  -3  -6  -5    9.96    0.33 
  -3   6   5    9.56    0.44 
  -3   6  -5   10.16    0.47 
   3  -6  -5   10.06    0.42 
  -3   6  -5   10.64    0.40 
   3  -6  -5    9.76    0.41 
   5  -6   5    0.24    0.17 
  -5  -6  -5    0.37    0.15 
  -5   6   5    0.49    0.17 
   5   6  -5    0.51    0.17 
  -5  -6  -5    0.23    0.13 
   5   6  -5    0.33    0.13 
  -5   6  -5    0.58    0.22 
   5  -6  -5    0.27    0.17 
   7   6  -5    0.25    0.21 
  -7  -6  -5    0.17    0.19 
   7  -6   5    0.11    0.18 
  -7   6   5    0.02    0.18 
   7  -6  -5   -0.08    0.17 
  -7   6  -5    0.32    0.25 
   0  -7  -5    3.25    0.30 
   0   7  -5    3.66    0.31 
   0   7  -5    3.23    0.27 
   0  -7   5    3.45    0.31 
   0   7   5    3.90    0.28 
   0  -7  -5    3.67    0.24 
  -2   7   5    3.33    0.30 
  -2  -7  -5    2.85    0.29 
   2   7  -5    3.17    0.31 
   2  -7   5    3.36    0.34 
  -2  -7  -5    3.27    0.21 
  -2  -7   5    3.46    0.32 
   2  -7  -5    2.74    0.27 
   2  -7  -5    3.18    0.27 
  -2   7  -5    3.35    0.31 
  -2   7  -5    3.17    0.28 
   4  -7   5    0.00    0.10 
   4  -7   5    0.13    0.18 
   4   7  -5   -0.24    0.14 
   4   7  -5   -0.16    0.11 
  -4   7   5   -0.09    0.12 
  -4  -7  -5    0.15    0.13 
   4  -7  -5    0.04    0.14 
   4  -7  -5   -0.04    0.13 
  -4   7  -5    0.06    0.17 
  -6   7   5   -0.04    0.16 
  -6  -7  -5    0.05    0.17 
   6  -7   5   -0.11    0.18 
   6   7  -5    0.03    0.17 
   6  -7  -5   -0.12    0.15 
  -6   7  -5    0.00    0.20 
   1   8  -5    0.86    0.19 
   1   8  -5    0.98    0.18 
  -1   8   5    1.05    0.19 
   1  -8   5    1.11    0.22 
  -1  -8  -5    1.13    0.22 
  -1   8  -5    1.00    0.20 
  -1   8  -5    0.76    0.18 
   1  -8  -5    0.86    0.16 
  -1  -8   5    1.30    0.24 
   1  -8  -5    1.04    0.21 
  -3   8   5    0.94    0.21 
   3   8  -5    1.18    0.23 
   3  -8   5    0.75    0.24 
  -3  -8  -5    1.34    0.23 
  -3   8  -5    0.88    0.19 
  -3  -8   5    1.01    0.21 
   3  -8  -5    0.85    0.20 
   3  -8  -5    1.11    0.21 
  -3   8  -5    1.29    0.23 
  -5  -8  -5    0.18    0.15 
   5  -8   5    0.15    0.20 
  -5   8   5    0.14    0.18 
   5   8  -5    0.17    0.17 
   5   8  -5    0.28    0.19 
   5  -8  -5    0.29    0.17 
  -5   8  -5    0.43    0.19 
   0   9  -5    7.57    0.44 
   0   9  -5    6.94    0.39 
   0  -9  -5    7.04    0.43 
   0   9   5    6.74    0.41 
   0  -9   5    7.60    0.44 
  -2  -9  -5    9.56    0.50 
   2  -9   5   10.09    0.52 
   2   9  -5   10.31    0.52 
  -2   9   5   10.05    0.50 
   2  -9  -5    9.82    0.45 
  -2   9  -5    9.53    0.47 
  -2   9  -5    9.39    0.50 
   2  -9  -5   10.37    0.51 
  -2  -9   5   10.20    0.50 
   4  -9   5    1.13    0.27 
   4   9  -5    1.81    0.28 
  -4  -9  -5    1.99    0.29 
  -4   9   5    1.55    0.28 
  -4  -9   5    2.30    0.31 
  -4   9  -5    2.25    0.33 
   4  -9  -5    1.78    0.28 
   4  -9  -5    1.84    0.29 
  -6   9   5    0.46    0.22 
   6  -9   5    0.77    0.27 
  -6  -9  -5    0.33    0.21 
  -6  -9   5    0.39    0.21 
   6  -9  -5   -0.12    0.17 
  -6   9  -5    0.19    0.23 
   1  10  -5    6.77    0.40 
  -1  10   5    7.08    0.45 
   1  10  -5    7.20    0.47 
   1 -10   5    6.68    0.46 
  -1 -10  -5    6.56    0.46 
   1 -10  -5    6.13    0.45 
  -1  10  -5    7.13    0.43 
  -1  10  -5    6.47    0.44 
  -1 -10   5    6.92    0.45 
   3  10  -5    1.63    0.30 
  -3 -10  -5    1.81    0.31 
   3 -10   5    2.12    0.28 
   3 -10   5    2.11    0.34 
  -3  10   5    2.05    0.32 
  -3 -10   5    2.56    0.34 
   3 -10  -5    1.94    0.29 
   3 -10  -5    1.54    0.28 
  -3  10  -5    2.20    0.33 
   5 -10   5    0.87    0.29 
  -5 -10  -5    0.21    0.19 
  -5  10   5    0.90    0.26 
   5  10  -5    0.66    0.24 
  -5 -10   5    0.65    0.22 
   5 -10  -5    0.33    0.21 
  -5  10  -5    0.28    0.22 
   0 -11   5    0.78    0.26 
   0  11  -5    1.00    0.23 
   0  11   5    0.34    0.20 
   0  11  -5    0.94    0.25 
   0 -11  -5    0.97    0.26 
   2  11  -5    1.11    0.26 
  -2 -11  -5    1.33    0.28 
   2 -11   5    1.12    0.30 
  -2  11   5    1.83    0.32 
  -2 -11   5    0.61    0.24 
  -2  11  -5    0.84    0.23 
   2 -11  -5    1.34    0.29 
  -4  11   5    0.19    0.18 
  -4 -11  -5    0.28    0.22 
   4  11  -5   -0.09    0.18 
   4 -11   5    0.05    0.23 
  -4 -11   5    0.45    0.25 
  -4  11  -5    0.47    0.23 
   4 -11  -5   -0.06    0.19 
  -1  12   5    0.28    0.19 
   1  12  -5    0.04    0.15 
  -1 -12  -5    0.46    0.22 
   1  12  -5   -0.11    0.19 
   1 -12   5    0.35    0.23 
  -1  12  -5    0.00    0.16 
   1 -12  -5    0.33    0.22 
  -1 -12   5   -0.35    0.19 
   3 -12   5    0.28    0.20 
   3  12  -5    0.16    0.22 
  -3 -12  -5    0.15    0.22 
   3 -12   5    0.25    0.26 
  -3  12   5    0.12    0.17 
  -3 -12   5    0.18    0.23 
  -3  12  -5    0.11    0.20 
   3 -12  -5   -0.21    0.19 
   0   0   6  415.80    6.67 
   0   0  -6  395.84    6.48 
   0   0  -6  423.62    6.56 
   2   0   6  792.01   12.39 
   2   0  -6  782.03   12.63 
  -2   0   6  804.57   12.08 
   2   0  -6  774.85   12.50 
  -2   0  -6  801.70   12.21 
  -2   0  -6  779.30   12.86 
   4   0  -6   89.59    1.52 
   4   0   6   87.66    1.63 
  -4   0  -6   86.80    1.69 
  -4   0   6   89.80    1.51 
   4   0  -6   86.59    1.71 
   6   0   6   20.30    0.67 
  -6   0   6   22.11    0.65 
   6   0  -6   20.73    0.75 
  -6   0  -6   19.60    0.72 
   8   0   6    2.20    0.32 
   8   0  -6    2.46    0.38 
  -8   0  -6    2.73    0.39 
   1   1  -6   26.24    0.57 
   1   1  -6   26.65    0.57 
  -1   1   6   27.43    0.50 
  -1  -1  -6   26.30    0.55 
   1  -1   6   26.78    0.56 
   1   1   6   26.68    0.47 
   1  -1  -6   26.65    0.57 
   1  -1  -6   28.49    0.55 
  -1   1  -6   26.99    0.56 
  -1   1  -6   27.05    0.54 
  -3  -1  -6  158.81    2.73 
  -3   1   6  163.76    2.57 
   3   1  -6  160.82    2.60 
  -3  -1  -6  161.25    2.51 
   3  -1   6  159.72    2.69 
   3   1  -6  160.69    2.74 
   3  -1  -6  160.19    2.59 
  -3  -1   6  161.75    2.50 
   3  -1  -6  157.79    2.72 
  -3   1  -6  163.26    2.48 
   3   1   6  162.88    2.63 
  -3   1  -6  161.53    2.72 
  -5   1   6    0.36    0.13 
   5  -1   6    0.16    0.14 
  -5  -1  -6    0.29    0.16 
   5   1  -6    0.28    0.10 
   5   1  -6    0.26    0.15 
   5  -1  -6    0.33    0.15 
   5  -1  -6    0.24    0.09 
  -5   1  -6    0.26    0.18 
  -5  -1   6    0.25    0.11 
   5   1   6    0.23    0.13 
  -7  -1  -6    7.47    0.48 
   7   1  -6    6.75    0.46 
   7  -1   6    7.83    0.46 
   7   1   6    6.93    0.42 
   7  -1  -6    6.96    0.46 
  -7   1  -6    6.86    0.46 
   0   2  -6  158.79    2.53 
   0  -2   6  155.09    2.56 
   0  -2  -6  159.54    2.43 
   0  -2  -6  156.96    2.53 
   0   2  -6  156.97    2.46 
  -2   2   6   44.07    0.83 
   2   2  -6   45.01    0.88 
  -2  -2  -6   44.31    0.84 
   2   2  -6   43.71    0.92 
   2  -2   6   43.59    0.90 
   2   2   6   44.40    0.77 
  -2  -2   6   44.04    0.72 
   2  -2  -6   44.19    0.88 
  -2   2  -6   44.43    0.81 
   2  -2  -6   43.16    0.86 
  -2   2  -6   44.31    0.90 
  -4   2   6    0.85    0.15 
   4   2  -6    0.72    0.17 
   4   2  -6    0.86    0.14 
  -4  -2  -6    1.05    0.13 
  -4  -2  -6    0.97    0.19 
   4  -2   6    0.82    0.18 
  -4  -2   6    1.17    0.13 
   4  -2  -6    0.68    0.13 
   4  -2  -6    1.15    0.20 
  -4   2  -6    0.90    0.18 
   4   2   6    1.24    0.16 
  -4   2  -6    1.03    0.08 
  -6   2   6    3.23    0.30 
  -6  -2  -6    3.48    0.36 
   6   2  -6    3.47    0.36 
   6  -2   6    3.01    0.33 
   6  -2  -6    3.07    0.33 
  -6   2  -6    2.88    0.34 
   6   2   6    2.92    0.29 
   8   2  -6    1.00    0.28 
  -8  -2  -6    0.68    0.27 
   8  -2   6    0.64    0.21 
   8  -2  -6    0.49    0.22 
  -8   2  -6    0.66    0.28 
   8   2   6    0.78    0.21 
   1   3  -6    0.16    0.08 
  -1   3   6    0.23    0.08 
   1   3  -6    0.10    0.09 
   1   3  -6    0.28    0.06 
  -1  -3  -6    0.21    0.10 
   1  -3   6    0.27    0.11 
  -1   3  -6    0.19    0.08 
   1  -3  -6    0.23    0.10 
   1  -3  -6    0.15    0.06 
  -1   3  -6    0.11    0.09 
   3   3  -6   71.23    1.32 
   3  -3   6   71.79    1.41 
   3   3  -6   69.75    1.41 
  -3   3   6   70.87    1.31 
  -3  -3  -6   70.22    1.27 
  -3  -3   6   71.00    1.20 
   3  -3  -6   69.39    1.35 
   3  -3  -6   70.81    1.30 
  -3   3  -6   69.47    1.39 
   3   3   6   71.21    1.24 
  -3   3  -6   69.26    1.21 
   5   3  -6    0.01    0.12 
  -5  -3  -6    0.06    0.13 
   5   3  -6    0.03    0.09 
   5  -3   6    0.09    0.15 
  -5   3   6    0.03    0.12 
   5  -3  -6    0.06    0.09 
  -5   3  -6    0.41    0.17 
   5   3   6    0.16    0.11 
   5  -3  -6    0.09    0.14 
  -7  -3  -6    8.47    0.52 
   7  -3   6    7.67    0.49 
   7   3  -6    8.42    0.53 
   7   3   6    9.48    0.48 
  -7   3  -6    8.83    0.53 
   7  -3  -6    9.03    0.54 
   0   4  -6   66.96    1.25 
   0  -4  -6   66.10    1.26 
   0   4   6   66.28    1.25 
   0   4  -6   65.85    1.18 
   0  -4  -6   68.30    1.09 
   0  -4   6   63.15    1.26 
  -2  -4  -6  237.37    3.84 
  -2   4   6  234.17    3.86 
   2  -4   6  240.32    3.96 
   2   4  -6  236.52    3.87 
   2   4  -6  244.93    3.96 
   2   4   6  245.76    3.70 
   2  -4  -6  240.91    3.85 
   2  -4  -6  241.96    3.85 
  -2   4  -6  239.33    3.80 
  -2   4  -6  240.62    3.91 
   4   4  -6   30.52    0.84 
  -4  -4  -6   30.03    0.84 
   4   4  -6   29.41    0.75 
   4  -4   6   29.97    0.85 
  -4   4   6   29.63    0.76 
  -4  -4  -6   31.38    0.71 
  -4   4  -6   29.77    0.85 
   4  -4  -6   29.33    0.81 
   4  -4  -6   30.88    0.73 
   4   4   6   30.67    0.69 
  -4   4  -6   29.60    0.62 
  -4  -4   6   30.18    0.66 
  -6   4   6   11.58    0.50 
   6  -4   6   11.69    0.59 
   6   4  -6   11.97    0.57 
  -6  -4  -6   11.39    0.56 
   6  -4  -6   11.00    0.55 
   6   4   6   13.12    0.50 
  -6   4  -6   11.32    0.58 
   8   4  -6    1.79    0.33 
  -8  -4  -6    1.80    0.35 
   8  -4   6    1.70    0.33 
   8  -4  -6    1.38    0.31 
  -8   4  -6    2.45    0.41 
  -1  -5  -6   80.66    1.29 
   1  -5   6   80.19    1.54 
   1   5  -6   78.81    1.40 
   1   5  -6   79.46    1.51 
  -1  -5  -6   76.14    1.49 
  -1   5   6   78.75    1.49 
  -1   5  -6   80.23    1.48 
   1  -5  -6   77.56    1.50 
   1  -5  -6   79.26    1.38 
  -1  -5   6   79.26    1.53 
  -1   5  -6   80.21    1.48 
   3   5  -6   87.35    1.65 
  -3   5   6   84.91    1.65 
   3  -5   6   86.74    1.73 
   3   5  -6   83.80    1.70 
  -3  -5  -6   83.95    1.60 
   3   5   6   85.02    1.47 
  -3   5  -6   86.18    1.71 
  -3   5  -6   87.82    1.56 
   3  -5  -6   86.20    1.61 
   3  -5  -6   85.22    1.64 
   5   5  -6    2.39    0.25 
  -5  -5  -6    1.65    0.27 
  -5   5   6    1.72    0.24 
   5  -5   6    2.68    0.33 
   5   5  -6    1.85    0.26 
   5  -5  -6    1.85    0.21 
  -5   5  -6    1.85    0.30 
   5  -5  -6    1.84    0.26 
   7   5  -6    3.24    0.40 
  -7   5   6    3.34    0.36 
   7  -5   6    3.84    0.43 
  -7  -5  -6    3.68    0.42 
  -7   5  -6    3.82    0.44 
   7  -5  -6    3.20    0.41 
   0  -6   6    6.67    0.35 
   0  -6  -6    7.06    0.37 
   0  -6  -6    7.66    0.26 
   0   6  -6    7.55    0.32 
   0   6   6    6.61    0.34 
   0   6  -6    7.63    0.35 
  -2  -6  -6   28.29    0.58 
  -2  -6  -6   28.60    0.77 
   2  -6   6   27.90    0.81 
   2   6  -6   29.31    0.78 
  -2   6   6   29.38    0.77 
  -2   6  -6   27.83    0.77 
   2  -6  -6   29.14    0.77 
  -2  -6   6   29.05    0.80 
   2  -6  -6   29.57    0.71 
  -2   6  -6   28.53    0.73 
   4  -6   6    3.35    0.35 
   4   6  -6    3.67    0.35 
   4   6  -6    3.90    0.30 
  -4  -6  -6    3.63    0.28 
  -4   6   6    3.74    0.33 
  -4   6  -6    3.13    0.34 
   4  -6  -6    3.37    0.32 
  -4   6  -6    3.33    0.23 
   4  -6  -6    3.72    0.30 
  -6  -6  -6    2.40    0.33 
   6  -6   6    1.79    0.30 
  -6   6   6    2.06    0.29 
   6   6  -6    2.07    0.31 
   6  -6  -6    1.46    0.28 
  -6   6  -6    2.16    0.34 
   1   7  -6    2.42    0.27 
  -1  -7  -6    3.14    0.31 
   1   7  -6    2.51    0.23 
  -1   7   6    2.67    0.28 
   1  -7   6    2.65    0.30 
   1  -7  -6    3.24    0.23 
  -1  -7   6    1.97    0.26 
  -1   7  -6    2.27    0.26 
  -1   7  -6    2.90    0.27 
   1  -7  -6    2.36    0.26 
   3  -7   6   11.89    0.54 
  -3  -7  -6   11.93    0.49 
   3   7  -6   11.31    0.50 
  -3   7   6   11.73    0.50 
   3  -7  -6   12.05    0.49 
   3  -7  -6   11.58    0.47 
  -3  -7   6   11.83    0.52 
  -3   7  -6   11.50    0.45 
  -3   7  -6   11.76    0.52 
   5   7  -6    1.37    0.23 
  -5   7   6    1.80    0.27 
   5   7  -6    1.38    0.26 
   5  -7   6    1.43    0.27 
  -5  -7  -6    1.52    0.23 
  -5  -7  -6    1.14    0.24 
  -5   7  -6    1.54    0.29 
   5  -7  -6    1.61    0.28 
  -7  -7  -6    2.32    0.36 
   7  -7   6    2.05    0.38 
  -7   7   6    1.83    0.31 
   7   7  -6    2.27    0.37 
   7  -7  -6    2.00    0.35 
  -7   7  -6    1.52    0.35 
   0  -8  -6    3.73    0.35 
   0   8  -6    4.05    0.28 
   0   8  -6    3.51    0.32 
   0  -8   6    3.58    0.34 
   0   8   6    4.35    0.33 
   2   8  -6   10.57    0.50 
  -2  -8  -6   10.56    0.51 
  -2   8   6   10.88    0.50 
   2  -8   6   11.47    0.53 
   2  -8  -6   11.22    0.51 
  -2  -8   6   10.82    0.51 
  -2   8  -6   11.25    0.50 
  -2   8  -6   10.51    0.47 
   2  -8  -6   11.31    0.44 
  -4   8   6    4.71    0.41 
   4  -8   6    5.05    0.45 
  -4  -8  -6    4.86    0.35 
   4   8  -6    5.14    0.38 
   4  -8  -6    4.36    0.37 
   4  -8  -6    5.28    0.37 
  -4   8  -6    4.36    0.42 
  -4  -8   6    4.50    0.40 
   6   8  -6    2.03    0.33 
   6  -8   6    2.84    0.40 
  -6  -8  -6    2.05    0.33 
  -6   8   6    2.55    0.35 
  -6   8  -6    1.51    0.32 
   6  -8  -6    2.33    0.35 
  -1  -9  -6   10.47    0.54 
   1   9  -6   11.03    0.48 
   1   9  -6   11.06    0.54 
  -1   9   6   11.45    0.54 
   1  -9   6   12.28    0.57 
   1  -9  -6   11.10    0.54 
  -1   9  -6   11.84    0.52 
  -1   9  -6   11.31    0.53 
  -1  -9   6   12.39    0.56 
  -3   9   6   11.85    0.58 
  -3  -9  -6   12.75    0.59 
   3  -9   6   13.59    0.65 
   3   9  -6   12.40    0.58 
  -3   9  -6   11.68    0.58 
  -3   9  -6   12.44    0.55 
   3  -9  -6   13.20    0.54 
  -3  -9   6   12.79    0.59 
   3  -9  -6   14.03    0.61 
   5   9  -6    0.58    0.20 
  -5  -9  -6    0.99    0.24 
  -5   9   6    0.59    0.21 
   5  -9   6    0.72    0.27 
  -5   9  -6    0.63    0.26 
   5  -9  -6    0.53    0.21 
  -5  -9   6    0.33    0.19 
   0  10   6   13.96    0.62 
   0  10  -6   12.79    0.60 
   0  10  -6   11.83    0.53 
   0 -10  -6   13.19    0.62 
   0 -10   6   12.67    0.61 
   2 -10   6   12.78    0.65 
   2  10  -6   14.90    0.67 
  -2  10   6   13.33    0.63 
  -2 -10  -6   14.26    0.66 
   2 -10  -6   14.65    0.65 
  -2 -10   6   15.43    0.66 
  -2  10  -6   14.88    0.64 
  -2  10  -6   14.00    0.62 
  -4 -10  -6    4.22    0.43 
   4  10  -6    3.77    0.41 
   4 -10   6    3.41    0.43 
  -4  10   6    3.80    0.43 
   4 -10  -6    3.68    0.40 
   4 -10  -6    3.14    0.35 
  -4  10  -6    3.78    0.44 
  -4 -10   6    3.40    0.41 
   1 -11   6    3.48    0.43 
  -1 -11  -6    3.87    0.44 
   1  11  -6    4.27    0.40 
   1  11  -6    4.35    0.45 
  -1  11   6    4.09    0.44 
  -1  11  -6    4.90    0.44 
  -1 -11   6    4.09    0.43 
   1 -11  -6    4.64    0.47 
  -1  11  -6    4.97    0.46 
   3 -11   6    3.86    0.39 
  -3 -11  -6    4.32    0.45 
  -3  11   6    4.55    0.47 
   3  11  -6    4.17    0.45 
   3 -11   6    3.40    0.45 
  -3  11  -6    4.14    0.46 
   3 -11  -6    3.68    0.42 
  -3 -11   6    4.12    0.45 
   0 -12  -6    0.82    0.27 
   0  12  -6    0.62    0.21 
   0  12  -6    0.39    0.23 
   0 -12   6    0.45    0.27 
  -2 -12  -6    0.60    0.25 
  -2  12   6    0.71    0.24 
   2  12  -6    0.88    0.27 
   2 -12   6    0.65    0.29 
   2 -12  -6    0.59    0.26 
  -2  12  -6    0.73    0.24 
  -2 -12   6    0.81    0.28 
   1   0  -7    7.94    0.27 
  -1   0  -7    8.37    0.26 
  -1   0  -7    8.25    0.26 
   1   0  -7    8.61    0.27 
   1   0   7    8.42    0.24 
   3   0  -7    7.23    0.28 
  -3   0  -7    7.86    0.23 
  -3   0  -7    7.43    0.34 
   3   0  -7    6.83    0.31 
  -3   0   7    7.54    0.21 
   3   0   7    7.52    0.29 
  -5   0  -7   10.34    0.48 
   5   0  -7   11.42    0.50 
   5   0   7   11.56    0.45 
  -5   0   7   11.89    0.38 
   5   0  -7   10.87    0.36 
   7   0  -7    1.31    0.26 
   7   0   7    1.28    0.23 
  -7   0  -7    1.42    0.29 
   0  -1   7   90.94    1.56 
   0   1  -7   92.76    1.57 
   0  -1  -7   95.11    1.48 
   0  -1  -7   90.75    1.57 
   0   1  -7   95.09    1.49 
  -2  -1  -7    1.21    0.12 
   2   1  -7    1.00    0.13 
  -2  -1  -7    1.13    0.14 
  -2   1   7    1.26    0.09 
   2   1  -7    1.10    0.15 
   2  -1   7    1.25    0.15 
   2  -1  -7    1.21    0.14 
  -2   1  -7    1.20    0.12 
   2   1   7    1.19    0.11 
  -2   1  -7    1.40    0.16 
   2  -1  -7    0.89    0.13 
   4  -1   7   20.44    0.59 
   4   1  -7   19.86    0.63 
   4   1  -7   19.37    0.51 
  -4  -1  -7   20.12    0.63 
  -4  -1  -7   20.61    0.43 
  -4   1   7   19.81    0.49 
  -4   1  -7   19.99    0.38 
   4   1   7   19.73    0.54 
   4  -1  -7   18.55    0.60 
  -4  -1   7   20.31    0.45 
   4  -1  -7   19.80    0.50 
  -4   1  -7   18.34    0.60 
   6   1  -7    2.97    0.34 
   6  -1   7    3.05    0.31 
  -6  -1  -7    3.09    0.34 
   6  -1  -7    3.06    0.35 
  -6   1  -7    2.70    0.34 
   6   1   7    3.31    0.31 
  -8  -1  -7   -0.06    0.20 
   8  -1   7    0.03    0.16 
   8   1  -7    0.40    0.22 
   8   1   7    0.22    0.18 
  -8   1  -7    0.53    0.26 
   8  -1  -7    0.13    0.17 
  -1   2   7    8.89    0.26 
   1   2  -7    8.68    0.19 
  -1  -2  -7    8.95    0.30 
   1   2  -7    8.27    0.30 
   1   2  -7    8.41    0.30 
   1  -2   7    9.19    0.31 
  -1   2  -7    8.25    0.28 
  -1   2  -7    9.09    0.28 
   1  -2  -7    8.85    0.30 
   1  -2  -7    8.89    0.25 
  -3   2   7    2.95    0.18 
  -3  -2  -7    3.26    0.19 
   3   2  -7    3.32    0.24 
   3  -2   7    2.64    0.24 
  -3  -2  -7    3.03    0.23 
   3   2  -7    3.35    0.22 
   3   2   7    3.18    0.17 
  -3   2  -7    3.19    0.24 
  -3  -2   7    3.34    0.12 
  -3   2  -7    3.37    0.16 
   3  -2  -7    3.13    0.21 
   3  -2  -7    2.98    0.22 
   5   2  -7    1.33    0.17 
   5   2  -7    1.01    0.21 
  -5  -2  -7    1.29    0.24 
   5  -2   7    1.15    0.21 
  -5   2   7    1.02    0.17 
   5  -2  -7    1.27    0.15 
   5   2   7    1.14    0.18 
  -5   2  -7    1.29    0.24 
   5  -2  -7    0.98    0.21 
   7   2  -7    0.05    0.16 
  -7  -2  -7    0.04    0.18 
   7  -2   7   -0.11    0.13 
  -7   2  -7    0.01    0.19 
   7   2   7   -0.17    0.11 
   7  -2  -7   -0.11    0.15 
   0  -3  -7   92.86    1.65 
   0   3  -7   93.50    1.64 
   0  -3   7   92.43    1.67 
   0  -3  -7   96.02    1.46 
   0   3  -7   95.16    1.57 
  -2   3   7   11.67    0.35 
   2  -3   7   11.70    0.42 
   2   3  -7   10.65    0.38 
  -2  -3  -7   11.25    0.37 
   2   3  -7   11.23    0.41 
  -2   3  -7   11.41    0.40 
   2  -3  -7   12.00    0.36 
   2  -3  -7   10.93    0.38 
  -2   3  -7   11.19    0.34 
   2   3   7   11.28    0.24 
   4   3  -7   10.72    0.39 
  -4  -3  -7   10.38    0.35 
  -4  -3  -7   10.70    0.46 
  -4   3   7   10.42    0.39 
   4   3  -7   10.72    0.46 
   4  -3   7   10.19    0.45 
   4  -3  -7   10.09    0.38 
  -4   3  -7   10.56    0.48 
  -4   3  -7   11.12    0.29 
  -4  -3   7   10.53    0.30 
   4  -3  -7   11.10    0.46 
   4   3   7   10.75    0.36 
  -6   3   7    1.50    0.22 
  -6  -3  -7    1.69    0.29 
   6  -3   7    1.72    0.27 
   6   3  -7    1.27    0.25 
  -6   3  -7    1.51    0.27 
   6  -3  -7    1.31    0.25 
   6   3   7    1.28    0.21 
  -8  -3  -7   -0.06    0.21 
   8  -3   7    0.16    0.19 
   8   3  -7    0.08    0.18 
   8  -3  -7   -0.26    0.17 
  -8   3  -7   -0.20    0.21 
   1  -4   7    5.32    0.30 
   1   4  -7    4.55    0.26 
  -1   4   7    5.13    0.25 
   1   4  -7    5.07    0.19 
  -1  -4  -7    4.72    0.26 
   1  -4  -7    5.22    0.20 
  -1  -4   7    4.40    0.25 
   1  -4  -7    5.14    0.27 
  -1   4  -7    4.68    0.24 
  -1   4  -7    4.48    0.24 
  -3  -4  -7    4.18    0.25 
   3  -4   7    3.75    0.33 
   3   4  -7    4.20    0.27 
  -3   4   7    4.63    0.27 
   3   4  -7    4.40    0.30 
  -3   4  -7    3.75    0.21 
   3   4   7    4.09    0.18 
  -3   4  -7    3.96    0.28 
   3  -4  -7    4.22    0.27 
   3  -4  -7    4.05    0.27 
  -5  -4  -7    2.29    0.30 
  -5   4   7    2.62    0.27 
   5  -4   7    2.19    0.28 
   5   4  -7    2.81    0.26 
   5   4  -7    2.16    0.27 
   5  -4  -7    2.11    0.28 
   5  -4  -7    2.20    0.22 
   5   4   7    2.24    0.22 
  -5   4  -7    2.48    0.31 
   7  -4   7    0.57    0.23 
  -7  -4  -7    0.94    0.26 
   7   4  -7    0.43    0.21 
  -7   4  -7    0.48    0.24 
   7  -4  -7    0.76    0.22 
   0  -5  -7   25.51    0.67 
   0   5  -7   25.05    0.60 
   0  -5  -7   25.74    0.49 
   0  -5   7   24.25    0.67 
   0   5   7   24.13    0.65 
   0   5  -7   25.75    0.67 
   2   5  -7    2.08    0.22 
  -2   5   7    1.76    0.19 
   2  -5   7    2.14    0.25 
  -2  -5  -7    2.01    0.11 
  -2  -5  -7    2.30    0.24 
  -2   5  -7    2.18    0.24 
   2  -5  -7    2.18    0.20 
   2  -5  -7    1.89    0.21 
  -2   5  -7    2.30    0.21 
   4  -5   7    8.34    0.46 
   4   5  -7    7.73    0.43 
   4   5  -7    7.66    0.38 
  -4   5   7    7.69    0.38 
  -4  -5  -7    8.00    0.36 
  -4   5  -7    7.77    0.30 
   4  -5  -7    7.75    0.40 
  -4   5  -7    8.18    0.45 
   4  -5  -7    8.02    0.37 
   6  -5   7    3.63    0.40 
  -6   5   7    3.62    0.35 
   6   5  -7    3.10    0.38 
  -6  -5  -7    3.47    0.37 
  -6   5  -7    3.15    0.39 
   6  -5  -7    4.11    0.41 
  -1  -6  -7    0.85    0.19 
   1   6  -7    1.13    0.15 
  -1  -6  -7    1.38    0.13 
  -1   6   7    1.21    0.20 
   1  -6   7    1.25    0.23 
   1   6  -7    0.74    0.16 
  -1   6  -7    1.32    0.20 
   1  -6  -7    0.95    0.17 
  -1   6  -7    1.39    0.19 
   1  -6  -7    1.13    0.14 
  -1  -6   7    0.77    0.19 
  -3   6   7    0.30    0.14 
   3  -6   7    0.19    0.17 
   3   6  -7    0.63    0.19 
   3   6  -7    0.35    0.15 
  -3  -6  -7    0.16    0.14 
  -3   6  -7    0.27    0.15 
   3  -6  -7    0.51    0.14 
  -3   6  -7    0.42    0.14 
   3  -6  -7    0.22    0.15 
   5  -6   7    0.86    0.24 
  -5  -6  -7    0.25    0.15 
   5   6  -7    0.58    0.20 
   5   6  -7    0.83    0.19 
  -5   6   7    0.73    0.19 
   5  -6  -7    0.62    0.18 
   5  -6  -7    0.26    0.16 
  -5   6  -7    0.34    0.21 
   7   6  -7    0.13    0.20 
   7  -6   7   -0.37    0.16 
  -7  -6  -7   -0.05    0.18 
  -7   6   7    0.11    0.17 
   7  -6  -7   -0.13    0.18 
  -7   6  -7    0.21    0.24 
   0   7  -7   25.45    0.74 
   0  -7   7   24.38    0.75 
   0   7   7   25.67    0.75 
   0  -7  -7   24.47    0.75 
   0   7  -7   25.55    0.69 
   2  -7   7    5.55    0.40 
  -2  -7  -7    4.73    0.34 
   2   7  -7    4.97    0.34 
  -2   7   7    4.29    0.30 
  -2   7  -7    4.24    0.29 
  -2   7  -7    5.08    0.34 
   2  -7  -7    4.87    0.28 
  -2  -7   7    4.51    0.35 
   2  -7  -7    4.90    0.33 
   4  -7   7    5.29    0.46 
  -4  -7  -7    4.53    0.33 
   4   7  -7    4.62    0.42 
   4   7  -7    5.00    0.35 
  -4   7   7    4.87    0.35 
  -4   7  -7    4.98    0.44 
   4  -7  -7    4.67    0.34 
   4  -7  -7    5.03    0.35 
   6  -7   7    0.48    0.21 
  -6  -7  -7    0.14    0.19 
   6   7  -7    0.93    0.26 
  -6   7   7    0.83    0.22 
   6  -7  -7    0.46    0.22 
  -6   7  -7    0.78    0.25 
  -1  -8  -7    2.52    0.31 
  -1   8   7    1.89    0.25 
   1  -8   7    1.59    0.25 
   1   8  -7    1.95    0.22 
   1   8  -7    1.89    0.25 
  -1  -8   7    1.76    0.27 
  -1   8  -7    1.29    0.21 
   1  -8  -7    2.03    0.28 
  -1   8  -7    1.83    0.25 
   3   8  -7    1.31    0.24 
  -3  -8  -7    1.24    0.23 
  -3   8   7    1.31    0.24 
   3  -8   7    1.85    0.31 
  -3   8  -7    1.23    0.21 
   3  -8  -7    1.58    0.23 
  -3  -8   7    1.31    0.25 
  -3   8  -7    1.46    0.25 
   3  -8  -7    1.08    0.23 
   5  -8   7    0.38    0.23 
  -5   8   7    0.31    0.18 
   5   8  -7    0.05    0.15 
  -5   8  -7   -0.34    0.16 
   5  -8  -7    0.05    0.15 
   0  -9  -7    4.11    0.40 
   0   9  -7    3.32    0.31 
   0  -9   7    3.55    0.38 
   0   9   7    3.99    0.38 
   0   9  -7    4.19    0.39 
   2   9  -7    1.15    0.25 
  -2   9   7    1.22    0.23 
  -2  -9  -7    1.37    0.27 
   2  -9   7    1.06    0.27 
  -2   9  -7    1.40    0.24 
  -2  -9   7    1.24    0.26 
   2  -9  -7    1.18    0.25 
  -2   9  -7    1.78    0.26 
  -4   9   7    1.71    0.29 
   4   9  -7    1.61    0.29 
  -4  -9  -7    1.65    0.27 
   4  -9   7    1.22    0.31 
  -4  -9   7    1.14    0.26 
   4  -9  -7    1.61    0.26 
   4  -9  -7    1.18    0.25 
  -4   9  -7    1.87    0.31 
   6  -9   7    0.28    0.24 
  -6  -9  -7    0.02    0.20 
  -6   9   7    0.80    0.24 
   6  -9  -7    0.30    0.20 
  -6   9  -7    0.49    0.26 
  -6  -9   7    0.53    0.23 
   1  10  -7    0.04    0.16 
   1  10  -7    0.03    0.12 
  -1  10   7   -0.05    0.14 
   1 -10   7    0.13    0.19 
  -1 -10  -7   -0.09    0.16 
   1 -10  -7    0.10    0.18 
  -1  10  -7    0.02    0.15 
  -1  10  -7   -0.13    0.12 
  -1 -10   7   -0.01    0.16 
  -3  10   7    0.35    0.20 
   3 -10   7    0.25    0.22 
  -3 -10  -7    0.41    0.20 
   3  10  -7    0.54    0.22 
   3 -10  -7    0.36    0.23 
  -3 -10   7    0.13    0.19 
  -3  10  -7    0.62    0.23 
  -3  10  -7   -0.14    0.15 
   5  10  -7    0.43    0.22 
   5 -10   7    0.14    0.23 
  -5  10   7   -0.08    0.17 
  -5  10  -7   -0.02    0.19 
  -5 -10   7   -0.18    0.17 
   0 -11  -7    2.03    0.34 
   0 -11   7    1.88    0.35 
   0  11  -7    1.88    0.32 
   0  11  -7    1.48    0.26 
  -2  11   7    0.73    0.22 
  -2 -11  -7    0.74    0.26 
   2  11  -7    1.28    0.28 
   2 -11   7    1.07    0.30 
  -2  11  -7    0.62    0.23 
   2 -11  -7    0.96    0.27 
  -2 -11   7    1.09    0.30 
  -2  11  -7    0.63    0.23 
  -4  11   7    0.75    0.24 
   4 -11   7    0.75    0.28 
   4  11  -7    0.64    0.25 
  -4 -11  -7    0.81    0.26 
  -4 -11   7    0.59    0.26 
  -4  11  -7    0.84    0.27 
   4 -11  -7    0.85    0.26 
  -1  12   7    0.53    0.23 
   1  12  -7    1.00    0.22 
   1 -12   7    0.62    0.28 
  -1 -12  -7    0.81    0.29 
   1  12  -7    0.48    0.24 
  -1  12  -7    0.24    0.23 
  -1 -12   7    0.40    0.28 
  -1  12  -7    0.62    0.21 
   1 -12  -7    0.36    0.25 
   0   0   8   27.66    0.54 
   0   0  -8   26.67    0.60 
   0   0  -8   27.15    0.53 
   2   0  -8   94.09    1.70 
   2   0  -8   98.18    1.68 
   2   0   8   96.84    1.63 
  -2   0  -8   99.14    1.62 
  -2   0  -8   94.00    1.70 
  -4   0  -8    0.82    0.09 
   4   0  -8    1.05    0.15 
   4   0   8    0.96    0.17 
  -4   0  -8    0.55    0.16 
  -4   0   8    0.79    0.11 
   4   0  -8    0.70    0.17 
   6   0   8    0.92    0.19 
   6   0  -8    1.26    0.24 
  -6   0  -8    0.90    0.22 
   8   0  -8    0.14    0.20 
   8   0   8    0.08    0.19 
  -8   0  -8    0.22    0.23 
   1  -1   8   18.59    0.46 
   1   1  -8   18.84    0.48 
  -1  -1  -8   18.61    0.46 
  -1  -1  -8   18.72    0.47 
   1   1  -8   18.86    0.49 
  -1   1  -8   18.79    0.45 
   1  -1  -8   19.45    0.49 
   1   1   8   19.63    0.38 
   1  -1  -8   19.31    0.44 
  -1   1  -8   19.43    0.47 
   3   1  -8   25.70    0.69 
  -3  -1  -8   26.01    0.70 
   3  -1   8   27.12    0.66 
  -3   1   8   26.05    0.54 
   3   1  -8   26.40    0.64 
  -3  -1  -8   27.35    0.57 
   3  -1  -8   27.76    0.69 
  -3  -1   8   27.47    0.46 
  -3   1  -8   27.87    0.56 
   3   1   8   27.39    0.60 
  -3   1  -8   26.62    0.69 
   3  -1  -8   27.45    0.64 
  -5   1   8    0.10    0.10 
   5   1  -8   -0.05    0.11 
   5   1  -8   -0.16    0.08 
  -5  -1  -8    0.02    0.12 
   5  -1   8   -0.09    0.11 
   5   1   8   -0.13    0.09 
   5  -1  -8    0.03    0.13 
  -5   1  -8   -0.07    0.14 
   5  -1  -8    0.18    0.10 
   7   1  -8    2.04    0.32 
  -7  -1  -8    1.69    0.30 
   7  -1   8    2.22    0.30 
   7   1   8    2.10    0.29 
   7  -1  -8    2.28    0.33 
  -7   1  -8    2.40    0.36 
   0  -2  -8   78.14    1.25 
   0  -2   8   78.18    1.41 
   0  -2  -8   79.02    1.41 
   0   2  -8   79.21    1.41 
   0   2  -8   79.25    1.31 
   2   2  -8   16.84    0.47 
  -2  -2  -8   16.84    0.44 
   2  -2   8   16.65    0.48 
  -2   2   8   17.08    0.40 
   2   2  -8   16.78    0.50 
  -2   2  -8   15.91    0.47 
   2  -2  -8   16.64    0.45 
   2   2   8   17.13    0.35 
   2  -2  -8   16.28    0.47 
  -2   2  -8   16.56    0.42 
   4  -2   8    7.96    0.38 
  -4  -2  -8    7.25    0.28 
   4   2  -8    7.25    0.39 
  -4   2   8    7.00    0.29 
   4   2  -8    7.84    0.32 
  -4  -2  -8    7.67    0.40 
   4   2   8    7.72    0.30 
  -4   2  -8    7.18    0.23 
  -4   2  -8    6.83    0.39 
   4  -2  -8    7.10    0.31 
   4  -2  -8    6.79    0.36 
   6   2  -8    0.22    0.17 
   6  -2   8   -0.07    0.12 
  -6  -2  -8    0.23    0.18 
   6  -2  -8   -0.12    0.11 
  -6   2  -8    0.17    0.19 
   6   2   8    0.01    0.10 
  -8  -2  -8   -0.20    0.21 
   8  -2   8    0.02    0.16 
   8   2  -8    0.15    0.19 
  -8   2  -8    0.14    0.24 
   8  -2  -8    0.30    0.23 
   1   3  -8   15.63    0.33 
   1   3  -8   14.58    0.44 
  -1  -3  -8   14.65    0.44 
   1  -3   8   14.25    0.45 
  -1   3   8   14.12    0.40 
  -1   3  -8   14.94    0.41 
  -1  -3   8   14.46    0.45 
   1  -3  -8   15.14    0.36 
  -1   3  -8   14.89    0.43 
   1  -3  -8   15.51    0.46 
  -3  -3  -8   17.89    0.50 
  -3   3   8   17.98    0.49 
   3   3  -8   17.88    0.53 
  -3  -3  -8   18.43    0.59 
   3   3  -8   17.87    0.58 
   3  -3   8   17.77    0.58 
  -3  -3   8   17.95    0.35 
   3  -3  -8   17.85    0.54 
   3  -3  -8   17.61    0.52 
  -3   3  -8   18.32    0.45 
   3   3   8   17.73    0.41 
  -3   3  -8   16.60    0.56 
   5   3  -8    0.18    0.11 
   5   3  -8   -0.07    0.12 
   5  -3   8    0.17    0.15 
  -5   3   8    0.16    0.12 
  -5  -3  -8    0.38    0.16 
   5  -3  -8    0.28    0.11 
  -5   3  -8    0.09    0.15 
   5   3   8    0.04    0.10 
   5  -3  -8    0.24    0.15 
   7   3  -8    0.94    0.25 
   7  -3   8    0.78    0.23 
  -7  -3  -8    1.02    0.27 
   7  -3  -8    0.86    0.24 
  -7   3  -8    1.21    0.29 
   0  -4   8    1.27    0.17 
   0   4  -8    1.20    0.16 
   0  -4  -8    1.44    0.07 
   0  -4  -8    1.34    0.19 
   0   4  -8    1.27    0.14 
  -2  -4  -8   44.22    0.96 
   2   4  -8   44.63    1.02 
   2  -4   8   43.42    1.00 
   2   4  -8   44.55    0.97 
  -2   4   8   42.86    0.92 
   2  -4  -8   43.76    0.89 
  -2   4  -8   44.71    0.98 
  -2   4  -8   43.35    0.91 
   2  -4  -8   43.66    0.96 
   4   4  -8    0.56    0.15 
   4   4  -8    0.57    0.18 
  -4   4   8    0.51    0.14 
   4  -4   8    0.30    0.16 
  -4  -4  -8    0.33    0.14 
  -4  -4  -8    0.44    0.16 
   4  -4  -8    0.29    0.14 
  -4   4  -8    0.50    0.11 
   4  -4  -8    0.31    0.14 
  -4   4  -8    0.45    0.17 
   4   4   8    0.62    0.11 
  -6  -4  -8    0.81    0.23 
   6   4  -8    0.45    0.19 
   6  -4   8    0.60    0.22 
  -6   4   8    0.74    0.18 
   6  -4  -8    0.78    0.22 
  -6   4  -8    0.65    0.22 
   8   4  -8    0.04    0.20 
   8  -4   8    0.19    0.22 
  -8  -4  -8   -0.23    0.19 
  -8   4  -8    0.05    0.24 
   8  -4  -8   -0.06    0.18 
   1   5  -8    4.55    0.29 
  -1   5   8    4.59    0.27 
  -1  -5  -8    4.27    0.28 
   1   5  -8    4.46    0.21 
   1  -5   8    4.84    0.31 
  -1  -5   8    4.87    0.31 
  -1   5  -8    4.36    0.27 
   1  -5  -8    4.63    0.20 
   1  -5  -8    4.56    0.29 
  -1   5  -8    4.37    0.27 
  -3   5   8    8.04    0.37 
   3   5  -8    8.98    0.44 
  -3  -5  -8    7.74    0.37 
   3  -5   8    7.93    0.45 
   3   5  -8    8.43    0.39 
  -3   5  -8    8.10    0.42 
  -3   5  -8    7.40    0.32 
   3  -5  -8    7.54    0.37 
   3  -5  -8    7.40    0.36 
  -5  -5  -8    0.52    0.20 
   5  -5   8    0.20    0.16 
   5   5  -8    0.04    0.12 
   5   5  -8    0.07    0.11 
  -5   5   8    0.02    0.11 
  -5   5  -8    0.26    0.21 
   5  -5  -8    0.03    0.12 
   5  -5  -8    0.05    0.14 
  -7  -5  -8    0.24    0.19 
   7   5  -8    0.15    0.21 
   7  -5   8   -0.01    0.19 
   7  -5  -8    0.34    0.20 
  -7   5  -8    0.09    0.24 
   0   6  -8    3.00    0.22 
   0  -6   8    3.22    0.31 
   0  -6  -8    3.30    0.16 
   0   6  -8    3.30    0.29 
   0  -6  -8    2.66    0.27 
  -2   6   8    8.68    0.40 
   2   6  -8    8.12    0.42 
  -2  -6  -8    8.40    0.41 
   2  -6   8    8.40    0.46 
   2  -6  -8    8.96    0.42 
   2  -6  -8    8.94    0.35 
  -2   6  -8    9.18    0.42 
  -2  -6   8    9.03    0.44 
  -2   6  -8    7.88    0.37 
  -4  -6  -8    0.26    0.15 
  -4   6   8    0.33    0.16 
   4  -6   8    0.00    0.14 
   4   6  -8    0.08    0.14 
   4   6  -8    0.04    0.13 
  -4   6  -8    0.43    0.19 
   4  -6  -8    0.08    0.13 
   4  -6  -8    0.02    0.13 
   6   6  -8   -0.09    0.17 
  -6   6   8    0.15    0.15 
  -6  -6  -8    0.04    0.14 
   6  -6   8    0.07    0.19 
  -6   6  -8    0.23    0.22 
   6  -6  -8    0.05    0.16 
   1  -7   8    5.89    0.40 
   1   7  -8    6.02    0.28 
  -1   7   8    5.94    0.34 
  -1  -7  -8    5.44    0.37 
   1   7  -8    5.60    0.36 
   1  -7  -8    5.91    0.38 
   1  -7  -8    6.04    0.27 
  -1  -7   8    5.57    0.36 
  -1   7  -8    5.21    0.31 
  -1   7  -8    5.44    0.34 
  -3  -7  -8    4.56    0.33 
   3  -7   8    5.50    0.42 
  -3   7   8    5.48    0.35 
   3   7  -8    4.54    0.34 
  -3   7  -8    4.78    0.31 
   3  -7  -8    4.67    0.30 
   3  -7  -8    5.36    0.36 
  -3  -7   8    4.33    0.39 
  -3   7  -8    4.58    0.40 
   5  -7   8    0.58    0.24 
   5   7  -8    0.55    0.21 
  -5   7   8    0.33    0.17 
  -5  -7  -8    0.37    0.20 
   5   7  -8    0.61    0.19 
  -5   7  -8    0.18    0.22 
   5  -7  -8    0.57    0.20 
   7  -7   8    0.68    0.27 
  -7  -7  -8    0.45    0.25 
   7   7  -8    0.59    0.24 
   7  -7  -8    0.50    0.24 
  -7   7  -8    0.87    0.29 
   0  -8   8    0.94    0.24 
   0   8  -8    1.28    0.20 
   0  -8  -8    1.64    0.26 
   0   8  -8    0.91    0.21 
  -2  -8  -8    8.62    0.48 
   2  -8   8    8.95    0.51 
  -2   8   8    9.66    0.48 
   2   8  -8    8.73    0.47 
  -2  -8   8    8.07    0.47 
  -2   8  -8    8.25    0.44 
  -2   8  -8    8.56    0.45 
   2  -8  -8    8.99    0.47 
  -4  -8  -8   -0.01    0.15 
   4  -8   8    0.92    0.26 
   4   8  -8    0.78    0.21 
  -4   8   8    0.39    0.17 
  -4   8  -8    0.70    0.23 
   4  -8  -8    0.53    0.19 
  -4  -8   8    0.46    0.20 
   4  -8  -8    0.61    0.19 
   6   8  -8    0.71    0.26 
   6  -8   8    0.66    0.28 
  -6  -8  -8   -0.07    0.18 
  -6   8   8    0.49    0.22 
  -6   8  -8    0.46    0.26 
   6  -8  -8    0.88    0.25 
   1  -9   8    3.73    0.40 
  -1   9   8    3.74    0.37 
  -1  -9  -8    3.29    0.36 
   1   9  -8    2.69    0.33 
   1   9  -8    3.53    0.31 
  -1  -9   8    3.74    0.39 
   1  -9  -8    3.17    0.36 
  -1   9  -8    2.71    0.30 
  -1   9  -8    3.12    0.34 
  -3  -9  -8    1.05    0.26 
   3   9  -8    1.89    0.29 
  -3   9   8    1.38    0.25 
   3  -9   8    1.32    0.31 
  -3   9  -8    1.25    0.25 
  -3   9  -8    1.54    0.24 
  -3  -9   8    1.64    0.30 
   3  -9  -8    1.32    0.27 
  -5   9   8    0.22    0.18 
   5  -9   8    0.18    0.23 
   5   9  -8    0.11    0.19 
   5  -9  -8    0.74    0.24 
  -5   9  -8    0.33    0.21 
  -5  -9   8    0.20    0.20 
   0 -10  -8    0.65    0.23 
   0 -10   8    0.57    0.21 
   0  10  -8    0.49    0.17 
   0  10  -8    0.55    0.19 
  -2  10   8    2.56    0.35 
   2  10  -8    1.96    0.30 
   2 -10   8    2.30    0.36 
  -2 -10  -8    2.39    0.34 
  -2  10  -8    2.35    0.33 
  -2  10  -8    2.53    0.32 
   2 -10  -8    2.83    0.36 
  -2 -10   8    2.35    0.36 
   4  10  -8    0.36    0.20 
  -4 -10  -8    0.31    0.21 
  -4  10   8    0.50    0.22 
   4 -10   8    0.02    0.24 
   4 -10  -8    0.45    0.22 
  -4  10  -8    0.34    0.22 
  -4 -10   8    0.53    0.23 
  -1  11   8    2.44    0.35 
   1 -11   8    2.55    0.39 
   1  11  -8    2.76    0.32 
  -1 -11  -8    3.32    0.42 
   1  11  -8    3.40    0.41 
  -1  11  -8    3.07    0.38 
  -1  11  -8    2.68    0.34 
  -1 -11   8    2.61    0.39 
   1 -11  -8    3.12    0.41 
   3 -11   8    1.72    0.37 
   3  11  -8    1.61    0.32 
  -3 -11  -8    2.54    0.38 
  -3  11   8    2.00    0.34 
  -3 -11   8    2.10    0.36 
  -3  11  -8    2.15    0.32 
  -3  11  -8    1.89    0.33 
   3 -11  -8    1.90    0.34 
   0  12  -8    0.28    0.18 
   0  12  -8    0.47    0.23 
   0 -12   8    0.48    0.28 
   0 -12  -8    0.12    0.22 
   2  12  -8    0.89    0.27 
  -2 -12  -8    0.62    0.27 
   2 -12   8    1.48    0.36 
  -2  12   8    0.61    0.25 
  -2  12  -8    1.14    0.29 
  -2 -12   8    1.14    0.33 
   2 -12  -8    0.56    0.27 
  -2  12  -8    0.96    0.25 
   1   0  -9   70.54    1.32 
  -1   0  -9   71.90    1.30 
   1   0  -9   72.54    1.30 
   1   0  -9   74.12    1.17 
   1   0   9   71.82    1.25 
  -1   0  -9   74.98    1.30 
   3   0   9  111.50    1.92 
   3   0  -9  110.71    2.03 
   3   0  -9  111.96    1.94 
  -3   0  -9  110.73    1.84 
  -3   0  -9  112.31    2.03 
  -3   0   9  111.71    1.74 
   5   0  -9    1.81    0.27 
   5   0   9    1.90    0.23 
   5   0  -9    1.87    0.20 
  -5   0  -9    1.81    0.26 
  -7   0  -9    4.51    0.46 
   7   0  -9    5.04    0.48 
   7   0   9    5.37    0.38 
   0   1   9   24.54    0.49 
   0   1  -9   24.88    0.50 
   0  -1  -9   24.89    0.59 
   0  -1   9   25.47    0.56 
   0   1  -9   25.02    0.59 
  -2  -1  -9  162.68    2.74 
   2   1  -9  160.68    2.69 
  -2   1   9  164.61    2.55 
   2  -1   9  163.22    2.69 
  -2  -1  -9  159.83    2.63 
   2   1  -9  161.72    2.75 
  -2   1  -9  163.75    2.72 
  -2   1  -9  166.25    2.63 
   2  -1  -9  163.53    2.70 
   2  -1  -9  163.03    2.71 
   2   1   9  164.07    2.59 
  -4  -1  -9    7.83    0.40 
   4   1  -9    7.91    0.41 
  -4   1   9    8.16    0.27 
   4  -1   9    8.32    0.37 
   4   1  -9    8.09    0.34 
  -4  -1  -9    8.06    0.28 
  -4   1  -9    8.18    0.25 
  -4   1  -9    8.41    0.41 
   4   1   9    8.02    0.33 
   4  -1  -9    8.05    0.40 
   4  -1  -9    8.13    0.33 
   6   1  -9    7.91    0.48 
   6  -1   9    7.75    0.42 
  -6  -1  -9    7.14    0.47 
   6  -1  -9    8.07    0.48 
  -6   1  -9    8.19    0.50 
   6   1   9    8.02    0.41 
   8  -1   9    0.49    0.21 
   8   1  -9    0.19    0.22 
  -8  -1  -9   -0.09    0.23 
   8  -1  -9    0.42    0.24 
  -8   1  -9    0.24    0.25 
   1  -2   9   70.07    1.30 
   1   2  -9   68.44    1.31 
   1   2  -9   69.97    1.10 
   1   2  -9   68.85    1.32 
  -1  -2  -9   69.49    1.30 
  -1   2  -9   70.18    1.26 
  -1   2  -9   70.80    1.28 
   1   2   9   70.76    1.09 
   1  -2  -9   70.34    1.32 
   1  -2  -9   71.37    1.22 
   3  -2   9   79.47    1.52 
   3   2  -9   80.52    1.48 
  -3  -2  -9   75.96    1.55 
  -3  -2  -9   79.52    1.41 
   3   2  -9   76.88    1.56 
  -3   2   9   78.15    1.37 
   3  -2  -9   79.12    1.51 
  -3   2  -9   78.21    1.37 
   3  -2  -9   80.91    1.47 
  -3   2  -9   77.35    1.53 
   3   2   9   79.62    1.35 
   5   2  -9    1.54    0.24 
  -5  -2  -9    1.92    0.26 
   5  -2   9    2.07    0.26 
   5   2  -9    1.94    0.21 
   5  -2  -9    2.24    0.21 
  -5   2  -9    1.66    0.27 
   5   2   9    1.92    0.21 
   5  -2  -9    1.85    0.26 
   7   2  -9    5.99    0.46 
   7  -2   9    6.09    0.43 
  -7  -2  -9    6.48    0.48 
  -7   2  -9    7.01    0.51 
   7  -2  -9    7.03    0.50 
   0   3  -9    2.09    0.20 
   0  -3   9    2.34    0.22 
   0   3  -9    2.16    0.14 
   0  -3  -9    1.99    0.21 
   0  -3  -9    2.20    0.08 
   2   3  -9   59.57    1.23 
  -2   3   9   58.54    1.11 
   2  -3   9   57.95    1.21 
   2   3  -9   58.10    1.19 
  -2  -3  -9   58.51    1.15 
   2  -3  -9   60.51    1.13 
  -2   3  -9   58.69    1.12 
   2  -3  -9   59.12    1.19 
  -2   3  -9   59.23    1.18 
  -4  -3  -9    1.10    0.20 
   4   3  -9    1.00    0.19 
   4   3  -9    1.13    0.18 
  -4   3   9    0.98    0.15 
  -4  -3  -9    1.06    0.17 
   4  -3   9    0.96    0.21 
   4  -3  -9    0.78    0.16 
   4  -3  -9    0.85    0.18 
  -4   3  -9    1.09    0.23 
   4   3   9    1.02    0.14 
   6   3  -9    2.82    0.34 
   6  -3   9    4.25    0.40 
  -6  -3  -9    3.31    0.39 
  -6   3  -9    4.25    0.42 
   6  -3  -9    3.58    0.38 
  -8  -3  -9   -0.03    0.23 
   8   3  -9   -0.02    0.20 
   8  -3   9    0.19    0.20 
  -8   3  -9    0.61    0.27 
   8  -3  -9   -0.07    0.18 
  -1   4   9   27.66    0.68 
   1  -4   9   28.34    0.74 
  -1  -4  -9   28.30    0.72 
   1   4  -9   28.67    0.57 
   1   4  -9   27.89    0.72 
   1  -4  -9   28.30    0.58 
  -1   4  -9   27.98    0.69 
  -1  -4   9   27.00    0.73 
  -1   4  -9   28.33    0.67 
   1  -4  -9   28.15    0.72 
  -3   4   9   33.73    0.79 
   3   4  -9   33.61    0.89 
  -3  -4  -9   33.45    0.81 
   3   4  -9   33.17    0.83 
   3  -4   9   32.53    0.89 
   3  -4  -9   34.78    0.83 
  -3   4  -9   34.15    0.88 
  -3   4  -9   34.13    0.75 
   3  -4  -9   33.33    0.83 
   5   4  -9    0.39    0.16 
  -5   4   9    0.51    0.15 
   5  -4   9    0.47    0.18 
  -5  -4  -9    0.55    0.19 
   5   4  -9    0.57    0.17 
   5  -4  -9    0.45    0.15 
  -5   4  -9    0.42    0.18 
   5  -4  -9    0.29    0.16 
   7   4  -9    1.93    0.34 
   7  -4   9    2.05    0.33 
  -7  -4  -9    2.36    0.38 
   7  -4  -9    2.22    0.35 
  -7   4  -9    2.61    0.39 
   0  -5   9   63.20    1.34 
   0  -5  -9   64.42    1.03 
   0   5  -9   62.31    1.19 
   0  -5  -9   62.25    1.32 
   0   5  -9   65.51    1.32 
   2  -5   9   88.94    1.79 
   2   5  -9   89.16    1.74 
  -2   5   9   90.62    1.70 
  -2  -5  -9   88.83    1.72 
   2  -5  -9   90.94    1.62 
  -2   5  -9   91.69    1.73 
  -2  -5   9   89.50    1.79 
  -2   5  -9   89.10    1.67 
   2  -5  -9   92.31    1.74 
  -4   5   9   14.25    0.51 
   4  -5   9   14.74    0.61 
  -4  -5  -9   13.89    0.51 
   4   5  -9   15.02    0.60 
  -4  -5  -9   15.42    0.62 
   4   5  -9   14.83    0.55 
   4  -5  -9   13.84    0.54 
  -4   5  -9   15.26    0.62 
   4  -5  -9   13.95    0.51 
   6  -5   9    8.77    0.53 
  -6   5   9    9.56    0.49 
   6   5  -9    9.18    0.54 
  -6  -5  -9    7.43    0.49 
   6  -5  -9    8.31    0.50 
  -6   5  -9    8.96    0.55 
   1  -6   9   29.28    0.84 
  -1  -6  -9   27.80    0.79 
   1   6  -9   28.99    0.80 
   1   6  -9   28.81    0.67 
  -1   6   9   29.05    0.78 
  -1   6  -9   27.95    0.73 
   1  -6  -9   28.32    0.62 
   1  -6  -9   27.13    0.79 
  -1   6  -9   28.72    0.78 
  -1  -6   9   30.00    0.84 
   3   6  -9   26.52    0.78 
  -3   6   9   25.00    0.74 
  -3  -6  -9   25.05    0.74 
   3  -6   9   25.45    0.82 
  -3   6  -9   25.48    0.78 
   3  -6  -9   26.50    0.71 
   3  -6  -9   26.25    0.76 
  -3   6  -9   25.95    0.70 
  -5   6   9    2.82    0.31 
  -5  -6  -9    2.61    0.34 
   5   6  -9    2.94    0.30 
   5  -6   9    2.82    0.37 
   5   6  -9    3.50    0.38 
   5  -6  -9    2.71    0.32 
   5  -6  -9    3.29    0.31 
  -5   6  -9    2.42    0.33 
   7  -6   9    1.89    0.34 
   7   6  -9    2.59    0.39 
  -7  -6  -9    2.31    0.37 
   7  -6  -9    2.81    0.38 
  -7   6  -9    2.00    0.39 
   0   7  -9    2.51    0.27 
   0  -7  -9    2.69    0.30 
   0   7  -9    2.63    0.24 
   0  -7   9    2.78    0.31 
   2  -7   9    7.21    0.45 
  -2  -7  -9    7.13    0.40 
  -2   7   9    7.71    0.41 
   2   7  -9    6.45    0.40 
  -2   7  -9    7.18    0.39 
  -2  -7   9    7.44    0.44 
  -2   7  -9    7.26    0.39 
   2  -7  -9    7.37    0.32 
   2  -7  -9    7.35    0.42 
  -4   7   9    0.82    0.20 
   4  -7   9    1.14    0.27 
  -4  -7  -9    0.96    0.21 
   4   7  -9    0.95    0.21 
   4  -7  -9    0.79    0.21 
  -4   7  -9    0.59    0.20 
   4  -7  -9    0.80    0.18 
  -6   7   9    0.28    0.18 
   6   7  -9    0.38    0.22 
   6  -7   9    0.68    0.27 
  -6  -7  -9    0.94    0.25 
   6  -7  -9    0.54    0.22 
  -6   7  -9    1.23    0.29 
   1   8  -9    2.80    0.31 
   1  -8   9    2.58    0.33 
  -1  -8  -9    2.85    0.33 
  -1   8   9    3.19    0.33 
   1   8  -9    2.43    0.24 
  -1   8  -9    2.65    0.30 
  -1   8  -9    3.00    0.29 
   1  -8  -9    3.20    0.34 
  -1  -8   9    2.42    0.32 
  -3  -8  -9    3.50    0.36 
   3  -8   9    3.45    0.39 
   3   8  -9    2.84    0.33 
  -3   8   9    3.87    0.36 
   3  -8  -9    3.16    0.34 
  -3   8  -9    3.48    0.33 
  -3   8  -9    3.71    0.37 
  -3  -8   9    3.13    0.37 
   5   8  -9    0.12    0.16 
  -5  -8  -9   -0.02    0.15 
  -5   8   9   -0.17    0.13 
   5  -8   9    0.28    0.19 
  -5   8  -9    0.28    0.22 
   5  -8  -9    0.03    0.15 
  -5  -8   9    0.06    0.17 
   0   9  -9   15.63    0.56 
   0  -9   9   13.35    0.63 
   0  -9  -9   13.96    0.64 
   0   9  -9   15.38    0.64 
  -2   9   9   14.58    0.62 
   2   9  -9   13.81    0.63 
  -2  -9  -9   14.79    0.64 
   2  -9   9   14.75    0.69 
  -2   9  -9   16.08    0.63 
  -2   9  -9   15.07    0.62 
   2  -9  -9   15.77    0.67 
  -2  -9   9   15.47    0.68 
  -4   9   9    5.56    0.43 
   4   9  -9    5.80    0.43 
   4  -9   9    4.94    0.50 
  -4  -9  -9    4.71    0.44 
   4  -9  -9    4.88    0.44 
  -4   9  -9    5.14    0.48 
  -4  -9   9    4.11    0.45 
  -1  10   9    9.48    0.54 
   1  10  -9    9.01    0.54 
   1 -10   9    8.88    0.57 
   1  10  -9    9.15    0.45 
  -1 -10  -9    9.37    0.56 
  -1  10  -9    8.29    0.46 
  -1  10  -9    8.87    0.52 
   1 -10  -9    9.97    0.57 
  -1 -10   9    8.89    0.56 
  -3  10   9    7.89    0.51 
   3 -10   9    8.28    0.58 
  -3 -10  -9    7.09    0.50 
   3  10  -9    6.59    0.50 
  -3 -10   9    7.30    0.52 
  -3  10  -9    6.88    0.45 
   3 -10  -9    6.85    0.52 
  -3  10  -9    6.31    0.47 
   0 -11  -9    1.09    0.31 
   0 -11   9    1.38    0.33 
   0  11  -9    1.40    0.30 
   0  11  -9    1.50    0.25 
   2  11  -9    0.88    0.25 
   2 -11   9    1.41    0.35 
  -2 -11  -9    0.95    0.28 
  -2  11   9    1.40    0.29 
  -2  11  -9    1.83    0.30 
  -2  11  -9    1.17    0.26 
   2 -11  -9    1.17    0.31 
  -2 -11   9    1.21    0.29 
   1  12  -9    0.34    0.24 
  -1 -12  -9    0.14    0.25 
   1 -12   9    0.60    0.29 
   1 -12  -9    0.67    0.29 
  -1  12  -9    0.65    0.24 
  -1  12  -9    0.48    0.19 
  -1 -12   9    0.37    0.27 
   0   0 -10  117.37    1.90 
   0   0 -10  114.65    2.00 
   0   0  10  118.77    1.94 
   2   0  10   32.07    0.67 
   2   0 -10   31.00    0.73 
  -2   0 -10   31.15    0.74 
   2   0 -10   32.62    0.75 
  -2   0 -10   31.85    0.69 
   4   0 -10   15.55    0.49 
   4   0  10   15.43    0.48 
  -4   0 -10   14.85    0.55 
  -4   0 -10   15.42    0.39 
   4   0 -10   14.05    0.54 
  -6   0 -10    2.12    0.32 
   6   0  10    1.95    0.25 
   6   0 -10    2.20    0.31 
   8   0 -10    0.44    0.23 
  -8   0 -10    0.51    0.27 
   8   0  10    0.29    0.16 
   1   1 -10   66.77    1.28 
   1   1 -10   71.13    1.32 
   1   1 -10   69.77    1.09 
   1  -1  10   68.30    1.26 
  -1  -1 -10   68.88    1.28 
  -1  -1 -10   69.92    1.28 
   1  -1 -10   68.80    1.31 
  -1   1 -10   69.26    1.28 
   1  -1 -10   69.17    1.23 
   1   1  10   70.04    1.16 
  -1   1 -10   69.31    1.25 
  -3  -1 -10   32.54    0.81 
   3   1 -10   31.55    0.76 
   3   1 -10   32.12    0.80 
   3  -1  10   31.02    0.75 
  -3  -1 -10   32.02    0.69 
  -3   1  10   30.71    0.59 
  -3   1 -10   31.94    0.80 
   3   1  10   31.18    0.67 
  -3   1 -10   30.95    0.67 
   3  -1 -10   31.39    0.75 
   3  -1 -10   31.39    0.78 
  -5  -1 -10    4.58    0.34 
   5   1 -10    4.06    0.38 
   5  -1  10    4.39    0.31 
   5   1 -10    4.41    0.27 
  -5   1 -10    4.96    0.38 
   5  -1 -10    4.60    0.35 
   5  -1 -10    4.93    0.27 
   5   1  10    4.52    0.28 
   7  -1  10    1.17    0.23 
  -7  -1 -10    1.93    0.34 
   7   1 -10    0.96    0.26 
   7   1  10    1.61    0.25 
  -7   1 -10    1.63    0.32 
   7  -1 -10    2.34    0.36 
   0  -2 -10   56.92    1.13 
   0   2 -10   58.11    1.12 
   0  -2  10   55.19    1.10 
   0   2 -10   55.65    0.99 
   0   2  10   56.72    0.94 
  -2   2  10   13.47    0.36 
   2   2 -10   12.54    0.46 
   2  -2  10   13.88    0.45 
  -2  -2 -10   12.85    0.45 
  -2  -2 -10   13.32    0.42 
   2   2 -10   12.93    0.44 
  -2   2 -10   13.86    0.45 
   2  -2 -10   13.90    0.46 
  -2   2 -10   13.96    0.41 
   2   2  10   13.86    0.30 
   2  -2 -10   13.64    0.42 
  -4  -2 -10    8.79    0.44 
  -4   2  10    8.98    0.31 
   4  -2  10    8.68    0.41 
   4   2 -10    8.47    0.37 
   4   2 -10    8.98    0.43 
  -4  -2 -10    9.27    0.34 
   4  -2 -10    8.90    0.38 
  -4   2 -10    9.39    0.44 
   4  -2 -10    8.59    0.42 
   4   2  10    8.90    0.32 
   6   2 -10    2.47    0.32 
  -6  -2 -10    1.97    0.31 
   6  -2  10    2.31    0.29 
  -6   2 -10    2.44    0.34 
   6  -2 -10    2.81    0.34 
   8  -2  10    0.43    0.20 
   8   2 -10    0.33    0.21 
  -8  -2 -10    0.52    0.27 
   8  -2 -10    0.51    0.25 
  -8   2 -10   -0.21    0.21 
   1  -3  10   34.00    0.82 
   1   3 -10   35.13    0.63 
   1   3 -10   34.86    0.83 
  -1  -3 -10   36.10    0.83 
   1  -3 -10   35.83    0.69 
  -1   3 -10   36.27    0.81 
  -1   3 -10   35.05    0.76 
   1  -3 -10   35.83    0.84 
  -1  -3  10   35.75    0.84 
   3   3 -10   17.13    0.54 
  -3  -3 -10   16.41    0.58 
   3  -3  10   16.37    0.57 
  -3  -3 -10   16.11    0.50 
  -3   3  10   17.24    0.48 
   3   3 -10   16.29    0.59 
   3   3  10   17.13    0.38 
   3  -3 -10   17.73    0.53 
  -3   3 -10   17.30    0.47 
   3  -3 -10   16.53    0.54 
  -3   3 -10   17.16    0.57 
   5   3 -10    3.59    0.37 
   5   3 -10    3.38    0.29 
   5  -3  10    3.54    0.35 
  -5  -3 -10    4.44    0.41 
   5  -3 -10    4.02    0.36 
   5  -3 -10    3.55    0.27 
  -5   3 -10    3.17    0.36 
  -7  -3 -10    1.55    0.30 
   7  -3  10    2.32    0.33 
   7   3 -10    1.61    0.31 
   7  -3 -10    1.79    0.33 
  -7   3 -10    1.39    0.32 
   0   4 -10   50.88    0.98 
   0   4 -10   51.26    1.10 
   0  -4  10   53.66    1.14 
   0  -4 -10   52.65    1.12 
  -2   4  10   13.66    0.44 
   2  -4  10   13.52    0.52 
   2   4 -10   14.05    0.51 
   2   4 -10   13.79    0.50 
  -2  -4 -10   13.59    0.48 
   2  -4 -10   13.73    0.49 
  -2   4 -10   13.49    0.45 
  -2   4 -10   14.14    0.48 
   2  -4 -10   13.58    0.41 
  -4  -4 -10    5.84    0.39 
   4   4 -10    6.30    0.35 
  -4  -4 -10    5.83    0.32 
   4   4 -10    6.20    0.40 
   4  -4  10    6.66    0.41 
  -4   4  10    5.79    0.30 
   4  -4 -10    6.45    0.34 
   4  -4 -10    5.99    0.34 
  -4   4 -10    5.16    0.36 
  -6  -4 -10    1.55    0.30 
   6  -4  10    1.54    0.28 
   6   4 -10    1.67    0.29 
   6  -4 -10    1.32    0.25 
  -6   4 -10    1.37    0.30 
  -1   5  10   43.79    1.00 
   1   5 -10   45.59    0.87 
   1  -5  10   44.97    1.07 
  -1  -5 -10   44.71    1.05 
   1   5 -10   45.11    1.05 
   1  -5 -10   45.75    0.84 
   1  -5 -10   45.79    1.05 
  -1  -5  10   44.65    1.07 
  -1   5 -10   43.81    0.96 
  -1   5 -10   42.81    1.00 
  -3   5  10   20.68    0.61 
  -3  -5 -10   20.39    0.64 
   3   5 -10   19.60    0.70 
   3   5 -10   21.61    0.68 
   3  -5  10   21.11    0.72 
  -3   5 -10   21.73    0.69 
  -3   5 -10   20.93    0.59 
   3  -5 -10   20.27    0.61 
   3  -5 -10   22.10    0.67 
  -5   5  10    4.06    0.34 
   5  -5  10    4.02    0.41 
   5   5 -10    4.22    0.32 
  -5  -5 -10    4.52    0.43 
   5   5 -10    4.18    0.41 
   5  -5 -10    4.84    0.33 
   5  -5 -10    4.73    0.35 
  -5   5 -10    5.12    0.45 
  -7  -5 -10    0.73    0.28 
   7   5 -10    1.22    0.29 
   7  -5  10    1.64    0.33 
   7  -5 -10    1.46    0.30 
  -7   5 -10    1.76    0.37 
   0  -6 -10   18.02    0.62 
   0  -6  10   18.25    0.64 
   0   6 -10   18.03    0.61 
   0   6 -10   17.68    0.52 
  -2   6  10    6.47    0.35 
   2  -6  10    6.86    0.41 
  -2  -6 -10    5.95    0.37 
   2   6 -10    6.98    0.38 
   2  -6 -10    6.41    0.29 
  -2   6 -10    6.78    0.37 
   2  -6 -10    6.32    0.39 
  -2   6 -10    6.65    0.35 
  -2  -6  10    6.94    0.41 
   4  -6  10    4.02    0.41 
  -4  -6 -10    3.89    0.34 
   4   6 -10    4.28    0.41 
   4   6 -10    3.87    0.35 
  -4   6  10    3.90    0.29 
  -4   6 -10    3.62    0.38 
   4  -6 -10    4.03    0.31 
   4  -6 -10    4.28    0.36 
   6   6 -10    1.00    0.26 
   6  -6  10    1.12    0.26 
  -6  -6 -10    0.43    0.20 
   6  -6 -10    0.82    0.24 
  -6   6 -10    0.63    0.27 
  -1   7  10    7.73    0.41 
   1  -7  10    7.94    0.44 
  -1  -7 -10    8.60    0.45 
   1   7 -10    7.93    0.33 
   1   7 -10    7.62    0.43 
  -1  -7  10    7.64    0.45 
   1  -7 -10    7.41    0.42 
  -1   7 -10    8.10    0.41 
  -1   7 -10    8.21    0.38 
   3  -7  10    8.02    0.50 
   3   7 -10    6.00    0.40 
  -3  -7 -10    5.95    0.39 
  -3   7  10    6.27    0.38 
  -3  -7  10    6.09    0.42 
  -3   7 -10    6.63    0.36 
   3  -7 -10    6.30    0.41 
  -3   7 -10    6.38    0.42 
   3  -7 -10    6.64    0.34 
   5   7 -10    1.69    0.28 
   5   7 -10    2.27    0.34 
   5  -7  10    1.26    0.30 
  -5   7  10    1.18    0.23 
  -5  -7 -10    1.23    0.26 
  -5   7 -10    1.50    0.28 
   5  -7 -10    1.27    0.24 
   5  -7 -10    1.75    0.27 
   0  -8  10    4.56    0.42 
   0   8 -10    3.92    0.28 
   0   8 -10    4.19    0.38 
   0  -8 -10    4.86    0.42 
   2  -8  10    2.04    0.33 
   2   8 -10    1.15    0.24 
  -2  -8 -10    1.81    0.28 
  -2   8  10    2.31    0.29 
  -2   8 -10    2.20    0.27 
  -2   8 -10    1.94    0.26 
  -2  -8  10    2.78    0.35 
   2  -8 -10    2.04    0.30 
  -4  -8 -10    1.58    0.27 
   4   8 -10    1.04    0.24 
  -4   8  10    1.40    0.25 
   4  -8  10    1.30    0.30 
  -4  -8  10    1.36    0.28 
  -4   8 -10    1.39    0.27 
   4  -8 -10    1.00    0.25 
  -6   8  10   -0.01    0.18 
  -6  -8 -10    0.48    0.24 
   6   8 -10    0.34    0.25 
   6  -8  10    0.31    0.24 
  -6   8 -10    0.42    0.25 
   6  -8 -10    0.25    0.21 
   1   9 -10    9.40    0.53 
  -1  -9 -10    8.46    0.51 
  -1   9  10    8.66    0.49 
   1   9 -10    8.54    0.41 
   1  -9  10    8.73    0.54 
  -1   9 -10    8.98    0.49 
  -1  -9  10   10.03    0.56 
  -1   9 -10    9.17    0.46 
   1  -9 -10    9.12    0.53 
  -3  -9 -10    6.20    0.45 
   3  -9  10    6.43    0.56 
   3   9 -10    6.57    0.46 
  -3   9  10    5.80    0.42 
  -3  -9  10    6.52    0.47 
  -3   9 -10    6.72    0.45 
   3  -9 -10    5.76    0.48 
  -3   9 -10    5.91    0.40 
  -5   9  10    1.20    0.27 
   5   9 -10    0.92    0.26 
   5  -9  10    0.44    0.28 
  -5  -9  10    1.11    0.28 
  -5   9 -10    1.30    0.31 
   0 -10  10    4.95    0.48 
   0  10 -10    6.14    0.38 
   0 -10 -10    5.48    0.51 
   0  10 -10    5.14    0.48 
  -2 -10 -10    2.99    0.40 
   2 -10  10    2.95    0.42 
  -2  10  10    2.54    0.35 
   2  10 -10    3.20    0.39 
  -2  10 -10    2.94    0.34 
  -2 -10  10    3.02    0.41 
  -2  10 -10    3.06    0.36 
   2 -10 -10    3.14    0.41 
  -4  10  10    1.15    0.28 
  -4 -10 -10    1.22    0.28 
   4  10 -10    1.29    0.30 
   4 -10  10    0.95    0.31 
   4 -10 -10    0.78    0.28 
  -4  10 -10    0.88    0.26 
  -4 -10  10    1.34    0.31 
   1 -11  10    1.61    0.35 
   1  11 -10    2.51    0.36 
  -1 -11 -10    1.63    0.35 
  -1 -11  10    1.68    0.35 
   1 -11 -10    2.81    0.40 
  -1  11 -10    2.30    0.34 
  -1  11 -10    1.90    0.29 
   3  11 -10    1.11    0.29 
  -3 -11 -10    1.24    0.32 
   3 -11  10    1.58    0.35 
  -3  11  10    1.03    0.26 
   3 -11 -10    0.90    0.28 
  -3  11 -10    1.26    0.27 
  -3  11 -10    1.10    0.26 
  -3 -11  10    0.67    0.29 
   0  12 -10    0.79    0.27 
   0 -12 -10    1.05    0.31 
   0 -12  10    0.16    0.27 
   1   0 -11    4.10    0.26 
   1   0 -11    4.34    0.22 
  -1   0 -11    4.49    0.22 
   1   0  11    4.40    0.21 
  -1   0 -11    4.45    0.25 
   1   0 -11    4.80    0.16 
  -3   0 -11    1.11    0.15 
   3   0 -11    1.15    0.19 
   3   0 -11    0.96    0.17 
   3   0  11    1.22    0.16 
  -3   0 -11    1.07    0.20 
   5   0  11    0.23    0.12 
  -5   0 -11    0.42    0.17 
   5   0 -11    0.17    0.13 
   5   0 -11    0.46    0.14 
   7   0 -11    0.69    0.24 
   7   0  11    1.17    0.23 
  -7   0 -11    1.13    0.29 
   0   1 -11   22.25    0.48 
   0  -1  11   22.25    0.54 
   0   1 -11   22.26    0.59 
   0  -1 -11   21.50    0.59 
   0   1  11   22.50    0.48 
  -2  -1 -11   17.92    0.53 
   2   1 -11   16.55    0.52 
   2  -1  11   17.88    0.49 
   2   1 -11   18.22    0.54 
  -2  -1 -11   17.41    0.50 
   2   1  11   17.95    0.42 
  -2   1 -11   17.82    0.52 
  -2   1 -11   18.33    0.49 
   2  -1 -11   17.62    0.53 
   2  -1 -11   17.09    0.49 
   4   1 -11    4.58    0.32 
  -4  -1 -11    4.26    0.23 
   4   1 -11    4.13    0.27 
   4  -1  11    4.14    0.28 
  -4  -1 -11    3.99    0.36 
  -4   1 -11    3.33    0.33 
  -4   1 -11    4.32    0.23 
   4   1  11    3.94    0.23 
   4  -1 -11    4.50    0.27 
   4  -1 -11    3.67    0.32 
   6  -1  11    2.37    0.28 
   6   1 -11    2.63    0.33 
  -6  -1 -11    2.76    0.35 
  -6   1 -11    2.04    0.31 
   6  -1 -11    1.89    0.29 
   6   1  11    2.32    0.26 
  -8  -1 -11   -0.26    0.21 
   8  -1  11    0.12    0.16 
   8   1 -11    0.00    0.17 
  -8   1 -11    0.18    0.25 
   8  -1 -11   -0.13    0.17 
  -1  -2 -11    0.28    0.13 
   1   2 -11    0.14    0.12 
   1   2 -11    0.25    0.05 
   1  -2  11   -0.05    0.10 
   1  -2 -11    0.13    0.08 
  -1   2 -11    0.09    0.10 
   1   2  11    0.17    0.06 
  -1   2 -11    0.14    0.10 
   1  -2 -11    0.13    0.11 
   3   2 -11    0.10    0.12 
  -3  -2 -11    0.27    0.13 
   3   2 -11    0.18    0.13 
  -3   2  11    0.16    0.08 
  -3  -2 -11    0.23    0.13 
   3  -2  11    0.19    0.16 
   3  -2 -11    0.08    0.11 
   3  -2 -11    0.26    0.14 
  -3   2 -11    0.07    0.09 
   3   2  11    0.12    0.08 
  -3   2 -11    0.13    0.14 
  -5  -2 -11    2.55    0.32 
   5   2 -11    3.61    0.36 
   5   2 -11    3.59    0.27 
   5  -2  11    3.45    0.32 
  -5   2 -11    3.75    0.38 
   5  -2 -11    2.91    0.32 
   5  -2 -11    3.51    0.26 
  -7  -2 -11    0.13    0.19 
   7  -2  11    0.11    0.15 
   7   2 -11   -0.11    0.17 
  -7   2 -11    0.18    0.22 
   7  -2 -11    0.16    0.19 
   0   3  11    0.13    0.04 
   0  -3 -11    0.19    0.12 
   0   3 -11    0.09    0.08 
   0   3 -11    0.05    0.09 
   0  -3  11   -0.01    0.11 
  -2   3  11    2.02    0.18 
   2   3 -11    2.03    0.23 
   2  -3  11    2.31    0.25 
   2   3 -11    2.21    0.24 
  -2  -3 -11    2.20    0.23 
  -2   3 -11    2.06    0.22 
  -2   3 -11    2.17    0.21 
   2  -3 -11    2.44    0.26 
   2  -3 -11    2.12    0.19 
  -4  -3 -11    1.68    0.20 
   4   3 -11    1.38    0.24 
   4  -3  11    1.36    0.23 
  -4   3  11    0.91    0.14 
   4   3 -11    1.23    0.20 
  -4  -3 -11    0.92    0.20 
   4  -3 -11    1.28    0.20 
   4  -3 -11    0.92    0.18 
  -4   3 -11    1.56    0.25 
   6  -3  11    1.51    0.26 
  -6  -3 -11    1.14    0.27 
   6   3 -11    1.26    0.27 
  -6   3 -11    0.86    0.24 
   6  -3 -11    1.57    0.28 
   1  -4  11    3.52    0.31 
   1   4 -11    3.34    0.30 
   1   4 -11    3.12    0.16 
  -1  -4 -11    3.33    0.29 
  -1   4 -11    3.03    0.23 
  -1   4 -11    3.67    0.26 
  -1  -4  11    3.38    0.30 
   1  -4 -11    3.24    0.17 
   1  -4 -11    3.68    0.28 
   3   4 -11    0.03    0.12 
  -3   4  11    0.09    0.10 
   3   4 -11    0.06    0.12 
  -3  -4 -11   -0.19    0.13 
   3  -4  11    0.17    0.18 
  -3   4 -11    0.13    0.15 
   3  -4 -11   -0.02    0.14 
  -3   4 -11    0.03    0.10 
   3  -4 -11    0.09    0.12 
   5  -4  11    0.62    0.21 
  -5  -4 -11    0.66    0.22 
   5   4 -11    0.65    0.21 
   5   4 -11    0.29    0.15 
  -5   4 -11    0.63    0.23 
   5  -4 -11    0.39    0.17 
   5  -4 -11    0.61    0.17 
  -7  -4 -11    0.52    0.25 
   7  -4  11    0.44    0.22 
   7   4 -11    0.69    0.26 
  -7   4 -11    0.20    0.25 
   7  -4 -11    0.68    0.24 
   0   5 -11   23.09    0.57 
   0  -5 -11   23.32    0.71 
   0   5 -11   23.82    0.70 
   0  -5  11   23.39    0.72 
   2  -5  11   18.18    0.66 
   2   5 -11   18.48    0.62 
  -2  -5 -11   18.35    0.61 
  -2   5  11   17.91    0.56 
  -2   5 -11   19.94    0.61 
  -2   5 -11   17.73    0.57 
  -2  -5  11   18.21    0.65 
   2  -5 -11   18.22    0.62 
   2  -5 -11   18.15    0.50 
   4   5 -11    3.86    0.39 
   4   5 -11    3.41    0.33 
   4  -5  11    3.73    0.38 
  -4  -5 -11    3.62    0.31 
  -4   5  11    2.95    0.28 
  -4  -5 -11    3.47    0.36 
   4  -5 -11    4.35    0.36 
  -4   5 -11    3.97    0.39 
   4  -5 -11    4.20    0.31 
  -6  -5 -11    0.75    0.24 
   6  -5  11    1.08    0.27 
   6   5 -11    0.89    0.25 
   6  -5 -11    1.53    0.28 
  -6   5 -11    0.84    0.28 
   1   6 -11    6.36    0.27 
  -1  -6 -11    6.52    0.40 
   1   6 -11    6.41    0.38 
   1  -6  11    6.57    0.42 
  -1   6 -11    6.44    0.33 
   1  -6 -11    6.36    0.38 
  -1  -6  11    6.38    0.41 
  -1   6 -11    6.32    0.36 
  -3   6  11    0.62    0.17 
   3   6 -11    1.28    0.22 
   3  -6  11    1.13    0.24 
  -3  -6 -11    1.40    0.23 
   3  -6 -11    1.13    0.23 
  -3   6 -11    1.35    0.20 
   3  -6 -11    1.24    0.19 
  -3  -6  11    1.36    0.24 
  -3   6 -11    1.15    0.23 
   5  -6  11    1.61    0.29 
   5   6 -11    1.14    0.27 
  -5  -6 -11    1.89    0.30 
   5   6 -11    1.65    0.27 
  -5   6  11    1.48    0.23 
   5  -6 -11    1.82    0.28 
  -5   6 -11    2.07    0.33 
   5  -6 -11    1.84    0.27 
   7  -6  11    0.21    0.23 
  -7  -6 -11   -0.25    0.19 
   7   6 -11   -0.08    0.18 
   7  -6 -11    0.02    0.17 
  -7   6 -11   -0.05    0.22 
   0  -7 -11    0.02    0.16 
   0   7 -11    0.17    0.15 
   0  -7  11   -0.04    0.15 
   0   7 -11    0.13    0.10 
  -2  -7 -11    0.37    0.18 
  -2   7  11    0.27    0.14 
   2  -7  11    0.55    0.22 
   2   7 -11    0.24    0.17 
   2  -7 -11    0.19    0.17 
  -2  -7  11    0.51    0.20 
  -2   7 -11    0.27    0.14 
  -2   7 -11    0.27    0.15 
   4   7 -11    0.11    0.17 
  -4   7  11    0.16    0.14 
   4  -7  11    0.28    0.22 
  -4  -7 -11    0.01    0.15 
   4  -7 -11    0.10    0.17 
  -4   7 -11    0.21    0.19 
   4  -7 -11    0.00    0.13 
  -4  -7  11    0.24    0.19 
   6   7 -11    0.62    0.26 
   6   7 -11    0.44    0.21 
   6  -7  11    0.42    0.22 
  -6  -7 -11    0.30    0.21 
   6  -7 -11    0.82    0.24 
  -6   7 -11    0.63    0.28 
   1  -8  11    0.50    0.21 
   1   8 -11    1.03    0.22 
   1   8 -11    0.74    0.16 
  -1  -8 -11    0.17    0.19 
  -1   8 -11    0.65    0.17 
  -1   8 -11    0.90    0.20 
   1  -8 -11    0.35    0.20 
  -1  -8  11    0.77    0.24 
   3  -8  11    0.13    0.21 
  -3  -8 -11   -0.11    0.15 
   3   8 -11    0.07    0.13 
  -3   8  11    0.09    0.15 
  -3   8 -11   -0.13    0.13 
  -3  -8  11   -0.05    0.17 
   3  -8 -11   -0.34    0.14 
  -3   8 -11   -0.19    0.14 
  -5  -8 -11    0.76    0.26 
   5   8 -11    0.80    0.22 
   5  -8  11    0.68    0.27 
  -5   8  11    1.00    0.24 
  -5  -8  11    0.92    0.24 
  -5   8 -11    0.63    0.26 
   5  -8 -11    0.94    0.26 
   0  -9 -11    9.46    0.55 
   0   9 -11    8.10    0.41 
   0   9 -11    8.55    0.50 
   0  -9  11    8.33    0.54 
  -2   9  11    7.25    0.46 
  -2  -9 -11    6.28    0.47 
   2  -9  11    7.50    0.53 
   2   9 -11    8.04    0.50 
   2  -9 -11    6.61    0.48 
  -2  -9  11    7.40    0.51 
  -2   9 -11    7.70    0.47 
  -2   9 -11    7.44    0.44 
  -4   9  11    3.14    0.38 
   4   9 -11    2.58    0.35 
   4  -9  11    1.55    0.35 
  -4  -9 -11    3.37    0.39 
  -4   9 -11    2.57    0.37 
  -4  -9  11    2.77    0.39 
   4  -9 -11    2.19    0.34 
  -1 -10 -11    5.30    0.51 
   1  10 -11    4.43    0.45 
   1 -10  11    3.19    0.44 
  -1  10 -11    4.98    0.36 
  -1 -10  11    3.97    0.46 
   1 -10 -11    4.53    0.48 
  -1  10 -11    4.61    0.45 
   3  10 -11    1.49    0.29 
  -3 -10 -11    1.75    0.34 
  -3  10  11    1.90    0.31 
   3 -10  11    1.97    0.36 
  -3  10 -11    1.57    0.27 
   3 -10 -11    1.35    0.31 
  -3  10 -11    2.39    0.34 
  -3 -10  11    1.16    0.29 
   0  11 -11    0.52    0.25 
   0 -11  11    0.65    0.29 
   0 -11 -11    1.21    0.33 
  -2  11  11    0.84    0.26 
   2 -11  11    1.14    0.31 
  -2 -11 -11    0.96    0.30 
   2  11 -11    1.08    0.28 
   2 -11 -11    1.62    0.36 
  -2  11 -11    1.30    0.27 
  -2  11 -11    0.82    0.23 
  -2 -11  11    0.74    0.30 
   0   0 -12  265.19    4.13 
   0   0  12  266.82    4.18 
   0   0 -12  261.62    4.24 
  -2   0 -12   53.95    1.11 
   2   0 -12   53.64    1.10 
  -2   0 -12   53.03    1.07 
   2   0  12   51.90    1.01 
   2   0 -12   49.58    1.10 
   4   0 -12   28.15    0.75 
  -4   0 -12   28.65    0.83 
   4   0 -12   28.72    0.82 
  -4   0 -12   29.05    0.65 
   4   0  12   27.09    0.70 
   6   0  12    7.77    0.41 
  -6   0 -12    7.55    0.50 
   6   0 -12    7.97    0.49 
  -8   0 -12    0.07    0.24 
   8   0 -12    0.15    0.21 
   1   1 -12   53.53    0.89 
   1   1 -12   53.60    1.13 
  -1  -1 -12   53.37    1.08 
   1  -1  12   57.00    1.08 
   1   1 -12   55.38    1.10 
  -1  -1 -12   54.01    1.11 
  -1   1 -12   54.69    1.11 
  -1   1 -12   54.96    1.05 
   1  -1 -12   50.97    1.12 
   1  -1 -12   55.13    1.04 
   1   1  12   52.92    0.96 
   3  -1  12    6.08    0.32 
  -3  -1 -12    6.70    0.31 
   3   1 -12    6.22    0.34 
  -3  -1 -12    6.20    0.36 
   3   1 -12    6.40    0.35 
   3  -1 -12    6.54    0.34 
   3   1  12    6.31    0.26 
  -3   1 -12    6.27    0.29 
  -3   1 -12    5.97    0.35 
   3  -1 -12    6.53    0.34 
   5   1 -12   10.54    0.51 
   5   1 -12    9.81    0.42 
  -5  -1 -12    8.94    0.48 
   5  -1  12    9.25    0.43 
  -5   1 -12    9.27    0.51 
   5  -1 -12    9.59    0.41 
   5   1  12    9.46    0.39 
   5  -1 -12    9.26    0.49 
  -7  -1 -12    0.42    0.21 
   7   1 -12    0.89    0.26 
   7  -1  12    0.50    0.18 
   7  -1 -12    0.64    0.24 
  -7   1 -12    0.22    0.23 
   0   2  12   14.06    0.33 
   0   2 -12   14.18    0.36 
   0  -2  12   14.48    0.46 
   0  -2 -12   13.53    0.47 
   0   2 -12   13.65    0.47 
   2   2 -12    3.41    0.26 
   2   2 -12    2.97    0.27 
  -2  -2 -12    3.12    0.26 
  -2  -2 -12    3.34    0.25 
   2  -2  12    3.60    0.26 
  -2   2 -12    3.35    0.25 
   2  -2 -12    3.34    0.22 
  -2   2 -12    3.34    0.23 
   2   2  12    3.28    0.14 
   2  -2 -12    3.07    0.28 
   4   2 -12    0.78    0.19 
  -4  -2 -12    0.74    0.15 
   4  -2  12    0.61    0.17 
  -4  -2 -12    0.59    0.19 
   4   2 -12    0.61    0.16 
   4  -2 -12    0.75    0.17 
  -4   2 -12    0.70    0.19 
   4  -2 -12    0.81    0.18 
   6  -2  12    1.43    0.25 
   6   2 -12    1.34    0.28 
  -6  -2 -12    1.06    0.26 
  -6   2 -12    1.14    0.28 
   6  -2 -12    2.13    0.31 
  -1  -3 -12   20.96    0.62 
   1   3 -12   20.74    0.41 
   1  -3  12   19.95    0.61 
   1   3 -12   20.59    0.62 
  -1  -3  12   20.35    0.62 
  -1   3 -12   19.59    0.54 
   1  -3 -12   20.69    0.47 
   1  -3 -12   21.01    0.64 
  -1   3 -12   20.68    0.60 
   3  -3  12    1.53    0.24 
  -3  -3 -12    1.23    0.21 
  -3   3  12    1.57    0.17 
   3   3 -12    1.16    0.20 
   3   3 -12    1.31    0.22 
  -3  -3 -12    1.55    0.21 
  -3   3 -12    1.33    0.22 
  -3   3 -12    1.20    0.17 
   3  -3 -12    1.22    0.21 
   3  -3 -12    1.26    0.19 
  -5  -3 -12    7.37    0.47 
   5   3 -12    7.82    0.40 
   5  -3  12    7.99    0.46 
   5   3 -12    7.06    0.46 
   5  -3 -12    8.28    0.40 
  -5   3 -12    7.98    0.48 
   5  -3 -12    7.59    0.44 
  -7  -3 -12    0.58    0.27 
   7   3 -12    0.77    0.23 
   7  -3  12    1.10    0.25 
   7  -3 -12    0.22    0.20 
  -7   3 -12    0.17    0.24 
   0  -4  12   89.97    1.74 
   0  -4 -12   89.80    1.74 
   0   4 -12   87.68    1.71 
   0   4 -12   88.28    1.55 
  -2   4  12   14.02    0.46 
   2  -4  12   14.59    0.56 
  -2  -4 -12   14.64    0.53 
   2   4 -12   14.81    0.54 
  -2   4 -12   13.75    0.49 
   2  -4 -12   14.35    0.55 
  -2   4 -12   13.94    0.50 
   2  -4 -12   14.46    0.43 
   4   4 -12   12.08    0.50 
   4   4 -12   11.16    0.54 
  -4   4  12   11.51    0.42 
   4  -4  12   11.13    0.54 
  -4  -4 -12   11.92    0.55 
  -4  -4 -12   11.79    0.47 
   4  -4 -12   12.07    0.49 
   4  -4 -12   11.76    0.49 
  -4   4 -12   11.91    0.55 
  -6  -4 -12    4.88    0.48 
   6   4 -12    5.21    0.38 
   6   4 -12    3.76    0.43 
   6  -4  12    4.49    0.43 
  -6   4 -12    5.07    0.48 
   6  -4 -12    4.26    0.42 
   1   5 -12   40.22    0.79 
   1   5 -12   40.87    1.01 
   1  -5  12   39.84    1.02 
  -1  -5 -12   39.76    1.00 
   1  -5 -12   38.89    1.01 
  -1  -5  12   40.35    1.03 
  -1   5 -12   39.48    0.98 
  -1   5 -12   38.50    0.89 
   3   5 -12   10.13    0.48 
  -3   5  12   10.06    0.41 
   3  -5  12   10.28    0.51 
  -3  -5 -12   10.24    0.45 
   3   5 -12    9.88    0.50 
   3  -5 -12   10.14    0.48 
  -3   5 -12   10.26    0.42 
   3  -5 -12    9.38    0.40 
  -3   5 -12    9.25    0.45 
  -5  -5 -12    5.36    0.48 
   5   5 -12    5.86    0.44 
   5  -5  12    5.51    0.43 
   5   5 -12    5.91    0.39 
  -5   5 -12    5.86    0.46 
   5  -5 -12    6.32    0.40 
   5  -5 -12    6.28    0.39 
   7  -5  12    0.37    0.23 
   7   5 -12    0.06    0.20 
  -7  -5 -12    0.28    0.24 
  -7   5 -12    0.41    0.26 
   7  -5 -12    0.23    0.20 
   0  -6  12   10.38    0.50 
   0  -6 -12    9.26    0.46 
   0   6 -12   10.01    0.46 
   0   6 -12    9.19    0.36 
  -2   6  12    0.54    0.15 
  -2  -6 -12    0.45    0.18 
   2   6 -12    0.20    0.15 
   2  -6  12    0.34    0.20 
  -2   6 -12    0.28    0.16 
   2  -6 -12    0.47    0.19 
  -2  -6  12    0.40    0.18 
  -2   6 -12    0.50    0.15 
  -4   6  12    1.16    0.21 
   4  -6  12    0.85    0.25 
  -4  -6 -12    0.86    0.21 
  -4  -6 -12    0.84    0.21 
   4   6 -12    1.09    0.23 
   4   6 -12    1.05    0.23 
  -4   6 -12    0.72    0.23 
   4  -6 -12    1.21    0.24 
   4  -6 -12    0.74    0.18 
   6   6 -12    0.35    0.18 
   6   6 -12    0.18    0.21 
   6  -6  12    0.10    0.24 
  -6  -6 -12   -0.01    0.17 
   6  -6 -12    0.35    0.20 
  -6   6 -12    0.15    0.23 
  -1  -7 -12    3.65    0.37 
   1  -7  12    3.39    0.37 
   1   7 -12    4.13    0.38 
  -1   7 -12    3.32    0.33 
   1  -7 -12    3.89    0.38 
  -1  -7  12    3.48    0.38 
  -1   7 -12    3.61    0.26 
   3   7 -12    2.30    0.30 
   3  -7  12    2.06    0.33 
  -3   7  12    2.28    0.28 
  -3  -7 -12    1.87    0.30 
  -3   7 -12    1.85    0.25 
   3  -7 -12    1.87    0.29 
  -3  -7  12    1.94    0.30 
  -3   7 -12    1.87    0.28 
   5  -7  12    1.63    0.34 
   5   7 -12    2.29    0.31 
   5   7 -12    1.70    0.33 
  -5   7  12    2.16    0.31 
  -5  -7 -12    2.17    0.35 
   5  -7 -12    1.93    0.29 
  -5   7 -12    1.76    0.32 
   5  -7 -12    1.63    0.28 
   0   8 -12    4.12    0.28 
   0   8 -12    3.74    0.38 
   0  -8  12    3.91    0.42 
   0  -8 -12    4.04    0.41 
   2   8 -12    0.55    0.21 
  -2  -8 -12    0.79    0.23 
  -2   8  12    0.66    0.19 
   2  -8  12    0.30    0.22 
  -2   8 -12    0.40    0.16 
  -2  -8  12    0.94    0.25 
  -2   8 -12    0.42    0.16 
   2  -8 -12    0.60    0.22 
   4   8 -12    0.95    0.24 
   4  -8  12    1.13    0.30 
  -4  -8 -12    1.12    0.26 
  -4   8  12    1.47    0.27 
  -4  -8  12    1.12    0.27 
   4  -8 -12    1.27    0.28 
  -4   8 -12    2.01    0.33 
  -1  -9 -12    5.57    0.50 
   1   9 -12    6.17    0.45 
   1  -9  12    5.64    0.52 
  -1   9 -12    5.15    0.36 
  -1  -9  12    5.30    0.49 
  -1   9 -12    5.03    0.45 
   1  -9 -12    5.76    0.50 
  -3   9  12    1.94    0.30 
   3  -9  12    1.85    0.37 
   3   9 -12    1.95    0.32 
  -3  -9 -12    1.82    0.32 
  -3   9 -12    1.70    0.29 
  -3   9 -12    1.96    0.31 
  -3  -9  12    2.41    0.38 
   3  -9 -12    1.40    0.29 
  -5   9  12    0.19    0.19 
   5  -9  12    0.60    0.29 
  -5  -9 -12    0.73    0.24 
   5   9 -12    1.19    0.28 
  -5   9 -12    0.95    0.28 
  -5  -9  12    0.73    0.27 
   0 -10 -12    5.09    0.51 
   0 -10  12    6.65    0.50 
   0  10 -12    5.44    0.49 
  -2  10  12    1.54    0.29 
   2 -10  12    1.23    0.31 
   2  10 -12    1.65    0.32 
  -2 -10 -12    1.27    0.31 
  -2  10 -12    1.41    0.26 
  -2  10 -12    1.43    0.28 
  -2 -10  12    1.13    0.31 
   2 -10 -12    1.53    0.34 
  -4 -10 -12    0.62    0.25 
  -4  10  12    0.92    0.25 
   4 -10  12    0.81    0.32 
   4  10 -12    0.62    0.28 
  -4  10 -12    0.27    0.21 
  -4 -10  12    0.43    0.25 
   4 -10 -12    0.14    0.23 
  -1 -11 -12    1.85    0.37 
   1 -11  12    1.64    0.36 
   1  11 -12    1.75    0.34 
  -1  11 -12    1.68    0.31 
  -1  11 -12    1.98    0.29 
  -1 -11  12    2.13    0.39 
   1 -11 -12    1.59    0.37 
  -1   0 -13   33.69    0.81 
  -1   0 -13   34.98    0.77 
   1   0  13   34.01    0.72 
   1   0 -13   34.37    0.63 
   1   0 -13   32.88    0.75 
   1   0 -13   32.35    0.82 
   3   0  13   27.05    0.66 
   3   0 -13   26.12    0.75 
  -3   0 -13   26.84    0.76 
   3   0 -13   28.14    0.76 
  -3   0 -13   28.69    0.68 
   5   0  13    5.98    0.33 
   5   0 -13    6.91    0.43 
   5   0 -13    6.32    0.35 
  -5   0 -13    6.73    0.45 
   7   0 -13    3.41    0.42 
  -7   0 -13    2.30    0.38 
   0   1 -13   38.71    0.75 
   0   1  13   38.90    0.76 
   0  -1  13   37.54    0.83 
   0   1 -13   37.54    0.89 
   0  -1 -13   37.55    0.90 
   0  -1 -13   38.77    0.80 
   2   1 -13   21.04    0.63 
  -2  -1 -13   21.58    0.62 
   2   1 -13   21.00    0.62 
  -2  -1 -13   20.48    0.60 
   2  -1  13   20.63    0.57 
   2  -1 -13   21.97    0.59 
   2   1  13   21.02    0.48 
   2  -1 -13   21.87    0.65 
  -2   1 -13   20.64    0.60 
  -2   1 -13   21.30    0.59 
  -4  -1 -13    9.64    0.49 
  -4  -1 -13   10.51    0.38 
   4  -1  13    9.99    0.41 
   4   1 -13   10.30    0.49 
   4   1 -13   10.02    0.44 
   4  -1 -13    9.95    0.47 
   4  -1 -13   10.38    0.43 
   4   1  13    9.95    0.36 
  -4   1 -13   10.02    0.48 
   6  -1  13    3.21    0.32 
   6   1 -13    4.17    0.42 
  -6  -1 -13    2.92    0.38 
  -6   1 -13    2.54    0.35 
   6  -1 -13    2.75    0.35 
  -1  -2 -13   24.38    0.66 
   1   2 -13   24.62    0.45 
   1  -2  13   23.87    0.65 
   1   2 -13   23.86    0.69 
  -1  -2 -13   24.35    0.68 
  -1   2 -13   25.44    0.67 
   1   2  13   24.86    0.47 
   1  -2 -13   24.61    0.71 
  -1  -2  13   24.91    0.68 
  -1   2 -13   25.77    0.62 
   1  -2 -13   24.69    0.56 
   3  -2  13   14.70    0.51 
   3   2 -13   15.12    0.54 
   3   2 -13   13.97    0.54 
  -3  -2 -13   14.65    0.49 
  -3  -2 -13   13.90    0.55 
  -3   2 -13   13.70    0.45 
   3  -2 -13   13.59    0.52 
  -3   2 -13   13.53    0.52 
   3  -2 -13   14.22    0.50 
   5   2 -13    2.87    0.28 
  -5  -2 -13    2.32    0.34 
   5  -2  13    2.09    0.27 
   5   2 -13    3.06    0.35 
  -5   2 -13    2.36    0.33 
   5  -2 -13    2.43    0.26 
   5  -2 -13    2.52    0.30 
   7  -2  13    0.74    0.23 
  -7  -2 -13    1.07    0.30 
   7   2 -13    0.76    0.26 
   7  -2 -13    0.73    0.24 
  -7   2 -13    0.83    0.28 
   0   3 -13   38.48    0.92 
   0   3 -13   37.43    0.76 
   0  -3 -13   37.89    0.94 
   0  -3  13   38.89    0.92 
  -2  -3 -13   16.51    0.57 
   2   3 -13   16.13    0.58 
   2  -3  13   16.56    0.57 
  -2  -3 -13   17.59    0.59 
   2   3 -13   16.27    0.57 
   2  -3 -13   16.62    0.48 
   2  -3 -13   16.13    0.58 
  -2   3 -13   16.52    0.53 
  -2   3 -13   16.53    0.54 
  -4  -3 -13    7.81    0.38 
   4  -3  13    8.19    0.43 
   4   3 -13    8.41    0.41 
   4   3 -13    6.82    0.42 
  -4  -3 -13    7.58    0.44 
   4  -3 -13    8.32    0.42 
   4  -3 -13    7.44    0.40 
  -4   3 -13    8.08    0.45 
   6   3 -13    2.04    0.28 
   6  -3  13    1.89    0.29 
   6   3 -13    2.37    0.34 
  -6  -3 -13    2.26    0.35 
  -6   3 -13    2.09    0.35 
   6  -3 -13    2.05    0.32 
   1  -4  13   18.88    0.63 
   1   4 -13   18.49    0.61 
  -1  -4 -13   18.69    0.63 
  -1   4 -13   19.57    0.61 
   1  -4 -13   18.95    0.65 
  -1   4 -13   18.95    0.54 
  -1  -4  13   18.88    0.63 
  -3  -4 -13   13.95    0.58 
  -3  -4 -13   13.61    0.53 
   3   4 -13   13.77    0.55 
   3   4 -13   14.34    0.59 
  -3   4  13   13.43    0.45 
   3  -4  13   13.69    0.56 
  -3   4 -13   13.19    0.47 
  -3   4 -13   14.06    0.55 
   3  -4 -13   13.39    0.54 
   3  -4 -13   13.19    0.47 
   5  -4  13    3.14    0.37 
   5   4 -13    4.25    0.42 
  -5  -4 -13    4.05    0.42 
   5   4 -13    3.91    0.36 
   5  -4 -13    3.41    0.33 
   5  -4 -13    4.06    0.39 
  -5   4 -13    3.96    0.40 
   7  -4  13    1.02    0.26 
  -7  -4 -13    1.20    0.33 
   7   4 -13    1.33    0.32 
  -7   4 -13    1.01    0.28 
   7  -4 -13    0.98    0.27 
   0   5 -13   19.15    0.64 
   0  -5  13   19.98    0.67 
   0   5 -13   18.36    0.50 
   0  -5 -13   18.28    0.64 
   2   5 -13   12.24    0.52 
  -2  -5 -13   12.61    0.52 
   2  -5  13   12.41    0.55 
  -2  -5  13   12.40    0.55 
  -2   5 -13   12.43    0.48 
  -2   5 -13   11.60    0.47 
   2  -5 -13   12.19    0.54 
  -4   5  13    7.80    0.39 
   4   5 -13    8.52    0.46 
   4   5 -13    9.03    0.51 
   4  -5  13    9.00    0.51 
  -4  -5 -13    8.71    0.51 
  -4  -5 -13    8.30    0.43 
   4  -5 -13    8.65    0.42 
   4  -5 -13    9.26    0.47 
  -4   5 -13    9.01    0.50 
   6  -5  13    3.46    0.41 
  -6  -5 -13    2.86    0.38 
   6   5 -13    2.51    0.38 
   6   5 -13    2.52    0.32 
   6  -5 -13    2.82    0.36 
  -6   5 -13    2.62    0.40 
  -1  -6 -13    7.74    0.44 
   1   6 -13    8.12    0.44 
   1  -6  13    7.71    0.46 
  -1   6 -13    7.48    0.41 
  -1  -6  13    7.80    0.46 
   1  -6 -13    7.46    0.44 
  -1   6 -13    7.64    0.36 
  -3  -6 -13    6.54    0.42 
   3  -6  13    7.84    0.49 
  -3   6  13    6.34    0.36 
   3   6 -13    6.58    0.43 
  -3   6 -13    6.87    0.38 
   3  -6 -13    7.74    0.46 
  -3   6 -13    6.40    0.41 
  -3  -6  13    7.21    0.46 
   5   6 -13    1.44    0.30 
  -5  -6 -13    1.52    0.29 
   5   6 -13    1.45    0.26 
   5  -6  13    1.32    0.30 
  -5   6 -13    1.63    0.30 
   5  -6 -13    1.33    0.25 
   5  -6 -13    1.60    0.26 
   0   7 -13   12.12    0.45 
   0  -7 -13   12.81    0.59 
   0  -7  13   12.70    0.59 
   0   7 -13   12.14    0.56 
  -2  -7 -13    7.97    0.48 
   2  -7  13    8.45    0.52 
  -2   7  13    9.40    0.46 
   2   7 -13    8.34    0.48 
  -2   7 -13    9.14    0.45 
  -2  -7  13    8.24    0.51 
   2  -7 -13    8.78    0.50 
  -2   7 -13    8.60    0.45 
  -4   7  13    3.98    0.37 
   4  -7  13    4.30    0.46 
  -4  -7 -13    3.11    0.34 
   4   7 -13    4.03    0.41 
  -4   7 -13    3.75    0.40 
  -4  -7  13    3.67    0.40 
   4  -7 -13    3.76    0.39 
   6   7 -13    0.67    0.27 
   6   7 -13    0.47    0.21 
  -6  -7 -13    0.70    0.26 
   6  -7  13    0.79    0.29 
  -6   7 -13    1.02    0.32 
  -1  -8 -13    6.62    0.47 
   1  -8  13    6.61    0.46 
   1   8 -13    6.88    0.46 
  -1  -8  13    6.43    0.48 
  -1   8 -13    6.65    0.38 
  -1   8 -13    5.85    0.41 
   1  -8 -13    5.86    0.49 
  -3  -8 -13    4.17    0.42 
  -3   8  13    4.70    0.41 
   3  -8  13    3.91    0.46 
   3   8 -13    4.30    0.43 
  -3   8 -13    4.82    0.40 
  -3   8 -13    4.30    0.41 
   3  -8 -13    4.71    0.44 
  -3  -8  13    4.42    0.46 
   5   8 -13    0.90    0.23 
   5  -8  13    0.81    0.29 
  -5  -8 -13    0.53    0.22 
  -5  -8  13    0.75    0.26 
  -5   8 -13    0.91    0.29 
   5  -8 -13    0.58    0.24 
   0   9 -13    6.69    0.46 
   0  -9 -13    6.70    0.51 
   0  -9  13    6.05    0.54 
  -2  -9 -13    3.97    0.43 
   2  -9  13    4.43    0.48 
   2   9 -13    4.14    0.43 
  -2  -9  13    4.93    0.49 
   2  -9 -13    4.25    0.46 
  -2   9 -13    4.22    0.41 
  -2   9 -13    3.85    0.38 
  -4   9  13    2.44    0.34 
   4  -9  13    2.83    0.43 
   4   9 -13    2.88    0.39 
  -4  -9 -13    3.00    0.38 
  -4  -9  13    1.63    0.34 
  -4   9 -13    2.01    0.34 
   4  -9 -13    2.37    0.35 
   1  10 -13    2.79    0.38 
   1 -10  13    1.69    0.38 
  -1 -10 -13    2.75    0.41 
   1 -10 -13    2.83    0.41 
  -1  10 -13    2.19    0.33 
  -1 -10  13    2.86    0.42 
  -1  10 -13    2.33    0.30 
   3  10 -13    1.45    0.31 
  -3 -10 -13    1.84    0.36 
   3 -10  13    1.88    0.38 
  -3  10  13    3.08    0.39 
  -3 -10  13    1.69    0.37 
  -3  10 -13    1.65    0.31 
  -3  10 -13    1.21    0.27 
   3 -10 -13    2.09    0.37 
   0 -11 -13    3.14    0.46 
   0 -11  13    2.34    0.42 
   0  11 -13    2.40    0.39 
   2 -11  13    1.08    0.35 
  -2 -11 -13    1.57    0.35 
   2  11 -13    0.86    0.28 
  -2 -11  13    1.51    0.36 
   2 -11 -13    1.49    0.35 
  -2  11 -13    1.77    0.32 
  -2  11 -13    1.76    0.32 
   0   0 -14   65.65    1.19 
   0   0 -14   61.66    1.32 
   0   0  14   65.83    1.22 
  -2   0 -14    0.26    0.13 
   2   0 -14    0.06    0.14 
   2   0  14   -0.17    0.10 
   2   0 -14    0.39    0.13 
  -2   0 -14   -0.18    0.10 
   4   0 -14    9.14    0.42 
   4   0  14    9.87    0.38 
   4   0 -14    8.75    0.44 
  -4   0 -14    8.03    0.44 
   6   0 -14    0.32    0.18 
  -6   0 -14    0.25    0.22 
   1  -1  14   28.57    0.69 
   1   1 -14   27.95    0.53 
  -1  -1 -14   28.97    0.76 
  -1  -1 -14   28.06    0.70 
   1   1 -14   27.55    0.76 
  -1  -1  14   29.74    0.73 
   1  -1 -14   27.67    0.65 
  -1   1 -14   28.91    0.68 
   1  -1 -14   28.97    0.61 
   1  -1 -14   27.48    0.77 
  -1   1 -14   27.32    0.74 
   1   1  14   29.34    0.61 
   3   1 -14    0.16    0.14 
   3   1 -14    0.22    0.14 
  -3  -1 -14    0.06    0.12 
   3  -1  14    0.15    0.12 
  -3  -1 -14    0.04    0.13 
  -3   1 -14    0.29    0.12 
  -3   1 -14    0.46    0.17 
   3   1  14    0.29    0.10 
   3  -1 -14    0.12    0.13 
   3  -1 -14    0.21    0.15 
   5   1 -14   10.76    0.55 
  -5  -1 -14   11.65    0.57 
   5  -1  14   10.31    0.45 
   5   1 -14   10.43    0.47 
   5  -1 -14   10.59    0.53 
  -5   1 -14    9.97    0.55 
   5  -1 -14   11.38    0.48 
  -7  -1 -14    0.58    0.27 
   7   1 -14    0.85    0.26 
   7  -1 -14    1.13    0.28 
  -7   1 -14    0.66    0.28 
   0  -2 -14   20.21    0.64 
   0   2  14   20.19    0.45 
   0  -2  14   20.33    0.59 
   0   2 -14   20.99    0.48 
   0   2 -14   19.78    0.62 
   2   2 -14    3.12    0.30 
   2   2 -14    3.34    0.31 
   2  -2  14    4.06    0.29 
  -2  -2 -14    3.90    0.31 
  -2  -2 -14    4.48    0.30 
  -2   2 -14    3.71    0.28 
  -2   2 -14    4.27    0.29 
   2  -2 -14    3.85    0.25 
   2  -2 -14    3.38    0.32 
   4   2 -14    1.08    0.21 
  -4  -2 -14    1.15    0.22 
   4  -2  14    1.71    0.24 
   4   2 -14    1.37    0.22 
  -4  -2 -14    1.63    0.20 
   4  -2 -14    1.31    0.22 
   4  -2 -14    1.47    0.23 
  -4   2 -14    1.34    0.24 
   6   2 -14    0.09    0.19 
  -6  -2 -14    0.32    0.23 
   6  -2  14    0.64    0.21 
  -6   2 -14    0.13    0.22 
   6  -2 -14    0.20    0.18 
   1   3 -14   22.23    0.69 
  -1  -3 -14   22.18    0.69 
   1  -3  14   22.29    0.67 
  -1   3 -14   22.05    0.66 
   1  -3 -14   21.67    0.51 
   1  -3 -14   22.40    0.70 
  -1  -3  14   22.17    0.68 
  -1   3 -14   22.02    0.59 
   3   3 -14    1.02    0.22 
   3  -3  14    1.46    0.24 
  -3  -3 -14    0.98    0.19 
   3   3 -14    1.00    0.20 
  -3  -3 -14    0.90    0.20 
   3  -3 -14    0.89    0.17 
  -3   3 -14    0.92    0.18 
  -3   3 -14    0.83    0.16 
   3  -3 -14    1.40    0.24 
   5  -3  14    7.16    0.43 
   5   3 -14    6.56    0.41 
  -5  -3 -14    7.45    0.49 
   5   3 -14    7.66    0.49 
  -5   3 -14    6.32    0.45 
   5  -3 -14    7.25    0.41 
   5  -3 -14    7.36    0.44 
   7  -3  14    0.46    0.21 
  -7  -3 -14    0.25    0.24 
   7   3 -14   -0.06    0.20 
  -7   3 -14    0.35    0.25 
   7  -3 -14    0.44    0.22 
   0  -4  14   32.42    0.87 
   0  -4 -14   32.97    0.89 
   0   4 -14   32.41    0.70 
   0   4 -14   31.17    0.85 
   2  -4  14    1.32    0.24 
  -2  -4 -14    1.62    0.25 
   2   4 -14    1.55    0.24 
   2  -4 -14    1.62    0.17 
  -2   4 -14    1.52    0.21 
  -2   4 -14    1.66    0.22 
  -2  -4  14    1.80    0.25 
   2  -4 -14    1.52    0.23 
   4  -4  14    6.19    0.42 
  -4  -4 -14    6.84    0.38 
  -4  -4 -14    5.99    0.43 
   4   4 -14    5.99    0.39 
   4   4 -14    5.80    0.43 
  -4   4 -14    6.24    0.44 
   4  -4 -14    6.22    0.40 
   4  -4 -14    6.78    0.39 
   6   4 -14    0.15    0.17 
   6   4 -14    0.13    0.16 
  -6  -4 -14    0.44    0.25 
   6  -4  14    0.17    0.19 
   6  -4 -14    0.13    0.18 
  -6   4 -14    0.18    0.23 
   1   5 -14    9.12    0.46 
   1  -5  14    9.54    0.49 
  -1  -5 -14    8.79    0.47 
  -1   5 -14    9.04    0.38 
  -1   5 -14    8.87    0.43 
  -1  -5  14    9.40    0.47 
   1  -5 -14    9.18    0.47 
   3  -5  14    0.11    0.19 
  -3  -5 -14    0.23    0.16 
   3   5 -14    0.16    0.15 
  -3   5  14    0.32    0.13 
  -3   5 -14    0.17    0.13 
  -3   5 -14    0.35    0.18 
  -3  -5  14    0.19    0.17 
   3  -5 -14    0.09    0.16 
   5   5 -14    3.98    0.42 
  -5  -5 -14    3.22    0.40 
   5   5 -14    3.51    0.37 
   5  -5  14    3.41    0.40 
  -5   5 -14    3.59    0.42 
   5  -5 -14    3.73    0.37 
   5  -5 -14    3.51    0.37 
   0  -6  14    8.19    0.48 
   0  -6 -14    7.93    0.45 
   0   6 -14    8.58    0.34 
   0   6 -14    8.09    0.45 
   2  -6  14   -0.11    0.15 
   2   6 -14    0.18    0.16 
  -2  -6 -14   -0.30    0.13 
  -2   6 -14    0.24    0.13 
   2  -6 -14   -0.16    0.14 
  -2   6 -14    0.02    0.13 
  -2  -6  14   -0.01    0.16 
  -4  -6 -14    1.32    0.25 
   4  -6  14    1.33    0.29 
  -4  -6 -14    1.62    0.27 
   4   6 -14    1.07    0.24 
  -4   6 -14    1.37    0.27 
   4  -6 -14    1.19    0.25 
   6   6 -14   -0.06    0.14 
   6   6 -14   -0.22    0.17 
   6  -6  14    0.38    0.22 
  -6  -6 -14   -0.19    0.19 
  -6   6 -14    0.14    0.22 
   6  -6 -14    0.03    0.18 
  -1  -7 -14    7.88    0.49 
   1  -7  14    7.94    0.51 
   1   7 -14    8.13    0.47 
   1  -7 -14    8.33    0.48 
  -1  -7  14    8.26    0.49 
  -1   7 -14    8.11    0.39 
  -1   7 -14    9.03    0.48 
  -3   7  14    0.83    0.20 
  -3  -7 -14    0.81    0.24 
   3  -7  14    1.22    0.29 
   3   7 -14    0.68    0.22 
  -3  -7  14    0.81    0.24 
  -3   7 -14    0.83    0.21 
  -3   7 -14    1.31    0.23 
   3  -7 -14    0.88    0.25 
   5  -7  14    2.81    0.41 
   5   7 -14    2.95    0.38 
  -5  -7 -14    3.00    0.39 
  -5  -7  14    2.83    0.40 
  -5   7 -14    2.76    0.40 
   5  -7 -14    2.85    0.36 
   0   8 -14    7.64    0.48 
   0  -8 -14    7.54    0.50 
   0  -8  14    8.21    0.53 
   2  -8  14    1.95    0.35 
  -2  -8 -14    1.90    0.32 
   2   8 -14    2.47    0.34 
  -2   8 -14    2.29    0.28 
  -2   8 -14    1.40    0.24 
  -2  -8  14    2.07    0.33 
   2  -8 -14    1.74    0.32 
   4   8 -14    1.89    0.31 
  -4  -8 -14    2.35    0.35 
   4  -8  14    2.01    0.38 
  -4   8  14    2.10    0.30 
   4  -8 -14    2.14    0.35 
  -4  -8  14    1.73    0.34 
  -4   8 -14    2.00    0.33 
   1   9 -14    2.93    0.38 
   1  -9  14    3.27    0.44 
  -1  -9 -14    2.56    0.38 
   1  -9 -14    3.43    0.42 
  -1   9 -14    2.75    0.35 
  -1  -9  14    2.43    0.37 
  -1   9 -14    3.50    0.34 
   3  -9  14    0.64    0.29 
  -3   9  14    0.50    0.21 
  -3  -9 -14    0.79    0.27 
   3   9 -14    0.90    0.27 
  -3   9 -14    0.74    0.23 
   3  -9 -14    0.65    0.26 
  -3  -9  14    0.72    0.27 
  -3   9 -14    0.79    0.23 
   0  10 -14    1.01    0.27 
   0 -10 -14    1.89    0.38 
   0 -10  14    1.52    0.35 
   2 -10  14    0.44    0.29 
   2  10 -14    0.74    0.27 
  -2 -10 -14    0.91    0.28 
  -2 -10  14    0.69    0.30 
  -2  10 -14    0.70    0.23 
  -2  10 -14    0.77    0.24 
   2 -10 -14    0.90    0.30 
   1 -11  14    2.78    0.45 
  -1 -11 -14    2.43    0.42 
   1  11 -14    2.40    0.37 
  -1  11 -14    1.52    0.32 
   1 -11 -14    3.05    0.46 
  -1 -11  14    2.14    0.41 
  -1   0  15    2.51    0.23 
  -1   0 -15    2.21    0.22 
   1   0  15    2.45    0.21 
   1   0 -15    2.45    0.28 
   1   0 -15    2.54    0.15 
  -1   0 -15    2.20    0.25 
   3   0 -15    0.17    0.13 
  -3   0 -15    0.20    0.14 
  -3   0 -15   -0.08    0.11 
   3   0  15    0.11    0.11 
   3   0 -15    0.09    0.13 
  -5   0 -15    4.20    0.43 
   5   0 -15    4.98    0.35 
   5   0 -15    4.27    0.40 
   7   0 -15   -0.11    0.17 
  -7   0 -15   -0.32    0.21 
   0   1 -15   40.32    0.99 
   0  -1 -15   41.30    0.86 
   0   1 -15   41.76    0.82 
   0  -1  15   40.51    0.91 
   0   1  15   40.48    0.83 
   0  -1 -15   41.14    1.00 
   2  -1  15    0.81    0.17 
   2   1 -15    0.57    0.17 
  -2  -1 -15    0.49    0.15 
  -2  -1 -15    0.79    0.19 
   2   1 -15    0.37    0.15 
   2  -1 -15    0.25    0.17 
  -2   1 -15    0.71    0.16 
  -2   1 -15    0.81    0.17 
   2   1  15    0.78    0.13 
   2  -1 -15    0.46    0.14 
  -4  -1 -15    9.13    0.50 
   4  -1  15   10.49    0.43 
   4   1 -15    9.58    0.46 
   4   1 -15    9.61    0.49 
  -4   1 -15    9.70    0.50 
   4  -1 -15   10.29    0.47 
   4  -1 -15    9.85    0.47 
   6   1 -15    0.41    0.21 
  -6  -1 -15    1.14    0.29 
  -6   1 -15    0.84    0.27 
   6  -1 -15    1.07    0.26 
   1  -2  15    6.82    0.35 
  -1  -2 -15    6.55    0.34 
   1   2 -15    7.41    0.38 
  -1  -2 -15    7.39    0.40 
  -1   2 -15    6.95    0.31 
  -1   2 -15    6.43    0.36 
  -1  -2  15    6.81    0.36 
   1  -2 -15    6.80    0.27 
   1  -2 -15    7.23    0.41 
   3   2 -15    0.05    0.14 
   3  -2  15    0.09    0.14 
   3   2 -15   -0.10    0.12 
  -3  -2 -15    0.30    0.16 
  -3  -2 -15    0.14    0.14 
   3  -2 -15    0.15    0.11 
  -3   2 -15    0.13    0.12 
  -3   2 -15    0.52    0.18 
   3  -2 -15   -0.03    0.14 
   5  -2  15    5.40    0.36 
   5   2 -15    5.54    0.41 
   5   2 -15    5.73    0.37 
  -5  -2 -15    5.58    0.49 
   5  -2 -15    5.27    0.36 
  -5   2 -15    5.59    0.43 
   5  -2 -15    5.59    0.39 
   7   2 -15    0.22    0.20 
  -7  -2 -15   -0.24    0.17 
   7  -2 -15   -0.26    0.16 
  -7   2 -15    0.33    0.25 
   0  -3  15   19.81    0.63 
   0  -3 -15   20.06    0.67 
   0   3 -15   19.64    0.49 
   0   3 -15   19.66    0.65 
  -2  -3 -15    2.36    0.27 
   2  -3  15    2.15    0.27 
   2   3 -15    2.46    0.28 
  -2  -3 -15    2.09    0.26 
  -2  -3  15    2.00    0.26 
  -2   3 -15    2.62    0.26 
  -2   3 -15    2.48    0.26 
   2  -3 -15    2.14    0.21 
   2  -3 -15    1.89    0.26 
  -4  -3 -15    4.05    0.33 
   4   3 -15    4.05    0.40 
   4   3 -15    4.67    0.35 
  -4  -3 -15    4.70    0.43 
   4  -3  15    4.18    0.37 
  -4   3 -15    4.19    0.38 
   4  -3 -15    4.14    0.32 
   4  -3 -15    3.68    0.35 
   6   3 -15    0.31    0.21 
  -6  -3 -15    0.06    0.21 
   6   3 -15    0.11    0.15 
   6  -3  15    0.08    0.19 
   6  -3 -15    0.14    0.17 
  -6   3 -15    0.67    0.26 
  -1  -4 -15    0.20    0.17 
   1  -4  15    0.26    0.15 
   1   4 -15    0.21    0.15 
  -1  -4  15    0.14    0.16 
  -1   4 -15    0.32    0.13 
  -1   4 -15    0.16    0.13 
   1  -4 -15    0.39    0.19 
  -3  -4 -15    0.08    0.16 
   3  -4  15    0.47    0.20 
   3   4 -15    0.34    0.16 
  -3  -4 -15    0.18    0.17 
   3   4 -15    0.47    0.16 
   3  -4 -15    0.31    0.18 
   3  -4 -15    0.24    0.12 
  -3   4 -15    0.42    0.14 
  -3   4 -15    0.68    0.19 
   5   4 -15    1.56    0.26 
   5  -4  15    1.86    0.29 
  -5  -4 -15    1.62    0.31 
   5   4 -15    1.96    0.31 
  -5   4 -15    1.35    0.28 
   5  -4 -15    1.42    0.25 
   5  -4 -15    1.70    0.27 
   0  -5 -15   20.35    0.72 
   0   5 -15   19.83    0.69 
   0  -5  15   18.37    0.68 
   2   5 -15    1.45    0.24 
   2  -5  15    0.86    0.24 
  -2  -5 -15    0.77    0.21 
  -2   5 -15    0.94    0.20 
  -2  -5  15    0.97    0.23 
  -2   5 -15    0.99    0.20 
   2  -5 -15    0.91    0.21 
   4   5 -15    7.42    0.48 
  -4  -5 -15    8.18    0.51 
   4   5 -15    8.34    0.47 
  -4  -5 -15    7.65    0.43 
   4  -5  15    8.39    0.51 
  -4   5 -15    7.49    0.48 
   4  -5 -15    7.62    0.46 
   6   5 -15    1.54    0.32 
   6   5 -15    0.72    0.22 
   6  -5  15    1.14    0.31 
  -6  -5 -15    1.12    0.28 
   6  -5 -15    1.28    0.28 
  -6   5 -15    1.25    0.31 
  -1  -6 -15    1.47    0.27 
   1   6 -15    1.91    0.27 
   1  -6  15    1.22    0.27 
  -1  -6  15    1.04    0.25 
   1  -6 -15    1.43    0.25 
  -1   6 -15    1.37    0.24 
  -1   6 -15    1.52    0.20 
   3   6 -15    0.43    0.18 
   3  -6  15    0.38    0.23 
  -3  -6 -15    0.48    0.20 
  -3  -6  15    0.15    0.18 
   3  -6 -15    0.59    0.21 
  -3   6 -15    0.43    0.17 
  -3   6 -15    0.96    0.22 
   5  -6  15    1.02    0.29 
  -5  -6 -15    0.98    0.27 
   5   6 -15    1.44    0.29 
   5   6 -15    1.21    0.24 
  -5   6 -15    1.38    0.30 
   5  -6 -15    1.01    0.25 
   0  -7  15    1.82    0.31 
   0  -7 -15    2.16    0.32 
   0   7 -15    1.78    0.28 
   2  -7  15    0.08    0.21 
  -2  -7 -15    0.31    0.19 
   2   7 -15    0.23    0.17 
  -2   7 -15   -0.02    0.13 
   2  -7 -15   -0.16    0.17 
  -2  -7  15   -0.11    0.14 
  -2   7 -15    0.20    0.15 
   4   7 -15    0.82    0.25 
  -4  -7 -15    0.51    0.21 
  -4  -7 -15    0.46    0.20 
   4  -7  15    0.66    0.27 
   4  -7 -15    0.49    0.22 
  -4   7 -15    0.24    0.20 
  -4  -7  15    0.69    0.23 
   1  -8  15    0.02    0.21 
   1   8 -15    0.22    0.18 
  -1  -8 -15    0.04    0.21 
  -1  -8  15   -0.06    0.19 
  -1   8 -15    0.19    0.16 
   1  -8 -15    0.04    0.20 
   3  -8  15    0.03    0.24 
   3   8 -15   -0.03    0.18 
  -3  -8 -15   -0.21    0.17 
  -3  -8  15   -0.11    0.20 
   3  -8 -15    0.17    0.22 
  -3   8 -15    0.36    0.19 
  -3   8 -15    0.11    0.16 
  -5  -8 -15   -0.05    0.15 
   5  -8  15   -0.12    0.23 
   5   8 -15    0.01    0.18 
  -5  -8  15    0.47    0.23 
  -5   8 -15   -0.02    0.22 
   5  -8 -15    0.38    0.22 
   0  -9  15    3.16    0.45 
   0   9 -15    3.67    0.40 
   0  -9 -15    4.10    0.44 
   2   9 -15    0.80    0.26 
  -2  -9 -15    0.94    0.29 
   2  -9  15    0.84    0.30 
   2  -9 -15    0.72    0.27 
  -2   9 -15    0.71    0.23 
  -2   9 -15    0.93    0.22 
  -2  -9  15    0.65    0.27 
  -4  -9 -15    1.23    0.29 
   4   9 -15    0.64    0.25 
   4  -9  15    1.14    0.35 
  -4  -9  15    1.26    0.33 
  -4   9 -15    1.25    0.30 
   4  -9 -15    1.44    0.34 
  -1 -10 -15    0.32    0.26 
   1 -10  15    0.13    0.26 
   1  10 -15    0.24    0.22 
  -1  10 -15    0.01    0.19 
   1 -10 -15    0.52    0.28 
  -1 -10  15    0.38    0.27 
   0   0 -16   38.14    0.97 
   0   0  16   37.47    0.84 
   0   0 -16   39.80    0.82 
   2   0 -16   27.32    0.81 
   2   0 -16   28.26    0.76 
  -2   0 -16   28.50    0.76 
   2   0  16   28.61    0.68 
  -2   0 -16   27.19    0.76 
   4   0 -16   15.45    0.60 
   4   0 -16   15.59    0.62 
  -4   0 -16   15.23    0.64 
  -6   0 -16    3.26    0.41 
   6   0 -16    2.37    0.35 
   1  -1  16   17.78    0.54 
   1   1 -16   18.41    0.63 
  -1  -1 -16   16.97    0.54 
  -1  -1 -16   16.96    0.60 
   1  -1 -16   17.31    0.62 
  -1   1 -16   17.31    0.52 
   1   1  16   17.18    0.45 
  -1   1 -16   16.91    0.59 
   1  -1 -16   18.45    0.45 
  -1  -1  16   17.41    0.56 
   3   1 -16   15.63    0.59 
  -3  -1 -16   15.76    0.55 
   3  -1  16   15.28    0.52 
   3   1 -16   14.60    0.58 
  -3  -1 -16   14.76    0.59 
  -3   1 -16   15.85    0.53 
   3  -1 -16   16.72    0.61 
  -3   1 -16   14.54    0.57 
   3  -1 -16   15.42    0.55 
  -5  -1 -16    3.56    0.41 
   5   1 -16    4.02    0.36 
   5   1 -16    3.72    0.38 
  -5   1 -16    3.54    0.39 
   5  -1 -16    3.13    0.35 
   5  -1 -16    4.11    0.36 
  -7  -1 -16    0.48    0.26 
   7   1 -16    0.56    0.25 
  -7   1 -16    0.50    0.27 
   7  -1 -16    0.64    0.26 
   0  -2 -16   16.33    0.50 
   0  -2 -16   15.36    0.59 
   0   2 -16   16.93    0.59 
   0   2 -16   16.26    0.43 
   0  -2  16   15.85    0.55 
  -2  -2 -16   10.96    0.47 
   2  -2  16   10.88    0.45 
  -2  -2 -16   11.07    0.47 
   2   2 -16   10.61    0.49 
   2   2 -16   10.73    0.47 
   2  -2 -16   11.19    0.41 
   2  -2 -16   11.24    0.51 
  -2   2 -16   11.31    0.45 
  -2   2 -16   10.51    0.45 
  -4  -2 -16    8.88    0.51 
  -4  -2 -16    8.97    0.43 
   4   2 -16    9.60    0.48 
   4  -2  16   10.21    0.46 
   4   2 -16   10.70    0.54 
   4  -2 -16    8.28    0.43 
   4  -2 -16    8.93    0.47 
  -4   2 -16   10.09    0.52 
   6   2 -16    3.55    0.42 
  -6  -2 -16    2.88    0.41 
   6  -2  16    3.38    0.36 
   6   2 -16    2.75    0.32 
   6  -2 -16    2.91    0.37 
  -6   2 -16    2.98    0.41 
   1  -3  16    9.13    0.43 
   1   3 -16   10.08    0.47 
  -1  -3 -16    9.75    0.48 
  -1  -3 -16    9.49    0.42 
  -1   3 -16    9.72    0.38 
  -1   3 -16    9.30    0.44 
   1  -3 -16    9.39    0.48 
  -1  -3  16    9.55    0.45 
   3   3 -16    8.68    0.46 
  -3  -3 -16    8.33    0.44 
   3  -3  16    9.06    0.46 
   3   3 -16    8.79    0.48 
  -3  -3 -16    8.94    0.48 
   3  -3 -16    9.10    0.40 
  -3   3 -16    9.40    0.42 
   3  -3 -16    8.94    0.48 
  -3   3 -16    9.25    0.45 
   5  -3  16    3.73    0.37 
   5   3 -16    3.61    0.41 
   5   3 -16    3.67    0.36 
  -5  -3 -16    3.74    0.42 
  -5   3 -16    4.06    0.43 
   5  -3 -16    4.06    0.37 
   5  -3 -16    3.55    0.37 
   0   4 -16   23.09    0.75 
   0  -4  16   23.15    0.75 
   0  -4 -16   23.97    0.78 
  -2  -4 -16   13.21    0.56 
  -2  -4 -16   13.39    0.56 
   2  -4  16   13.46    0.57 
   2   4 -16   13.32    0.57 
  -2  -4  16   13.82    0.59 
   2  -4 -16   12.85    0.57 
  -2   4 -16   12.85    0.53 
  -2   4 -16   14.32    0.53 
   4   4 -16    9.76    0.55 
  -4  -4 -16    9.13    0.46 
  -4  -4 -16    9.57    0.54 
   4  -4  16    9.12    0.50 
   4   4 -16    9.20    0.50 
   4  -4 -16    9.90    0.46 
   4  -4 -16    9.21    0.50 
  -4   4 -16    9.80    0.53 
  -6  -4 -16    1.86    0.36 
   6  -4  16    2.11    0.33 
   6   4 -16    1.85    0.30 
   6   4 -16    2.12    0.36 
  -6   4 -16    2.20    0.37 
   6  -4 -16    2.39    0.36 
  -1  -5 -16   17.64    0.68 
   1   5 -16   18.97    0.69 
   1  -5  16   17.99    0.69 
  -1   5 -16   17.87    0.55 
  -1   5 -16   17.13    0.64 
  -1  -5  16   17.62    0.69 
   1  -5 -16   17.56    0.69 
   3  -5  16   12.63    0.60 
  -3  -5 -16   12.66    0.56 
  -3  -5 -16   12.62    0.60 
   3   5 -16   13.89    0.60 
  -3   5 -16   12.32    0.56 
  -3   5 -16   11.21    0.50 
  -3  -5  16   12.35    0.61 
   3  -5 -16   13.29    0.60 
   5   5 -16    3.15    0.41 
   5  -5  16    3.34    0.40 
   5   5 -16    3.25    0.36 
  -5  -5 -16    3.28    0.41 
  -5   5 -16    3.17    0.40 
   5  -5 -16    3.18    0.36 
   0   6 -16   10.98    0.54 
   0  -6 -16   11.21    0.57 
   0  -6  16    9.52    0.52 
  -2  -6 -16    7.18    0.47 
   2   6 -16    7.74    0.48 
   2  -6  16    6.89    0.48 
  -2   6 -16    7.82    0.45 
  -2   6 -16    8.73    0.44 
  -2  -6  16    8.27    0.52 
   2  -6 -16    6.78    0.45 
   4  -6  16    4.46    0.45 
  -4  -6 -16    4.76    0.48 
   4   6 -16    5.70    0.43 
  -4  -6 -16    4.47    0.41 
   4  -6 -16    5.40    0.46 
  -4  -6  16    4.69    0.47 
  -4   6 -16    4.70    0.45 
   1   7 -16    5.12    0.45 
  -1  -7 -16    3.21    0.39 
   1  -7  16    4.02    0.43 
  -1   7 -16    4.06    0.39 
  -1  -7  16    4.14    0.45 
   1  -7 -16    4.14    0.44 
   3   7 -16    4.79    0.47 
  -3  -7 -16    3.67    0.39 
   3  -7  16    3.44    0.43 
   3  -7 -16    4.05    0.43 
  -3   7 -16    4.20    0.38 
  -3  -7  16    4.33    0.45 
  -3   7 -16    4.55    0.42 
  -5  -7 -16    1.55    0.33 
   5   7 -16    1.17    0.28 
   5  -7  16    1.73    0.35 
  -5  -7  16    1.31    0.29 
  -5   7 -16    0.82    0.29 
   5  -7 -16    2.00    0.32 
   0  -8 -16    5.63    0.52 
   0   8 -16    5.81    0.45 
   0  -8  16    4.95    0.50 
   2  -8  16    2.73    0.41 
   2   8 -16    3.50    0.41 
  -2  -8 -16    3.24    0.41 
  -2   8 -16    4.15    0.41 
  -2   8 -16    3.09    0.34 
   2  -8 -16    4.04    0.45 
  -2  -8  16    3.62    0.44 
   4  -8  16    2.03    0.39 
  -4  -8 -16    2.30    0.35 
   4   8 -16    2.43    0.37 
  -4  -8 -16    2.13    0.35 
  -4   8 -16    2.41    0.37 
  -4  -8  16    1.48    0.32 
   4  -8 -16    2.33    0.37 
  -1  -9 -16    6.42    0.57 
   1   9 -16    7.56    0.53 
   1  -9  16    6.79    0.60 
   1  -9 -16    5.92    0.55 
  -1   9 -16    6.24    0.47 
  -1  -9  16    4.69    0.50 
   3   9 -16    4.00    0.46 
   3  -9  16    2.95    0.45 
  -3  -9 -16    3.64    0.44 
  -3   9 -16    3.70    0.40 
  -3  -9  16    3.52    0.46 
  -3   9 -16    3.92    0.42 
   3  -9 -16    3.40    0.44 
   0 -10  16    6.21    0.61 
   0 -10 -16    5.63    0.57 
   0  10 -16    7.31    0.54 
   2 -10  16    3.74    0.50 
   2  10 -16    3.82    0.47 
  -2 -10 -16    4.45    0.51 
  -2  10 -16    3.45    0.41 
  -2 -10  16    3.06    0.45 
   2 -10 -16    3.01    0.45 
   1   0 -17    2.54    0.29 
  -1   0 -17    3.37    0.31 
  -1   0  17    2.69    0.24 
  -1   0 -17    2.58    0.24 
   1   0  17    2.84    0.24 
   3   0 -17   -0.13    0.13 
  -3   0 -17   -0.03    0.12 
  -3   0 -17    0.05    0.14 
   3   0 -17    0.12    0.13 
  -5   0 -17   -0.05    0.17 
   5   0 -17   -0.07    0.14 
   5   0 -17    0.14    0.17 
   0   1  17   16.04    0.45 
   0  -1 -17   16.23    0.61 
   0  -1  17   15.68    0.52 
   0   1 -17   14.84    0.58 
   0  -1 -17   17.05    0.49 
   2  -1  17    1.64    0.22 
  -2  -1 -17    1.66    0.23 
   2   1 -17    1.73    0.23 
  -2  -1 -17    1.49    0.22 
   2   1 -17    1.67    0.26 
   2  -1 -17    1.90    0.27 
  -2   1 -17    1.79    0.23 
  -2   1 -17    1.65    0.22 
   2  -1 -17    2.01    0.22 
   4   1 -17    5.41    0.38 
  -4  -1 -17    4.95    0.44 
   4   1 -17    4.09    0.40 
  -4   1 -17    4.56    0.41 
   4  -1 -17    4.94    0.37 
   4  -1 -17    4.25    0.37 
   6   1 -17    0.04    0.17 
   6   1 -17    0.18    0.16 
  -6  -1 -17    0.02    0.21 
   6  -1 -17    0.01    0.18 
  -6   1 -17   -0.21    0.20 
   1  -2  17    1.80    0.23 
  -1  -2 -17    1.71    0.22 
   1   2 -17    1.80    0.26 
  -1  -2 -17    2.03    0.27 
  -1   2 -17    2.06    0.22 
  -1   2 -17    1.96    0.25 
  -1  -2  17    1.80    0.24 
   1  -2 -17    1.97    0.26 
   3   2 -17    0.59    0.18 
   3  -2  17    0.61    0.18 
   3   2 -17    0.55    0.18 
  -3  -2 -17    0.87    0.20 
  -3  -2 -17    0.63    0.19 
  -3   2 -17    0.82    0.20 
   3  -2 -17    1.01    0.19 
   3  -2 -17    0.55    0.19 
  -3   2 -17    0.50    0.16 
   5   2 -17    1.01    0.26 
  -5  -2 -17    0.89    0.24 
   5  -2  17    0.99    0.22 
   5   2 -17    0.91    0.21 
   5  -2 -17    1.25    0.24 
  -5   2 -17    1.02    0.27 
   5  -2 -17    0.58    0.19 
   0  -3 -17    2.51    0.30 
   0   3 -17    2.72    0.30 
   0  -3  17    2.51    0.28 
   2   3 -17    0.16    0.15 
  -2  -3 -17    0.26    0.15 
   2  -3  17    0.12    0.17 
  -2  -3 -17    0.16    0.16 
  -2   3 -17    0.25    0.14 
  -2   3 -17    0.10    0.12 
   2  -3 -17    0.04    0.14 
  -2  -3  17    0.05    0.14 
   4  -3  17    1.65    0.26 
   4   3 -17    2.08    0.32 
  -4  -3 -17    1.63    0.27 
   4   3 -17    1.71    0.27 
  -4  -3 -17    2.03    0.30 
   4  -3 -17    2.17    0.27 
  -4   3 -17    1.84    0.29 
   4  -3 -17    1.94    0.30 
   6  -3  17    0.13    0.19 
   6   3 -17   -0.06    0.20 
   6   3 -17    0.10    0.17 
  -6  -3 -17    0.14    0.23 
   6  -3 -17    0.39    0.19 
  -6   3 -17    0.04    0.21 
  -1  -4 -17    1.78    0.27 
   1  -4  17    1.58    0.27 
   1   4 -17    1.26    0.23 
  -1   4 -17    1.75    0.25 
  -1   4 -17    1.98    0.21 
   1  -4 -17    1.58    0.28 
  -1  -4  17    1.69    0.25 
   3   4 -17    0.35    0.17 
  -3  -4 -17    0.52    0.20 
  -3  -4 -17    0.46    0.20 
   3  -4  17    0.66    0.21 
  -3   4 -17    0.49    0.20 
  -3   4 -17    0.49    0.16 
  -3  -4  17    0.44    0.19 
   3  -4 -17    0.08    0.17 
   5   4 -17    0.03    0.18 
   5   4 -17    0.16    0.17 
   5  -4  17    0.18    0.19 
  -5  -4 -17    0.11    0.19 
   5  -4 -17    0.24    0.18 
  -5   4 -17    0.28    0.21 
   5  -4 -17    0.38    0.18 
   0  -5 -17   10.99    0.56 
   0  -5  17   11.10    0.55 
   0   5 -17   11.20    0.54 
   2   5 -17    4.49    0.41 
  -2  -5 -17    4.32    0.40 
   2  -5  17    3.74    0.39 
  -2   5 -17    3.67    0.35 
  -2  -5  17    3.80    0.39 
  -2   5 -17    3.73    0.33 
   2  -5 -17    3.89    0.40 
  -4  -5 -17    3.30    0.41 
   4  -5  17    2.37    0.35 
   4   5 -17    2.73    0.34 
  -4  -5 -17    3.24    0.35 
  -4   5 -17    3.33    0.39 
   4  -5 -17    3.61    0.38 
   6   5 -17    0.05    0.21 
  -6  -5 -17    0.12    0.19 
   6  -5  17    0.24    0.23 
   6   5 -17   -0.34    0.12 
  -6   5 -17   -0.13    0.21 
  -1  -6 -17    3.61    0.39 
   1  -6  17    4.14    0.42 
   1   6 -17    3.71    0.38 
  -1  -6  17    3.71    0.41 
   1  -6 -17    2.64    0.36 
  -1   6 -17    3.71    0.38 
   3   6 -17    1.26    0.25 
  -3  -6 -17    1.35    0.28 
  -3  -6 -17    1.23    0.25 
   3  -6  17    1.31    0.30 
   3  -6 -17    1.51    0.29 
  -3   6 -17    1.50    0.27 
  -3  -6  17    0.94    0.27 
  -3   6 -17    1.26    0.23 
   5  -6  17    0.91    0.28 
  -5  -6 -17    0.68    0.26 
   5   6 -17    0.78    0.25 
   5  -6 -17    0.62    0.25 
  -5   6 -17    0.86    0.28 
   0   7 -17    0.45    0.20 
   0  -7  17    0.87    0.25 
   0  -7 -17    0.23    0.19 
  -2  -7 -17   -0.13    0.17 
   2  -7  17   -0.25    0.20 
   2   7 -17   -0.07    0.16 
   2  -7 -17   -0.12    0.19 
  -2  -7  17    0.17    0.20 
  -2   7 -17    0.00    0.15 
  -2   7 -17    0.16    0.14 
  -4  -7 -17    0.22    0.22 
  -4  -7 -17    0.47    0.20 
   4  -7  17    0.28    0.25 
   4   7 -17    0.44    0.21 
  -4   7 -17    0.95    0.26 
  -4  -7  17    0.09    0.21 
   4  -7 -17   -0.01    0.19 
  -1  -8 -17    0.39    0.24 
   1   8 -17    0.24    0.21 
   1  -8  17    0.20    0.25 
  -1  -8  17    0.80    0.28 
   1  -8 -17    0.46    0.25 
  -1   8 -17    0.50    0.22 
   3  -8  17    0.36    0.27 
   3   8 -17    0.28    0.21 
  -3  -8 -17    0.25    0.23 
  -3  -8  17    0.26    0.24 
   3  -8 -17    0.12    0.23 
  -3   8 -17    0.43    0.21 
  -3   8 -17   -0.04    0.16 
   0  -9 -17    3.31    0.45 
   0  -9  17    2.48    0.42 
   0   9 -17    2.69    0.38 
   2   9 -17    2.50    0.38 
  -2  -9 -17    2.87    0.41 
   2  -9  17    1.75    0.38 
  -2  -9  17    2.51    0.43 
  -2   9 -17    2.36    0.35 
   2  -9 -17    2.19    0.39 
  -1 -10 -17    1.32    0.36 
   1 -10  17    1.56    0.38 
   1  10 -17    2.31    0.38 
  -1 -10  17    2.04    0.40 
  -1  10 -17    1.95    0.35 
   1 -10 -17    1.97    0.40 
   0   0 -18    8.88    0.45 
   0   0  18    8.02    0.35 
   2   0 -18    5.38    0.33 
  -2   0 -18    5.54    0.33 
   2   0 -18    5.36    0.38 
  -2   0 -18    5.82    0.36 
   4   0 -18    4.46    0.40 
   4   0 -18    5.06    0.39 
  -4   0 -18    4.75    0.43 
   6   0 -18    0.10    0.18 
   6   0 -18    0.18    0.19 
  -6   0 -18    0.32    0.22 
  -1  -1 -18    1.68    0.25 
   1  -1  18    1.31    0.20 
  -1  -1 -18    1.23    0.19 
   1   1 -18    0.73    0.20 
  -1   1  18    1.26    0.17 
  -1   1 -18    1.26    0.18 
  -1   1 -18    0.92    0.20 
  -1  -1  18    0.83    0.18 
   1  -1 -18    0.83    0.21 
   3   1 -18    3.90    0.35 
   3   1 -18    3.58    0.36 
  -3  -1 -18    4.09    0.34 
  -3  -1 -18    3.60    0.36 
  -3   1 -18    4.06    0.31 
   3  -1 -18    4.02    0.30 
   3  -1 -18    3.27    0.34 
  -3   1 -18    3.50    0.34 
   5   1 -18    0.19    0.16 
  -5  -1 -18    0.23    0.21 
   5   1 -18    0.32    0.20 
   5  -1 -18    0.13    0.16 
   5  -1 -18   -0.04    0.14 
  -5   1 -18    0.14    0.20 
   0  -2 -18    1.33    0.25 
   0  -2 -18    1.77    0.21 
   0   2 -18    1.38    0.23 
   0  -2  18    1.53    0.23 
   2  -2  18    1.73    0.24 
  -2  -2 -18    1.23    0.23 
  -2  -2 -18    1.18    0.22 
   2   2 -18    1.23    0.22 
  -2   2 -18    1.48    0.23 
  -2   2 -18    1.35    0.21 
  -2  -2  18    1.60    0.24 
   2  -2 -18    1.98    0.30 
  -4  -2 -18   -0.05    0.17 
   4   2 -18   -0.07    0.13 
   4   2 -18    0.02    0.14 
   4  -2  18    0.10    0.15 
   4  -2 -18    0.00    0.14 
  -4   2 -18    0.30    0.19 
   4  -2 -18    0.18    0.15 
  -6  -2 -18    0.25    0.24 
   6   2 -18    0.06    0.16 
   6   2 -18    0.14    0.21 
  -6   2 -18   -0.08    0.23 
   6  -2 -18   -0.01    0.15 
  -1  -3 -18   -0.12    0.15 
   1   3 -18    0.22    0.16 
  -1  -3 -18    0.23    0.14 
   1  -3  18    0.26    0.17 
  -1   3 -18    0.07    0.13 
  -1  -3  18    0.33    0.17 
   1  -3 -18    0.21    0.15 
   3   3 -18    1.81    0.28 
   3  -3  18    1.64    0.26 
  -3  -3 -18    1.41    0.26 
   3   3 -18    1.70    0.28 
  -3  -3 -18    1.84    0.27 
  -3   3 -18    1.54    0.26 
   3  -3 -18    1.72    0.28 
  -3   3 -18    1.82    0.25 
   5   3 -18   -0.01    0.15 
   5   3 -18   -0.04    0.18 
  -5  -3 -18    0.48    0.24 
   5  -3  18    0.32    0.19 
  -5   3 -18   -0.04    0.19 
   5  -3 -18    0.31    0.17 
   5  -3 -18    0.28    0.19 
   0  -4  18    2.02    0.29 
   0  -4 -18    2.94    0.36 
   0   4 -18    2.44    0.30 
   2   4 -18    0.91    0.22 
  -2  -4 -18    1.07    0.24 
  -2  -4 -18    1.32    0.25 
   2  -4  18    1.02    0.24 
   2  -4 -18    1.25    0.27 
  -2   4 -18    1.02    0.20 
  -2   4 -18    1.27    0.24 
  -2  -4  18    1.04    0.23 
   4   4 -18    1.95    0.30 
   4   4 -18    1.63    0.30 
  -4  -4 -18    1.53    0.30 
   4  -4  18    1.31    0.28 
  -4   4 -18    1.86    0.30 
   4  -4 -18    1.36    0.27 
   6   4 -18   -0.05    0.20 
  -6  -4 -18    0.06    0.23 
   6   4 -18   -0.12    0.14 
   6  -4  18    0.08    0.18 
  -6   4 -18    0.13    0.23 
  -1  -5 -18    2.26    0.32 
   1  -5  18    1.52    0.29 
   1   5 -18    2.07    0.29 
  -1  -5  18    1.73    0.28 
   1  -5 -18    1.33    0.26 
  -1   5 -18    1.82    0.27 
   3  -5  18    2.32    0.34 
  -3  -5 -18    2.75    0.33 
   3   5 -18    1.61    0.29 
  -3  -5 -18    1.86    0.31 
  -3   5 -18    2.69    0.31 
   3  -5 -18    2.82    0.36 
  -3   5 -18    2.26    0.31 
  -3  -5  18    2.26    0.34 
   5   5 -18    0.00    0.20 
   5  -5  18    0.30    0.23 
   5   5 -18   -0.05    0.17 
  -5  -5 -18    0.13    0.23 
   5  -5 -18   -0.18    0.17 
  -5   5 -18    0.44    0.25 
   0  -6  18    0.30    0.20 
   0   6 -18    0.51    0.20 
   0  -6 -18    0.33    0.22 
   2   6 -18    0.39    0.20 
  -2  -6 -18    0.16    0.19 
   2  -6  18    0.40    0.24 
  -2   6 -18    0.26    0.16 
   2  -6 -18    0.16    0.21 
  -2  -6  18   -0.06    0.16 
  -4  -6 -18   -0.19    0.14 
   4  -6  18   -0.21    0.20 
   4   6 -18    0.03    0.16 
  -4  -6 -18    0.18    0.18 
  -4   6 -18    0.00    0.20 
  -4  -6  18   -0.17    0.17 
   4  -6 -18   -0.02    0.21 
   1  -7  18    0.43    0.24 
   1   7 -18   -0.04    0.13 
  -1  -7 -18    0.13    0.21 
  -1   7 -18    0.21    0.18 
  -1  -7  18    0.02    0.18 
   1  -7 -18    0.10    0.21 
  -3  -7 -18    0.23    0.22 
  -3  -7 -18   -0.02    0.17 
   3  -7  18   -0.24    0.20 
   3   7 -18    0.26    0.20 
  -3   7 -18    0.33    0.20 
  -3  -7  18    0.44    0.25 
   3  -7 -18    0.22    0.22 
  -3   7 -18    0.84    0.23 
   0  -8  18   -0.15    0.21 
   0  -8 -18    0.30    0.25 
   0   8 -18    0.27    0.20 
  -2  -8 -18    0.07    0.21 
   2  -8  18   -0.13    0.24 
   2   8 -18   -0.09    0.18 
   2  -8 -18    0.06    0.23 
  -2   8 -18    0.03    0.18 
  -2  -8  18    0.28    0.24 
   1   9 -18    0.35    0.23 
  -1  -9 -18    0.15    0.25 
   1  -9  18   -0.03    0.25 
   1  -9 -18    0.43    0.27 
  -1   9 -18   -0.01    0.17 
  -1  -9  18    0.03    0.26 
   1   0 -19   27.23    0.85 
  -1   0 -19   25.27    0.81 
  -1   0 -19   27.22    0.72 
  -1   0  19   27.23    0.73 
   3   0 -19   23.30    0.74 
   3   0 -19   20.78    0.76 
  -3   0 -19   22.55    0.76 
  -3   0 -19   23.32    0.74 
   5   0 -19    5.81    0.43 
   5   0 -19    4.94    0.47 
  -5   0 -19    5.43    0.49 
   0  -1 -19   17.61    0.67 
   0   1 -19   17.20    0.64 
   0  -1  19   16.64    0.56 
  -2  -1 -19   17.14    0.64 
   2   1 -19   17.22    0.67 
  -2  -1 -19   16.91    0.62 
  -2   1 -19   17.97    0.61 
  -2  -1  19   17.34    0.63 
   2  -1 -19   17.73    0.69 
  -2   1 -19   17.18    0.64 
   2  -1 -19   17.17    0.57 
   4   1 -19    6.20    0.43 
  -4  -1 -19    6.39    0.46 
   4   1 -19    6.33    0.44 
  -4   1 -19    5.88    0.43 
   4  -1 -19    5.85    0.43 
   4  -1 -19    6.27    0.42 
  -6  -1 -19    1.10    0.33 
   6   1 -19    1.50    0.32 
   6   1 -19    1.59    0.27 
  -6   1 -19    1.10    0.32 
   6  -1 -19    1.35    0.31 
  -1  -2 -19   23.29    0.71 
   1   2 -19   21.67    0.77 
   1  -2  19   23.25    0.72 
  -1  -2 -19   24.57    0.80 
   1  -2 -19   23.95    0.82 
  -1   2 -19   23.23    0.77 
  -1  -2  19   24.55    0.75 
  -3  -2 -19   16.86    0.67 
   3  -2  19   15.40    0.59 
   3   2 -19   13.90    0.63 
   3   2 -19   16.44    0.66 
  -3  -2 -19   17.05    0.63 
  -3   2 -19   16.19    0.61 
  -3   2 -19   16.20    0.63 
   3  -2 -19   16.48    0.69 
   5   2 -19    3.60    0.41 
   5   2 -19    3.61    0.39 
  -5  -2 -19    3.76    0.44 
  -5   2 -19    3.15    0.41 
   5  -2 -19    2.55    0.34 
   5  -2 -19    3.29    0.37 
   0  -3  19   17.60    0.64 
   0  -3 -19   18.53    0.60 
   0  -3 -19   17.83    0.69 
   0   3 -19   17.06    0.66 
   2   3 -19   12.71    0.59 
  -2  -3 -19   13.65    0.58 
  -2  -3 -19   13.60    0.60 
   2  -3  19   13.39    0.56 
  -2  -3  19   13.32    0.59 
  -2   3 -19   14.70    0.55 
  -2   3 -19   14.15    0.58 
   2  -3 -19   12.86    0.60 
   4   3 -19    4.90    0.44 
   4  -3  19    5.78    0.42 
   4   3 -19    5.13    0.48 
  -4  -3 -19    5.19    0.48 
   4  -3 -19    5.63    0.43 
  -4   3 -19    5.43    0.47 
   6   3 -19    1.33    0.26 
   6   3 -19    1.18    0.30 
  -6  -3 -19    0.94    0.31 
   6  -3 -19    0.72    0.25 
  -6   3 -19    1.24    0.33 
   1  -4  19   18.91    0.71 
  -1  -4 -19   18.42    0.73 
   1   4 -19   17.53    0.70 
  -1  -4 -19   18.38    0.67 
  -1  -4  19   19.99    0.74 
  -1   4 -19   18.43    0.69 
   1  -4 -19   16.94    0.72 
  -3  -4 -19   13.24    0.60 
   3   4 -19   13.84    0.63 
   3  -4  19   12.45    0.60 
  -3  -4 -19   12.56    0.61 
  -3  -4  19   13.52    0.64 
  -3   4 -19   12.38    0.55 
   3  -4 -19   14.28    0.66 
  -3   4 -19   12.86    0.58 
   5  -4  19    3.66    0.41 
   5   4 -19    3.34    0.38 
  -5  -4 -19    3.94    0.47 
   5   4 -19    3.17    0.43 
   5  -4 -19    3.76    0.41 
  -5   4 -19    3.73    0.44 
   0  -5 -19   12.09    0.61 
   0  -5  19   12.76    0.60 
   0   5 -19   11.91    0.59 
   2  -5  19   11.48    0.59 
  -2  -5 -19   11.46    0.58 
   2   5 -19   11.68    0.60 
  -2  -5 -19    9.97    0.54 
  -2   5 -19   11.20    0.54 
  -2  -5  19   11.15    0.58 
   2  -5 -19   10.54    0.59 
  -4  -5 -19    5.98    0.53 
   4  -5  19    5.31    0.49 
   4   5 -19    5.74    0.50 
   4  -5 -19    6.09    0.53 
  -4   5 -19    5.35    0.49 
  -4  -5  19    4.69    0.49 
  -1  -6 -19   10.52    0.59 
   1  -6  19    9.93    0.58 
   1   6 -19   10.36    0.57 
  -1  -6  19   10.96    0.61 
   1  -6 -19   10.63    0.61 
  -1   6 -19    9.79    0.55 
  -3  -6 -19    7.14    0.51 
   3   6 -19    6.79    0.50 
   3  -6  19    7.38    0.53 
  -3  -6 -19    8.29    0.52 
  -3  -6  19    7.22    0.53 
  -3   6 -19    7.50    0.48 
  -3   6 -19    7.02    0.46 
   3  -6 -19    6.98    0.52 
   0   7 -19    7.75    0.53 
   0  -7  19    8.97    0.59 
   0  -7 -19    7.68    0.56 
  -2  -7 -19    6.45    0.55 
   2  -7  19    6.18    0.57 
   2   7 -19    5.90    0.54 
  -2   7 -19    6.45    0.47 
  -2  -7  19    6.25    0.57 
   2  -7 -19    6.67    0.58 
   4   7 -19    1.46    0.31 
   4  -7  19    1.94    0.38 
  -4  -7 -19    1.82    0.36 
   4  -7 -19    1.96    0.35 
  -4   7 -19    1.57    0.31 
  -4  -7  19    2.21    0.39 
  -1  -8 -19    6.62    0.59 
   1   8 -19    6.98    0.51 
   1  -8  19    6.89    0.62 
  -1  -8  19    6.82    0.54 
   1  -8 -19    7.93    0.60 
  -1   8 -19    7.10    0.52 
  -3  -8 -19    4.25    0.47 
   3   8 -19    4.86    0.52 
   3  -8  19    5.34    0.54 
  -3  -8 -19    4.86    0.50 
   3  -8 -19    4.35    0.49 
  -3  -8  19    5.48    0.57 
   0  -9  19    5.37    0.58 
   0  -9 -19    6.01    0.60 
   0   9 -19    5.77    0.56 
   0   0 -20    2.48    0.32 
   2   0 -20    3.27    0.37 
  -2   0 -20    3.69    0.34 
  -2   0 -20    3.62    0.36 
  -2   0  20    3.54    0.32 
   4   0 -20   -0.03    0.16 
  -4   0 -20    0.05    0.19 
   4   0 -20   -0.04    0.15 
   6   0 -20   -0.13    0.14 
   6   0 -20    0.24    0.20 
  -6   0 -20    0.11    0.23 
  -1  -1 -20    0.02    0.13 
   1   1 -20   -0.09    0.14 
  -1  -1 -20   -0.11    0.14 
   1  -1 -20    0.05    0.16 
  -1  -1  20    0.38    0.16 
  -1   1 -20    0.09    0.14 
  -3  -1 -20    2.03    0.30 
  -3  -1 -20    2.11    0.27 
   3   1 -20    1.96    0.30 
   3   1 -20    1.88    0.28 
  -3   1 -20    1.62    0.26 
   3  -1 -20    1.54    0.24 
  -3   1 -20    1.43    0.26 
   3  -1 -20    1.64    0.28 
  -5  -1 -20    0.21    0.23 
   5   1 -20    0.51    0.21 
   5   1 -20    0.60    0.23 
   5  -1 -20    0.22    0.18 
   5  -1 -20    0.50    0.20 
  -5   1 -20    0.17    0.22 
   0  -2  20    5.11    0.35 
   0  -2 -20    5.32    0.46 
   0   2 -20    5.59    0.40 
  -2  -2 -20    0.31    0.17 
   2  -2  20    0.71    0.20 
  -2  -2 -20    0.52    0.21 
   2   2 -20    0.28    0.18 
  -2   2 -20    0.55    0.19 
  -2   2 -20    0.65    0.18 
   2  -2 -20    0.50    0.21 
  -2  -2  20    0.87    0.21 
   4   2 -20    0.37    0.20 
  -4  -2 -20    0.43    0.22 
   4   2 -20    0.49    0.19 
  -4   2 -20    0.64    0.23 
   4  -2 -20    0.32    0.21 
   1   3 -20   -0.06    0.11 
  -1  -3 -20   -0.18    0.15 
  -1  -3 -20   -0.04    0.11 
   1  -3  20   -0.02    0.17 
  -1  -3  20    0.12    0.17 
  -1   3 -20    0.25    0.16 
   1  -3 -20   -0.24    0.15 
   3   3 -20    2.08    0.32 
  -3  -3 -20    2.09    0.31 
  -3  -3 -20    1.79    0.30 
   3  -3  20    1.35    0.27 
  -3  -3  20    1.86    0.30 
  -3   3 -20    2.24    0.30 
  -3   3 -20    1.90    0.27 
   3  -3 -20    1.96    0.31 
   5   3 -20    0.50    0.25 
  -5  -3 -20    0.42    0.26 
   5   3 -20    0.30    0.17 
  -5   3 -20    0.21    0.22 
   5  -3 -20    0.23    0.18 
   0  -4  20    0.47    0.22 
   0   4 -20    0.29    0.18 
   0  -4 -20    0.38    0.21 
   2   4 -20    3.50    0.40 
  -2  -4 -20    2.98    0.38 
  -2  -4 -20    3.13    0.36 
   2  -4  20    2.29    0.32 
  -2   4 -20    4.34    0.40 
   2  -4 -20    4.20    0.44 
  -2  -4  20    3.50    0.39 
   4  -4  20    0.45    0.23 
   4   4 -20   -0.06    0.16 
  -4  -4 -20    0.31    0.21 
  -4   4 -20    0.41    0.21 
  -4  -4  20    0.11    0.19 
   4  -4 -20    0.51    0.23 
   1   5 -20   -0.21    0.14 
  -1  -5 -20    0.15    0.19 
   1  -5  20    0.53    0.23 
   1  -5 -20    0.33    0.23 
  -1   5 -20    0.30    0.18 
  -1  -5  20   -0.03    0.17 
   3   5 -20    0.47    0.21 
   3  -5  20    0.57    0.25 
  -3  -5 -20    0.73    0.24 
  -3  -5 -20    0.43    0.23 
  -3  -5  20    0.54    0.23 
   3  -5 -20    0.35    0.23 
  -3   5 -20    0.77    0.24 
  -3   5 -20    0.53    0.20 
   0  -6  20    0.60    0.26 
   0   6 -20    0.49    0.21 
   0  -6 -20    0.62    0.26 
   2  -6  20    0.38    0.25 
   2   6 -20    0.21    0.19 
  -2  -6 -20    0.23    0.19 
  -2  -6 -20    0.37    0.25 
  -2   6 -20    0.19    0.19 
  -2  -6  20    0.47    0.25 
   2  -6 -20    0.22    0.23 
  -4  -6 -20   -0.09    0.18 
   4   6 -20    0.17    0.19 
   4  -6  20    0.04    0.24 
  -4  -6  20    0.17    0.20 
   4  -6 -20    0.29    0.24 
  -4   6 -20   -0.03    0.19 
   1  -7  20    0.28    0.25 
  -1  -7 -20    0.16    0.23 
   1   7 -20    0.31    0.21 
  -1  -7  20    0.51    0.26 
   1  -7 -20    0.22    0.25 
  -1   7 -20    0.25    0.19 
   3  -7  20    0.86    0.30 
   3   7 -20    0.26    0.22 
  -3  -7 -20    0.76    0.29 
  -3  -7 -20    0.48    0.22 
   3  -7 -20    0.52    0.28 
  -3  -7  20    1.07    0.31 
   0  -8 -20    0.09    0.25 
   0  -8  20    0.08    0.26 
   0   8 -20    0.20    0.21 
   2   8 -20    0.67    0.26 
  -2  -8 -20    1.24    0.34 
   2  -8  20    1.43    0.35 
  -2  -8  20    1.12    0.35 
  -2   8 -20    1.33    0.29 
   2  -8 -20    1.08    0.33 
  -1   0 -21    0.74    0.22 
   1   0 -21    1.10    0.26 
  -3   0 -21    0.57    0.18 
   3   0 -21    0.14    0.18 
  -3   0 -21    0.27    0.18 
   3   0 -21    0.59    0.19 
   5   0 -21    1.35    0.30 
  -5   0 -21    1.29    0.32 
   5   0 -21    1.21    0.26 
   0  -1 -21    0.50    0.21 
   0   1 -21    0.61    0.21 
  -2  -1 -21    1.98    0.28 
  -2  -1 -21    1.86    0.26 
   2   1 -21    1.81    0.28 
  -2  -1  21    2.01    0.27 
  -2   1 -21    1.59    0.26 
   2  -1 -21    1.92    0.31 
  -2   1 -21    2.36    0.28 
   4   1 -21    0.16    0.18 
  -4  -1 -21   -0.14    0.19 
   4   1 -21    0.19    0.19 
   4  -1 -21    0.03    0.18 
  -4   1 -21   -0.04    0.18 
   4  -1 -21   -0.02    0.16 
   1  -2  21    0.18    0.16 
   1   2 -21    0.22    0.18 
  -1  -2 -21    0.20    0.18 
  -1  -2 -21    0.32    0.15 
   1  -2 -21    0.19    0.18 
  -1  -2  21   -0.02    0.15 
  -1   2 -21    0.17    0.15 
  -3  -2 -21    1.66    0.30 
   3   2 -21    1.58    0.29 
  -3  -2 -21    1.87    0.29 
  -3  -2  21    1.76    0.29 
   3  -2 -21    0.82    0.23 
  -3   2 -21    1.18    0.23 
  -3   2 -21    1.59    0.29 
  -5  -2 -21    0.10    0.23 
   5   2 -21    0.45    0.24 
   5   2 -21    0.59    0.21 
  -5   2 -21    0.57    0.25 
   5  -2 -21    0.34    0.22 
   0  -3 -21    0.53    0.22 
   0   3 -21    0.36    0.18 
   0  -3  21    0.22    0.17 
  -2  -3 -21    1.15    0.24 
   2  -3  21    0.88    0.24 
   2   3 -21    0.66    0.22 
  -2  -3 -21    1.27    0.26 
  -2  -3  21    0.88    0.24 
   2  -3 -21    1.15    0.28 
  -2   3 -21    0.88    0.22 
   4   3 -21    0.11    0.18 
  -4  -3 -21   -0.02    0.18 
  -4   3 -21    0.70    0.25 
   4  -3 -21    0.31    0.21 
   1   4 -21    0.86    0.23 
  -1  -4 -21    0.95    0.26 
  -1  -4 -21    1.06    0.23 
   1  -4  21    1.09    0.24 
  -1   4 -21    0.85    0.23 
  -1  -4  21    1.08    0.24 
   1  -4 -21    0.86    0.27 
  -3  -4 -21    0.06    0.18 
  -3  -4 -21   -0.11    0.16 
   3   4 -21   -0.37    0.13 
   3  -4  21   -0.01    0.18 
  -3   4 -21    0.08    0.16 
   3  -4 -21    0.15    0.21 
  -3  -4  21   -0.01    0.17 
   0  -5 -21    0.04    0.20 
   0  -5  21   -0.09    0.18 
   0   5 -21    0.17    0.18 
  -2  -5 -21    0.69    0.22 
   2   5 -21    0.50    0.22 
  -2  -5 -21    0.72    0.25 
   2  -5  21    0.66    0.26 
   2  -5 -21    0.16    0.23 
  -2   5 -21    0.47    0.20 
  -2  -5  21    0.34    0.22 
   4   5 -21    0.03    0.18 
  -4  -5 -21   -0.15    0.21 
   4  -5  21    0.22    0.24 
   4  -5 -21    0.14    0.21 
  -4   5 -21    0.01    0.18 
  -4  -5  21    0.46    0.21 
   1  -6  21    0.01    0.22 
  -1  -6 -21    0.43    0.24 
   1   6 -21    0.06    0.16 
  -1   6 -21    0.05    0.16 
   1  -6 -21    0.17    0.23 
  -1  -6  21   -0.10    0.20 
   3  -6  21    0.31    0.23 
   3   6 -21    0.38    0.21 
  -3  -6 -21   -0.26    0.19 
  -3  -6 -21    0.07    0.19 
   3  -6 -21    0.05    0.22 
  -3  -6  21   -0.09    0.21 
   0   7 -21    0.42    0.21 
   0  -7 -21   -0.09    0.22 
   0  -7  21    0.53    0.26 
  -2  -7 -21    0.40    0.19 
  -2  -7 -21    0.29    0.23 
   2   7 -21    0.12    0.20 
   2  -7  21    0.02    0.24 
  -2  -7  21    0.22    0.25 
  -2   7 -21   -0.11    0.15 
   2  -7 -21   -0.01    0.21 
  -1  -8 -21    0.79    0.30 
   1  -8  21    0.52    0.29 
   1   8 -21    0.87    0.27 
   1  -8 -21    0.60    0.31 
  -1   8 -21    0.94    0.28 
  -1  -8  21    0.88    0.33 
   0   0 -22   20.26    0.79 
  -2   0 -22   19.65    0.75 
   2   0 -22   23.08    0.85 
  -4   0 -22    4.50    0.46 
   4   0 -22    5.32    0.49 
   4   0 -22    5.95    0.42 
  -1  -1 -22   10.78    0.56 
   1   1 -22   11.86    0.60 
  -1   1 -22   11.54    0.57 
   1  -1 -22   11.53    0.58 
  -3  -1 -22    7.10    0.47 
  -3  -1 -22    8.14    0.50 
   3   1 -22    7.70    0.51 
  -3   1 -22    8.17    0.49 
  -3   1 -22    8.33    0.49 
  -3  -1  22    6.93    0.46 
   3  -1 -22    8.04    0.53 
   5   1 -22    0.87    0.25 
  -5  -1 -22    0.41    0.28 
   5   1 -22    1.33    0.31 
  -5   1 -22    0.12    0.22 
   5  -1 -22    1.28    0.28 
   0   2 -22    8.82    0.53 
   0  -2 -22    9.44    0.55 
   0  -2  22    9.49    0.48 
  -2  -2 -22   12.19    0.57 
   2   2 -22   11.43    0.60 
  -2  -2 -22   10.53    0.57 
  -2   2 -22   11.36    0.56 
  -2  -2  22   10.87    0.56 
   2  -2 -22   11.58    0.62 
  -4  -2 -22    2.69    0.38 
   4   2 -22    3.22    0.39 
   4   2 -22    3.92    0.44 
  -4   2 -22    3.39    0.41 
   4  -2 -22    3.09    0.40 
  -1  -3 -22    7.47    0.51 
   1   3 -22    7.86    0.50 
   1  -3  22    6.50    0.44 
  -1   3 -22    6.99    0.47 
   1  -3 -22    7.50    0.53 
  -1  -3  22    7.06    0.46 
  -3  -3 -22    5.59    0.48 
   3   3 -22    5.16    0.49 
  -3  -3 -22    4.97    0.47 
   3  -3 -22    5.39    0.51 
  -3  -3  22    6.15    0.45 
  -3   3 -22    5.31    0.40 
   0   4 -22   12.67    0.64 
   0  -4 -22   14.53    0.71 
   0  -4  22   13.37    0.63 
  -2  -4 -22   12.54    0.65 
   2  -4  22   12.32    0.61 
  -2  -4 -22   12.61    0.61 
   2   4 -22   12.46    0.65 
  -2   4 -22   12.18    0.60 
  -2  -4  22   11.59    0.63 
   2  -4 -22   13.82    0.68 
   4   4 -22    3.30    0.41 
  -4  -4 -22    3.98    0.47 
  -4  -4  22    3.73    0.45 
   4  -4 -22    4.10    0.45 
  -4   4 -22    3.38    0.40 
   1   5 -22   10.98    0.62 
   1  -5  22    9.26    0.57 
  -1  -5 -22    9.88    0.54 
  -1  -5 -22   10.26    0.62 
   1  -5 -22    9.55    0.61 
  -1  -5  22    9.39    0.60 
  -1   5 -22    9.39    0.57 
   3   5 -22    5.50    0.53 
   3  -5  22    5.82    0.53 
  -3  -5 -22    7.12    0.50 
  -3  -5 -22    4.94    0.48 
  -3  -5  22    5.36    0.53 
   3  -5 -22    5.85    0.55 
   0  -6  22    5.70    0.54 
   0  -6 -22    7.13    0.61 
   0   6 -22    6.54    0.50 
  -2  -6 -22    6.13    0.47 
   2   6 -22    7.40    0.54 
  -2  -6 -22    6.98    0.53 
   2  -6  22    6.83    0.53 
   2  -6 -22    6.00    0.56 
  -2   6 -22    6.66    0.48 
  -2  -6  22    5.94    0.57 
  -1  -7 -22    2.55    0.40 
   1   7 -22    2.82    0.40 
   1  -7  22    2.26    0.40 
  -1   7 -22    3.34    0.42 
   1  -7 -22    3.13    0.44 
  -1  -7  22    3.74    0.48 
  -1   0 -23    0.28    0.19 
   1   0 -23    0.25    0.19 
   3   0 -23    0.21    0.21 
  -3   0 -23    0.03    0.17 
  -3   0 -23    0.50    0.21 
   0   1 -23    0.87    0.24 
   0  -1 -23    0.91    0.25 
  -2  -1 -23    1.58    0.29 
   2   1 -23    1.47    0.30 
  -2   1 -23    1.15    0.26 
   2  -1 -23    1.58    0.31 
  -4  -1 -23    0.65    0.27 
   4   1 -23    0.59    0.24 
   4   1 -23    0.10    0.21 
   4  -1 -23    0.38    0.21 
  -4   1 -23    0.34    0.22 
  -1  -2 -23   -0.12    0.18 
   1   2 -23   -0.03    0.17 
  -1   2 -23   -0.13    0.15 
  -1  -2  23   -0.08    0.16 
   1  -2 -23   -0.03    0.16 
   3   2 -23    0.49    0.23 
  -3  -2 -23    0.54    0.22 
  -3  -2 -23    0.33    0.20 
   3  -2 -23    0.99    0.27 
  -3  -2  23    0.64    0.22 
  -3   2 -23    0.33    0.19 
   0  -3  23    2.03    0.31 
   0  -3 -23    2.22    0.37 
   0   3 -23    2.63    0.35 
  -2  -3 -23    0.84    0.26 
   2   3 -23    0.22    0.20 
  -2  -3 -23    0.53    0.20 
  -2   3 -23    0.67    0.21 
  -2  -3  23   -0.18    0.16 
   2  -3 -23    0.44    0.24 
  -4  -3 -23    0.75    0.27 
   4   3 -23    0.72    0.25 
  -4  -3  23    0.85    0.26 
   4  -3 -23    0.71    0.25 
   1  -4  23   -0.32    0.19 
   1   4 -23   -0.09    0.15 
  -1  -4 -23   -0.16    0.20 
  -1  -4  23    0.06    0.21 
   1  -4 -23   -0.42    0.19 
  -1   4 -23   -0.22    0.14 
   3   4 -23    0.11    0.17 
  -3  -4 -23    0.03    0.19 
  -3  -4 -23    0.03    0.20 
  -3  -4  23   -0.03    0.18 
   3  -4 -23   -0.18    0.19 
   0  -5 -23    0.07    0.23 
   0   5 -23   -0.09    0.17 
   0  -5  23    0.13    0.22 
   2   5 -23    0.74    0.25 
  -2  -5 -23    0.79    0.24 
  -2  -5 -23    1.50    0.33 
   2  -5  23    1.16    0.31 
  -2  -5  23    1.66    0.34 
   2  -5 -23    0.67    0.28 
  -2   5 -23    1.13    0.27 
  -1  -6 -23    0.48    0.26 
   1   6 -23    0.43    0.23 
   1  -6  23    0.06    0.24 
  -1   6 -23    0.38    0.21 
  -1  -6  23   -0.01    0.22 
   1  -6 -23    0.48    0.27 
   0   0 -24    0.39    0.22 
  -2   0 -24    0.21    0.21 
   2   0 -24    0.07    0.19 
  -4   0 -24    0.37    0.23 
   4   0 -24    0.33    0.22 
  -1  -1 -24    1.30    0.28 
   1   1 -24    1.09    0.27 
  -1   1 -24    0.71    0.24 
   1  -1 -24    0.85    0.26 
  -3  -1 -24    0.26    0.20 
   3   1 -24    0.42    0.24 
  -3   1 -24    0.65    0.22 
   3  -1 -24    0.42    0.24 
   0   2 -24    3.30    0.39 
   0  -2 -24    3.77    0.44 
  -2  -2 -24    1.18    0.28 
   2   2 -24    1.15    0.29 
   2  -2 -24    1.02    0.27 
  -2   2 -24    1.08    0.26 
  -2  -2  24    1.25    0.31 
  -1  -3 -24    0.95    0.28 
   1   3 -24    1.13    0.28 
   1  -3 -24    0.88    0.28 
  -1   3 -24    1.32    0.28 
  -1  -3  24    0.93    0.27 
  -3  -3 -24    0.04    0.22 
  -3  -3 -24    0.61    0.25 
   3   3 -24    0.30    0.23 
  -3  -3  24    0.40    0.23 
   3  -3 -24    0.51    0.26 
   0  -4 -24    0.34    0.25 
   0   4 -24    0.67    0.24 
   0  -4  24    0.54    0.25 
  -2  -4 -24    0.15    0.23 
   2   4 -24    0.17    0.19 
   2  -4 -24   -0.18    0.19 
  -2  -4  24    0.05    0.22 
  -2   4 -24    0.04    0.19 
  -1  -5 -24    0.84    0.29 
   1  -5  24    0.30    0.26 
   1   5 -24    0.56    0.25 
  -1   5 -24    0.84    0.25 
  -1  -5  24    0.31    0.24 
   1  -5 -24    0.60    0.27 
   1   0 -25    6.32    0.56 
  -1   0 -25    5.79    0.52 
   3   0 -25    3.45    0.43 
  -3   0 -25    2.95    0.39 
   0  -1 -25    3.50    0.44 
   0   1 -25    4.83    0.48 
   2   1 -25    2.87    0.40 
  -2  -1 -25    3.43    0.41 
  -2   1 -25    3.81    0.43 
   2  -1 -25    2.92    0.42 
   1   2 -25    6.19    0.55 
  -1  -2 -25    7.30    0.52 
  -1   2 -25    6.65    0.50 
   1  -2 -25    5.79    0.54 
  -3  -2 -25    3.88    0.44 
   3   2 -25    3.13    0.42 
   3  -2 -25    2.95    0.45 
   0   3 -25    3.77    0.45 
   0  -3 -25    4.69    0.50 
  -2  -3 -25    2.95    0.41 
   2   3 -25    2.37    0.37 
  -2  -3  25    3.31    0.42 
   2  -3 -25    2.85    0.42 
  -2   3 -25    2.53    0.36 
  -1  -4 -25    5.17    0.54 
   1   4 -25    4.25    0.48 
  -1  -4  25    4.29    0.47 
  -1   4 -25    4.31    0.46 
   1  -4 -25    4.27    0.50 
   0   0 -26    0.23    0.22 
  -2   0 -26   -0.02    0.16 
   2   0 -26    0.04    0.20 
  -1  -1 -26    0.03    0.22 
   1   1 -26    0.34    0.22 
   1  -1 -26    0.04    0.20 
  -1   1 -26   -0.16    0.19 
   0   2 -26   -0.15    0.17 
   0  -2 -26    0.05    0.21 
   1   3 -26    0.05    0.19 
  -1  -3 -26    0.09    0.22 
   1  -3 -26    0.30    0.24 
  -1   3 -26   -0.08    0.19 
   0   0   0    0.00    0.00 

;
_shelx_hkl_checksum              22992
loop_
_space_group_symop_operation_xyz
'x, y, z'
'-x, -y, z'
'-x, y, -z'
'x, -y, -z'
'x+1/2, y+1/2, z+1/2'
'-x+1/2, -y+1/2, z+1/2'
'-x+1/2, y+1/2, -z+1/2'
'x+1/2, -y+1/2, -z+1/2'
'-x, -y, -z'
'x, y, -z'
'x, -y, z'
'-x, y, z'
'-x+1/2, -y+1/2, -z+1/2'
'x+1/2, y+1/2, -z+1/2'
'x+1/2, -y+1/2, z+1/2'
'-x+1/2, y+1/2, z+1/2'
loop_
_atom_site_label
_atom_site_type_symbol
_atom_site_fract_x
_atom_site_fract_y
_atom_site_fract_z
_atom_site_U_iso_or_equiv
_atom_site_adp_type
_atom_site_occupancy
_atom_site_site_symmetry_order
_atom_site_calc_flag
_atom_site_refinement_flags_posn
_atom_site_refinement_flags_adp
_atom_site_refinement_flags_occupancy
V1 V 0.02726(11) 0.0000 0.31798(3) 0.02161(14) Uani 0.5 2 d S T P
F1 F 0.2123(3) 0.0000 0.25757(9) 0.0617(5) Uani 1 2 d S T P
F2 F 0.2094(3) 0.0000 0.39761(8) 0.0593(5) Uani 1 2 d S T P
F3 F 0.0000 -0.20751(18) 0.32597(11) 0.0701(6) Uani 1 2 d S T P
V2 V 0.0198(2) 0.01273(17) 0.0000 0.0276(2) Uani 0.25 2 d S T P
F4 F 0.0000 0.0000 0.1007(2) 0.0631(18) Uani 0.5 4 d S T P
F5 F 0.0000 -0.2063(4) 0.0000 0.0426(10) Uani 0.5 4 d S T P
F6 F 0.3011(6) 0.0000 0.0000 0.0448(11) Uani 0.5 4 d S T P
F7 F 0.1076(19) 0.0000 0.0902(5) 0.114(4) Uani 0.25 2 d S T P
F8 F 0.1933(7) -0.1432(5) 0.0281(4) 0.088(3) Uani 0.25 1 d . . P
N1 N 0.0000 0.2671(2) 0.17157(11) 0.0385(5) Uani 1 2 d S T P
N2 N 0.0000 0.5000 0.36277(18) 0.0414(7) Uani 1 4 d S T P
N3 N 0.5000 0.0692(7) 0.5000 0.0432(14) Uani 0.5 4 d S T P
N4 N 0.0578(6) 0.2037(4) 0.5000 0.0365(10) Uani 0.5 2 d S T P
loop_
_atom_site_aniso_label
_atom_site_aniso_U_11
_atom_site_aniso_U_22
_atom_site_aniso_U_33
_atom_site_aniso_U_23
_atom_site_aniso_U_13
_atom_site_aniso_U_12
V1 0.0200(4) 0.0244(2) 0.0204(2) 0.000 -0.0005(2) 0.000
F1 0.0442(8) 0.0976(13) 0.0434(8) 0.000 0.0187(7) 0.000
F2 0.0515(8) 0.0908(12) 0.0357(7) 0.000 -0.0229(6) 0.000
F3 0.1131(17) 0.0214(6) 0.0759(12) 0.0060(7) 0.000 0.000
V2 0.0200(4) 0.0310(5) 0.0318(4) 0.000 0.000 -0.0080(16)
F4 0.135(5) 0.039(2) 0.0151(16) 0.000 0.000 0.000
F5 0.0341(17) 0.0256(15) 0.068(3) 0.000 0.000 0.000
F6 0.0226(15) 0.0354(17) 0.076(3) 0.000 0.000 0.000
F7 0.121(8) 0.184(11) 0.039(4) 0.000 -0.035(4) 0.000
F8 0.043(2) 0.057(2) 0.164(8) 0.025(3) -0.024(3) 0.0191(19)
N1 0.0373(9) 0.0371(9) 0.0411(9) 0.0029(8) 0.000 0.000
N2 0.0489(15) 0.0347(13) 0.0407(14) 0.000 0.000 0.000
N3 0.044(3) 0.044(3) 0.042(3) 0.000 0.000 0.000
N4 0.047(2) 0.0326(15) 0.0298(15) 0.000 0.000 -0.0069(13)
loop_
_atom_type_symbol
_atom_type_description
_atom_type_scat_dispersion_real
_atom_type_scat_dispersion_imag
_atom_type_scat_source
N N 0.0061 0.0033 'International Tables Vol C Tables 4.2.6.8 and 6.1.1.4'
H H 0.0000 0.0000 'International Tables Vol C Tables 4.2.6.8 and 6.1.1.4'
O O 0.0106 0.0060 'International Tables Vol C Tables 4.2.6.8 and 6.1.1.4'
F F 0.0171 0.0103 'International Tables Vol C Tables 4.2.6.8 and 6.1.1.4'
V V 0.3005 0.5294 'International Tables Vol C Tables 4.2.6.8 and 6.1.1.4'
loop_
_geom_angle_atom_site_label_1
_geom_angle_atom_site_label_2
_geom_angle_atom_site_label_3
_geom_angle
_geom_angle_site_symmetry_1
_geom_angle_site_symmetry_3
F1 V1 F1 98.46(12) . 2
F1 V1 F3 96.85(5) . .
F1 V1 F3 96.85(5) . 2
F1 V1 F2 97.10(9) . .
F1 V1 F2 82.40(8) 2 2
F3 V1 F2 83.16(5) . 2
F2 V1 F2 82.04(10) . 2
F1 V1 F3 88.63(4) 2 .
F2 V1 F3 89.52(5) . .
F1 V1 F3 88.63(4) 2 2
F2 V1 F3 89.52(5) . 2
F1 V1 F2 164.44(8) 2 .
F3 V1 F3 166.28(9) . 2
F1 V1 F2 179.14(9) . 2
F6 V2 F5 97.78(7) . 9
F6 V2 F5 97.78(7) . 9
F6 V2 F4 93.50(4) . 9
F5 V2 F4 93.23(5) 9 9
F4 V2 F4 169.75(9) 9 .
F6 V2 F5 89.78(6) . .
F4 V2 F5 86.27(5) . .
F5 V2 F5 172.43(8) 9 .
F6 V2 F6 172.93(10) . 9
F5 V2 F6 89.29(6) 9 9
F5 V2 F6 83.15(5) . 9
F4 V2 F6 86.07(4) . 9
F8 V2 F7 98.3(4) 4 .
F7 V2 F8 92.3(3) . 10
F7 V2 F8 84.8(3) . 12
F7 V2 F8 84.9(3) 2 3
F7 V2 F8 89.6(4) 10 9
F8 V2 F7 92.0(3) 4 9
F8 V2 F7 86.8(3) 10 9
F8 V2 F7 89.5(4) 2 9
F8 V2 F8 94.2(3) 4 10
F8 V2 F8 85.6(3) 4 9
F8 V2 F8 84.3(3) 9 3
F8 V2 F8 95.7(3) 11 9
F7 V2 F7 169.76(10) . 9
F8 V2 F8 176.92(5) 11 3
F8 V2 F8 169.56(9) 9 .
loop_
_geom_bond_atom_site_label_1
_geom_bond_atom_site_label_2
_geom_bond_distance
_geom_bond_site_symmetry_2
_geom_bond_publ_flag
V1 V1 0.3434(13) 2 ?
V1 F1 1.6317(17) . y
V1 F2 1.8928(16) . y
V1 F1 1.8923(17) 2 y
V1 F3 1.9153(16) . y
V1 F3 1.9153(16) 2 ?
V1 F2 2.1186(16) 2 y
V2 F5 1.778(4) 9 y
V2 F6 1.776(4) . y
F4 V2 1.910(4) 9 y
F4 V2 1.910(4) 11 ?
F6 V2 2.025(4) 9 y
F5 V2 2.011(4) 3 y
V2 F8 1.704(5) 4 ?
V2 F7 1.796(9) . ?
V2 F8 1.874(5) 9 ?
V2 F8 1.875(5) 10 ?
F7 V2 1.887(9) 3 ?
F8 V2 2.031(5) 3 ?
F1 F1 2.674(3) 2 ?
F1 F3 2.6601(19) . ?
F1 F2 2.647(2) . ?
F1 F3 2.6601(19) 2 ?
F2 F3 2.6814(19) 2 ?
F2 F3 2.6814(19) . ?
F2 F2 2.638(3) 2 ?
F4 F5 2.682(4) . ?
F4 F6 2.687(4) . ?
F5 F6 2.678(4) . ?
F7 F8 2.586(10) 12 ?
F7 F8 2.586(10) 2 ?
F7 F8 2.647(10) 10 ?
F7 F8 2.647(10) 4 ?
F8 F8 2.624(9) 11 ?
F8 F8 2.656(10) 3 ?
N1 F3 2.970(3) 2 ?
N1 F7 2.970(6) 2 ?
N1 F2 3.101(2) 13 ?
N1 F1 3.104(2) 13 ?
N2 F7 2.627(11) 13 ?
N2 F7 2.627(11) 14_455 ?
N2 F3 2.7691(19) 2 ?
N2 F3 2.7691(19) 1_565 ?
N2 F6 2.881(3) 13 ?
N2 F6 2.881(3) 5_455 ?
N2 F1 2.909(3) 14_455 ?
N2 F1 2.909(3) 13 ?
N3 N3 1.269(13) 9_656 ?
N3 F5 2.057(7) 5 ?
N3 F2 2.738(2) 9_656 ?
N3 F2 2.738(2) 2_655 ?
N3 F2 2.738(2) 10_556 ?
N3 F8 2.951(7) 5 ?
N3 F8 2.951(7) 14 ?
N3 F8 2.951(7) 16 ?
N3 F8 2.951(7) 7 ?
N4 N4 0.728(7) 3_556 ?
N4 F8 2.170(6) 16 ?
N4 F8 2.170(6) 7 ?
N4 F8 2.743(6) 14_455 ?
N4 F8 2.743(6) 5_455 ?
N4 F2 2.854(3) 10_556 ?
N4 F6 2.857(4) 13 ?
N4 F5 2.905(4) 5 ?
