#------------------------------------------------------------------------------
#$Date: 2019-11-13 07:36:56 +0200 (Wed, 13 Nov 2019) $
#$Revision: 227695 $
#$URL: file:///home/coder/svn-repositories/cod/cif/2/02/18/2021821.cif $
#------------------------------------------------------------------------------
#
# This file is available in the Crystallography Open Database (COD),
# http://www.crystallography.net/. The original data for this entry
# were provided by IUCr Journals, http://journals.iucr.org/.
#
# The file may be used within the scientific community so long as
# proper attribution is given to the journal article from which the
# data were obtained.
#
data_2021821
loop_
_publ_author_name
'Yamashita, Keishiro'
'Komatsu, Kazuki'
'Hattori, Takanori'
'Machida, Shinichi'
'Kagi, Hiroyuki'
_publ_section_title
;
 Crystal structure of a high-pressure phase of magnesium chloride
 hexahydrate determined by <i>in-situ</i> X-ray and neutron diffraction
 methods
;
_journal_coeditor_code           LG3249
_journal_issue                   12
_journal_name_full               'Acta Crystallographica Section C'
_journal_page_first
;
;
_journal_paper_doi               10.1107/S2053229619014670
_journal_volume                  75
_journal_year                    2019
_chemical_formula_iupac          '[Mg Cl2 (D2 O)6]'
_chemical_formula_moiety         'Mg Cl2 6(D2 O)'
_chemical_formula_structural     'Mg Cl2 (D2O)6'
_chemical_formula_sum            'Cl2 D11.52 H0.48 Mg O6'
_chemical_formula_weight         214.89
_chemical_name_common            'Magnesium chloride hexadeuterate'
_chemical_name_systematic
;
Magnesium chloride hexadeuterate
;
_space_group_IT_number           2
_space_group_name_Hall           '-P 1'
_space_group_name_H-M_alt        'P -1'
_symmetry_cell_setting           triclinic
_symmetry_space_group_name_Hall  '-P 1'
_symmetry_space_group_name_H-M   'P -1'
_audit_creation_method           'from EXP file using GSAS2CIF'
_cell_angle_alpha                86.454(4)
_cell_angle_beta                 87.276(4)
_cell_angle_gamma                70.898(3)
_cell_formula_units_Z            1
_cell_length_a                   5.89632(18)
_cell_length_b                   6.0225(2)
_cell_length_c                   6.0147(2)
_cell_measurement_temperature    298
_cell_volume                     201.354(12)
_computing_structure_refinement  GSAS
_diffrn_ambient_temperature      298
_diffrn_radiation_probe          neutron
_diffrn_radiation_type           neutron
_diffrn_source                   neutron
_exptl_absorpt_correction_T_max  0.97822
_exptl_absorpt_correction_T_min  0.80821
_exptl_absorpt_process_details
;   GSAS Absorption/surface roughness correction: function number 0
 Debye-Scherrer absorption correction
Term (= MU.r/wave) =     0.15189E-01
Correction is refined.
;
_exptl_crystal_colour            Colorless
_exptl_crystal_density_diffrn    1.7776
_pd_block_id                     2019-05-22T12:35|51420MC6HP|cif|
_pd_calc_method                  'Rietveld Refinement'
_pd_instr_location
;
PLANET (BL11), Materials and Life Science Experimental Facility, J-PARC
Tokai, Ibaraki, Japan
;
_pd_meas_2theta_fixed            90.00
_pd_meas_number_of_points        3847
_pd_meas_scan_method             tof
_pd_phase_name                   'MgCl2 6D2O (II)'
_pd_prep_pressure                0.75
_pd_prep_temperature             298
_pd_proc_info_data_reduction
;
attenuation correction by a vanadium pellet in the high-P cell
;
_pd_proc_info_datetime           2019-05-22T12:35:19
_pd_proc_ls_background_function
;   GSAS Background function number 1 with 16 terms.
 Shifted Chebyshev function of 1st kind
      1:   4.716920E-02 2:  -5.156720E-03 3:   1.853470E-03 4:   8.037290E-04
      5:   1.794140E-03 6:  -1.514780E-03 7:  -5.851110E-04 8:   1.944230E-03
      9:  -6.441610E-0410:  -5.427010E-0411:  -1.207030E-0512:   4.135700E-04
     13:  -7.124380E-0414:  -2.079830E-0415:   1.328750E-0416:  -7.306510E-04
;
_pd_proc_ls_peak_cutoff          0.00200
_pd_proc_ls_profile_function
;
TOF Profile function number 3 with  21 terms
Profile coefficients for exponential pseudovoigt
convolution Von Dreele, 1990 (unpublished)
#1 (alp ) = 0.416418E+24 #2 (bet-0) = 0.017871 #3 (bet-1) = 0.935401
#4 (sig-0) = 0.0 #5 (sig-1  = 521.2 #6 (sig-2) = -1.8
#7 (gam-0) = 0.00 #8 (gam-1) = 21.81 #9 (gam-2) = 0.13
#10 (gsf) = 0.00 #11 (g1ec) = 0.00 #12 (g2ec ) = 0.00
#13 (rstr) = 0.000 #14 (rsta) = 0.000 #15 (rsca) = 0.000
#16 (L11) = 0.000 #17 (L22) = 0.000 #18 (L33) = 0.000
#19 (L12) = 0.000 #20 (L13) = 0.000 #21 (L23) = 0.000
Peak tails are ignored  where the intensity is below 0.0020 times the peak
Aniso. broadening axis   0.0   0.0   1.0
;
_pd_proc_ls_prof_R_factor        0.0279
_pd_proc_ls_prof_wR_expected     0.0120
_pd_proc_ls_prof_wR_factor       0.0331
_pd_proc_number_of_points        3847
_pd_spec_mounting
;
Aluminum cube in six-axis multi anvil press (ATSUHIME)
;
_pd_spec_mount_mode              transmission
_pd_spec_shape                   cylinder
_pd_spec_size_axial              6
_pd_spec_size_equat              6
_pd_spec_size_thick              3
_refine_ls_goodness_of_fit_all   2.80
_refine_ls_hydrogen_treatment    constr
_refine_ls_matrix_type           full
_refine_ls_number_parameters     45
_refine_ls_number_restraints     12
_refine_ls_shift/su_max          0.04
_refine_ls_shift/su_mean         0.01
_cod_data_source_file            lg3249sup1.cif
_cod_data_source_block           MgCl2_6D2OII
_cod_original_cell_volume        201.356(9)
_cod_database_code               2021821
loop_
_symmetry_equiv_pos_site_id
_symmetry_equiv_pos_as_xyz
1 +x,+y,+z
-1 -x,-y,-z
loop_
_atom_site_type_symbol
_atom_site_label
_atom_site_fract_x
_atom_site_fract_y
_atom_site_fract_z
_atom_site_U_iso_or_equiv
_atom_site_thermal_displace_type
_atom_site_occupancy
Mg Mg1 0.0 0.0 0.0 0.012(3) Uiso 1.0
Cl Cl1 0.3176(7) 0.3184(7) 0.3959(6) 0.0093(8) Uiso 1.0
O O1 0.2561(17) 0.1529(17) 0.8901(15) 0.046(2) Uiso 1.0
O O2 0.1801(17) 0.7103(19) 0.8119(16) 0.046(2) Uiso 1.0
O O3 0.1914(13) 0.8613(17) 0.2790(16) 0.046(2) Uiso 1.0
D D1A 0.2609(14) 0.2082(14) 0.7463(16) 0.060(3) Uiso 0.960(8)
D D2A 0.3400(16) 0.6865(13) 0.7404(15) 0.060(3) Uiso 0.960(8)
D D3A 0.2567(14) 0.6918(17) 0.3022(15) 0.060(3) Uiso 0.960(8)
D D3B 0.3019(16) 0.9006(16) 0.3519(16) 0.060(3) Uiso 0.960(8)
D D1B 0.3004(15) 0.2458(19) 0.9846(14) 0.060(3) Uiso 0.960(8)
D D2B 0.0777(15) 0.6741(15) 0.7224(15) 0.060(3) Uiso 0.960(8)
H H1A 0.2609(14) 0.2082(14) 0.7463(16) 0.060(3) Uiso 0.040(8)
H H1B 0.3004(15) 0.2458(19) 0.9846(14) 0.060(3) Uiso 0.040(8)
H H2A 0.3400(16) 0.6865(13) 0.7404(15) 0.060(3) Uiso 0.040(8)
H H2B 0.0777(15) 0.6741(15) 0.7225(15) 0.060(3) Uiso 0.040(8)
H H3A 0.2567(14) 0.6918(17) 0.3021(15) 0.060(3) Uiso 0.040(8)
H H3B 0.3019(16) 0.9006(16) 0.3519(16) 0.060(3) Uiso 0.040(8)
loop_
_atom_type_symbol
_atom_type_number_in_cell
_atom_type_scat_length_neutron
_atom_type_scat_source
Mg 1.0 0.5375 International_Tables_Vol_C
Cl 2.0 0.9577 International_Tables_Vol_C
O 6.0 0.5803 International_Tables_Vol_C
D 11.521 0.6671 International_Tables_Vol_C
H 0.479 -0.3739 International_Tables_Vol_C
loop_
_geom_angle_atom_site_label_1
_geom_angle_atom_site_label_2
_geom_angle_atom_site_label_3
_geom_angle_site_symmetry_1
_geom_angle_site_symmetry_3
_geom_angle
_geom_angle_publ_flag
O1 Mg1 O1 1_554 -1_556 180.0 n
O1 Mg1 O2 1_554 1_544 88.7(3) n
O1 Mg1 O2 1_554 -1_566 91.3(3) n
O1 Mg1 O3 1_554 1_545 90.4(4) n
O1 Mg1 O3 1_554 -1_565 89.6(4) n
O1 Mg1 O2 -1_556 1_544 91.3(3) n
O1 Mg1 O2 -1_556 -1_566 88.7(3) n
O1 Mg1 O3 -1_556 1_545 89.6(4) n
O1 Mg1 O3 -1_556 -1_565 90.4(4) n
O2 Mg1 O2 1_544 -1_566 180.0 n
O2 Mg1 O3 1_544 1_545 93.7(4) n
O2 Mg1 O3 1_544 -1_565 86.3(4) n
O2 Mg1 O3 -1_566 1_545 86.3(4) n
O2 Mg1 O3 -1_566 -1_565 93.7(4) n
O3 Mg1 O3 1_545 -1_565 180.0 n
D1A Cl1 D2A 1_555 -1_666 123.0(4) n
D1A Cl1 D3A 1_555 1_555 120.1(4) n
D1A Cl1 H1A 1_555 1_555 0.0 n
D1A Cl1 H2A 1_555 -1_666 123.0(4) n
D1A Cl1 H3A 1_555 1_555 120.1(4) n
D2A Cl1 D3A -1_666 1_555 77.6(3) n
D2A Cl1 H1A -1_666 1_555 123.0(4) n
D2A Cl1 H2A -1_666 -1_666 0.0 n
D2A Cl1 H3A -1_666 1_555 77.6(3) n
D3A Cl1 H1A 1_555 1_555 120.1(4) n
D3A Cl1 H2A 1_555 -1_666 77.6(3) n
D3A Cl1 H3A 1_555 1_555 0.0 n
H1A Cl1 H2A 1_555 -1_666 123.0(4) n
H1A Cl1 H3A 1_555 1_555 120.1(4) n
H2A Cl1 H3A -1_666 1_555 77.6(3) n
Mg1 O1 D1A 1_556 1_555 120.9(10) n
Mg1 O1 D1B 1_556 1_555 119.1(10) n
Mg1 O1 H1A 1_556 1_555 120.9(10) n
Mg1 O1 H1B 1_556 1_555 119.1(10) n
D1A O1 D1B 1_555 1_555 110.4(13) n
D1A O1 H1A 1_555 1_555 0.0 n
D1A O1 H1B 1_555 1_555 110.4(13) n
D1B O1 H1A 1_555 1_555 110.4(13) n
D1B O1 H1B 1_555 1_555 0.0 n
H1A O1 H1B 1_555 1_555 110.4(13) n
Mg1 O2 D2A 1_566 1_555 123.3(9) n
Mg1 O2 D2B 1_566 1_555 111.4(10) n
Mg1 O2 H2A 1_566 1_555 123.3(9) n
Mg1 O2 H2B 1_566 1_555 111.4(10) n
D2A O2 D2B 1_555 1_555 112.6(13) n
D2A O2 H2A 1_555 1_555 0.0 n
D2A O2 H2B 1_555 1_555 112.6(13) n
D2B O2 H2A 1_555 1_555 112.6(13) n
D2B O2 H2B 1_555 1_555 0.0 n
H2A O2 H2B 1_555 1_555 112.6(13) n
Mg1 O3 D3A 1_565 1_555 119.1(10) n
Mg1 O3 D3B 1_565 1_555 133.1(12) n
Mg1 O3 H3A 1_565 1_555 119.1(10) n
Mg1 O3 H3B 1_565 1_555 133.1(12) n
D3A O3 D3B 1_555 1_555 98.6(11) n
D3A O3 H3A 1_555 1_555 0.0 n
D3A O3 H3B 1_555 1_555 98.6(11) n
D3B O3 H3A 1_555 1_555 98.6(11) n
D3B O3 H3B 1_555 1_555 0.0 n
H3A O3 H3B 1_555 1_555 98.6(11) n
Cl1 D1A O1 1_555 1_555 173.3(11) n
Cl1 D1A D1B 1_555 1_555 143.8(7) n
Cl1 D1A H1B 1_555 1_555 143.8(7) n
O1 D1A D1B 1_555 1_555 35.1(7) n
O1 D1A H1B 1_555 1_555 35.1(7) n
D1B D1A H1B 1_555 1_555 0.0 n
Cl1 D2A O2 -1_666 1_555 171.9(9) n
Cl1 D3A O3 1_555 1_555 165.7(10) n
Cl1 D3A D3B 1_555 1_555 146.3(7) n
Cl1 D3A H3B 1_555 1_555 146.3(7) n
O3 D3A D3B 1_555 1_555 38.9(6) n
O3 D3A H3B 1_555 1_555 38.9(6) n
D3B D3A H3B 1_555 1_555 0.0 n
O3 D3B D3A 1_555 1_555 42.5(7) n
O3 D3B H3A 1_555 1_555 42.5(7) n
D3A D3B H3A 1_555 1_555 0.0 n
O1 D1B D1A 1_555 1_555 34.5(7) n
O1 D1B H1A 1_555 1_555 34.5(7) n
D1A D1B H1A 1_555 1_555 0.0 n
Cl1 H1A O1 1_555 1_555 173.3(11) n
Cl1 H1A D1B 1_555 1_555 143.8(7) n
Cl1 H1A H1B 1_555 1_555 143.8(7) n
O1 H1A D1B 1_555 1_555 35.1(7) n
O1 H1A H1B 1_555 1_555 35.1(7) n
D1B H1A H1B 1_555 1_555 0.0 n
O1 H1B D1A 1_555 1_555 34.5(7) n
O1 H1B H1A 1_555 1_555 34.5(7) n
D1A H1B H1A 1_555 1_555 0.0 n
Cl1 H2A O2 -1_666 1_555 171.9(9) n
Cl1 H3A O3 1_555 1_555 165.7(10) n
Cl1 H3A D3B 1_555 1_555 146.3(7) n
Cl1 H3A H3B 1_555 1_555 146.3(7) n
O3 H3A D3B 1_555 1_555 38.9(6) n
O3 H3A H3B 1_555 1_555 38.9(6) n
D3B H3A H3B 1_555 1_555 0.0 n
O3 H3B D3A 1_555 1_555 42.5(7) n
O3 H3B H3A 1_555 1_555 42.5(7) n
D3A H3B H3A 1_555 1_555 0.0 n
loop_
_geom_bond_atom_site_label_1
_geom_bond_atom_site_label_2
_geom_bond_site_symmetry_2
_geom_bond_distance
_geom_bond_publ_flag
Mg1 O1 1_554 2.075(9) n
Mg1 O1 -1_556 2.075(9) n
Mg1 O2 1_544 2.090(10) n
Mg1 O2 -1_566 2.090(10) n
Mg1 O3 1_545 2.044(10) n
Mg1 O3 -1_565 2.044(10) n
Mg1 D1A 1_554 2.659(8) n
Mg1 D1A -1_556 2.659(8) n
Mg1 D2A 1_544 2.759(8) n
Mg1 D2A -1_566 2.759(8) n
Mg1 D3A 1_545 2.654(9) n
Mg1 D3A -1_565 2.654(9) n
Mg1 D3B 1_545 2.741(9) n
Mg1 D3B -1_565 2.741(9) n
Mg1 D1B 1_554 2.649(9) n
Mg1 D1B -1_556 2.649(9) n
Mg1 D2B 1_544 2.568(9) n
Mg1 D2B -1_566 2.568(9) n
Mg1 H1A 1_554 2.659(8) n
Mg1 H1A -1_556 2.659(8) n
Mg1 H1B 1_554 2.649(9) n
Mg1 H1B -1_556 2.649(9) n
Mg1 H2A 1_544 2.759(8) n
Mg1 H2A -1_566 2.759(8) n
Mg1 H2B 1_544 2.568(9) n
Mg1 H2B -1_566 2.568(9) n
Mg1 H3A 1_545 2.654(9) n
Mg1 H3A -1_565 2.654(9) n
Mg1 H3B 1_545 2.741(9) n
Mg1 H3B -1_565 2.741(9) n
Cl1 D1A 1_555 2.214(11) n
Cl1 D2A -1_666 2.134(10) n
Cl1 D3A 1_555 2.200(10) n
Cl1 D3B 1_545 2.578(11) n
Cl1 D1B 1_554 2.552(8) n
Cl1 D2B -1_566 2.455(10) n
Cl1 H1A 1_555 2.214(11) n
Cl1 H1B 1_554 2.552(8) n
Cl1 H2A -1_666 2.134(10) n
Cl1 H2B -1_566 2.455(10) n
Cl1 H3A 1_555 2.200(10) n
Cl1 H3B 1_545 2.578(11) n
O1 Mg1 1_556 2.075(9) n
O1 D1A 1_555 0.910(9) n
O1 D1B 1_555 0.923(9) n
O1 H1A 1_555 0.910(9) n
O1 H1B 1_555 0.923(9) n
O2 Mg1 1_566 2.090(10) n
O2 D2A 1_555 0.987(9) n
O2 D2B 1_555 0.913(10) n
O2 H2A 1_555 0.987(9) n
O2 H2B 1_555 0.913(10) n
O3 Mg1 1_565 2.044(10) n
O3 D3A 1_555 0.969(9) n
O3 D3B 1_555 0.902(10) n
O3 H3A 1_555 0.969(9) n
O3 H3B 1_555 0.902(10) n
D1A Mg1 1_556 2.659(8) n
D1A Cl1 1_555 2.214(11) n
D1A O1 1_555 0.910(9) n
D1A D1B 1_555 1.505(11) n
D1A H1B 1_555 1.505(11) n
D2A Mg1 1_566 2.759(8) n
D2A Cl1 -1_666 2.134(10) n
D2A O2 1_555 0.987(9) n
D2A D2B 1_555 1.582(11) n
D2A H2B 1_555 1.582(11) n
D3A Mg1 1_565 2.654(9) n
D3A Cl1 1_555 2.200(10) n
D3A O3 1_555 0.969(9) n
D3A D3B 1_555 1.420(12) n
D3A H3B 1_555 1.420(12) n
D3B Mg1 1_565 2.741(9) n
D3B Cl1 1_565 2.578(11) n
D3B O3 1_555 0.902(10) n
D3B D3A 1_555 1.420(12) n
D3B H3A 1_555 1.420(12) n
D1B Mg1 1_556 2.649(9) n
D1B Cl1 1_556 2.552(8) n
D1B O1 1_555 0.923(9) n
D1B D1A 1_555 1.505(11) n
D1B H1A 1_555 1.505(11) n
D2B Mg1 1_566 2.568(9) n
D2B Cl1 -1_566 2.455(10) n
D2B O2 1_555 0.913(10) n
D2B D2A 1_555 1.582(11) n
D2B H2A 1_555 1.582(11) n
H1A Mg1 1_556 2.659(8) n
H1A Cl1 1_555 2.214(11) n
H1A O1 1_555 0.910(9) n
H1A D1B 1_555 1.505(11) n
H1A H1B 1_555 1.505(11) n
H1B Mg1 1_556 2.649(9) n
H1B Cl1 1_556 2.552(8) n
H1B O1 1_555 0.923(9) n
H1B D1A 1_555 1.505(11) n
H1B H1A 1_555 1.505(11) n
H2A Mg1 1_566 2.759(8) n
H2A Cl1 -1_666 2.134(10) n
H2A O2 1_555 0.987(9) n
H2A D2B 1_555 1.582(11) n
H2A H2B 1_555 1.582(11) n
H2B Mg1 1_566 2.568(9) n
H2B Cl1 -1_566 2.455(10) n
H2B O2 1_555 0.913(10) n
H2B D2A 1_555 1.582(11) n
H2B H2A 1_555 1.582(11) n
H3A Mg1 1_565 2.654(9) n
H3A Cl1 1_555 2.200(10) n
H3A O3 1_555 0.969(9) n
H3A D3B 1_555 1.420(12) n
H3A H3B 1_555 1.420(12) n
H3B Mg1 1_565 2.741(9) n
H3B Cl1 1_565 2.578(11) n
H3B O3 1_555 0.902(10) n
H3B D3A 1_555 1.420(12) n
H3B H3A 1_555 1.420(12) n
loop_
_pd_meas_time_of_flight
_pd_proc_d_spacing
_pd_meas_intensity_total
_pd_proc_ls_weight
_pd_proc_intensity_bkg_calc
_pd_calc_intensity_total
2850.00 . 0.0421(3) . . .
2870.00 . 0.0418(3) . . .
2890.00 . 0.0414(3) . . .
2910.00 . 0.0409(3) . . .
2930.00 . 0.0416(3) . . .
2950.00 . 0.0407(3) . . .
2970.00 . 0.0403(3) . . .
2990.00 . 0.0400(3) . . .
3010.00 . 0.0397(3) . . .
3030.00 . 0.0394(3) . . .
3050.00 . 0.0388(3) . . .
3070.00 . 0.0390(3) . . .
3090.00 . 0.0385(3) . . .
3110.00 . 0.0390(3) . . .
3130.00 . 0.0385(3) . . .
3150.00 . 0.0387(3) . . .
3170.00 . 0.0382(3) . . .
3190.00 . 0.0384(3) . . .
3210.00 . 0.0381(3) . . .
3230.00 . 0.0380(3) . . .
3250.00 . 0.0380(3) . . .
3270.00 . 0.0377(3) . . .
3290.00 . 0.0376(3) . . .
3310.00 . 0.0385(3) . . .
3330.00 . 0.0387(3) . . .
3350.00 . 0.0386(3) . . .
3370.00 . 0.0388(3) . . .
3390.00 . 0.0389(3) . . .
3410.00 . 0.0392(3) . . .
3430.00 . 0.0393(3) . . .
3450.00 . 0.0398(3) . . .
3470.00 . 0.0398(3) . . .
3490.00 . 0.0403(3) . . .
3510.0 . 0.0408(3) . . .
3530.0 . 0.0411(3) . . .
3550.0 . 0.0413(3) . . .
3570.0 . 0.0416(3) . . .
3590.0 . 0.0423(3) . . .
3610.0 . 0.0422(3) . . .
3630.0 . 0.0424(3) . . .
3650.0 . 0.0428(3) . . .
3670.0 . 0.0431(3) . . .
3690.0 . 0.0438(3) . . .
3710.0 . 0.0437(3) . . .
3730.0 . 0.0442(3) . . .
3750.0 . 0.0446(3) . . .
3770.0 . 0.0448(3) . . .
3790.0 . 0.0452(3) . . .
3810.0 . 0.0453(3) . . .
3830.0 . 0.0455(3) . . .
3850.0 . 0.0460(3) . . .
3870.0 . 0.0462(3) . . .
3890.0 . 0.0462(3) . . .
3910.0 . 0.0466(3) . . .
3930.0 . 0.0463(3) . . .
3950.0 . 0.0472(3) . . .
3970.0 . 0.0472(3) . . .
3990.0 . 0.0482(3) . . .
4010.0 . 0.0480(3) . . .
4030.0 . 0.0484(3) . . .
4050.0 . 0.0485(3) . . .
4070.0 . 0.0492(3) . . .
4090.0 . 0.0491(3) . . .
4110.0 . 0.0492(3) . . .
4130.0 . 0.0489(3) . . .
4150.0 . 0.0501(3) . . .
4170.0 . 0.0501(3) . . .
4190.0 . 0.0503(3) . . .
4210.0 . 0.0498(3) . . .
4230.0 . 0.0508(3) . . .
4250.0 . 0.0505(3) . . .
4270.0 . 0.0505(3) . . .
4290.0 . 0.0507(3) . . .
4310.0 . 0.0511(3) . . .
4330.0 . 0.0508(3) . . .
4350.0 . 0.0514(3) . . .
4370.0 . 0.0510(3) . . .
4390.0 . 0.0518(3) . . .
4410.0 . 0.0519(3) . . .
4430.0 . 0.0512(3) . . .
4450.0 . 0.0520(3) . . .
4470.0 . 0.0520(3) . . .
4490.0 . 0.0519(3) . . .
4510.0 . 0.0521(3) . . .
4530.0 . 0.0519(3) . . .
4550.0 . 0.0522(3) . . .
4570.0 . 0.0522(3) . . .
4590.0 . 0.0516(3) . . .
4610.0 . 0.0527(3) . . .
4630.0 . 0.0526(3) . . .
4650.0 . 0.0524(3) . . .
4670.0 . 0.0516(3) . . .
4690.0 . 0.0525(3) . . .
4710.0 . 0.0524(3) . . .
4730.0 . 0.0519(3) . . .
4750.0 . 0.0522(3) . . .
4770.0 . 0.0524(3) . . .
4790.0 . 0.0520(3) . . .
4810.0 . 0.0524(3) . . .
4830.0 . 0.0513(3) . . .
4850.0 . 0.0515(3) . . .
4870.0 . 0.0511(3) . . .
4890.0 . 0.0508(3) . . .
4910.0 . 0.0510(3) . . .
4930.0 . 0.0509(3) . . .
4950.0 . 0.0512(3) . . .
4970.0 . 0.0506(3) . . .
4990.0 . 0.0511(3) . . .
5010.0 . 0.0510(3) . . .
5030.0 . 0.0505(3) . . .
5050.0 . 0.0500(3) . . .
5070.0 . 0.0500(3) . . .
5090.0 . 0.0494(3) . . .
5110.0 . 0.0501(3) . . .
5130.0 . 0.0494(3) . . .
5150.0 . 0.0496(3) . . .
5170.0 . 0.0496(3) . . .
5190.0 . 0.0498(3) . . .
5210.0 . 0.0491(3) . . .
5230.0 . 0.0497(3) . . .
5250.0 . 0.0497(3) . . .
5270.0 . 0.0494(3) . . .
5290.0 . 0.0497(3) . . .
5310.0 . 0.0500(3) . . .
5330.0 . 0.0500(3) . . .
5350.0 . 0.0502(3) . . .
5370.0 . 0.0501(3) . . .
5390.0 . 0.0506(3) . . .
5410.0 . 0.0504(3) . . .
5430.0 . 0.0507(3) . . .
5450.0 . 0.0508(3) . . .
5470.0 . 0.0508(3) . . .
5490.0 . 0.0504(3) . . .
5510.0 . 0.0512(3) . . .
5530.0 . 0.0513(4) . . .
5550.0 . 0.0506(4) . . .
5570.0 . 0.0512(4) . . .
5590.0 . 0.0512(4) . . .
5610.0 . 0.0510(4) . . .
5630.0 . 0.0516(4) . . .
5650.0 . 0.0524(4) . . .
5670.0 . 0.0519(4) . . .
5690.0 . 0.0520(4) . . .
5710.0 . 0.0516(4) . . .
5730.0 . 0.0524(4) . . .
5750.0 . 0.0521(4) . . .
5770.0 . 0.0530(4) . . .
5790.0 0.61098 0.0534(4) 0.0 0.05453 .
5810.0 0.61310 0.0533(4) 0.0 0.05444 .
5830.0 0.61521 0.0541(4) 0.0 0.05437 .
5850.0 0.61732 0.0532(4) 0.0 0.05430 .
5870.0 0.61943 0.0543(4) 0.0 0.05423 .
5890.0 0.62154 0.0540(4) 0.0 0.05418 .
5910.0 0.62366 0.0541(4) 0.0 0.05413 .
5930.0 0.62577 0.0544(4) 0.0 0.05408 .
5950.0 0.62788 0.0551(4) 0.0 0.05405 .
5970.0 0.62999 0.0549(4) 0.0 0.05401 .
5990.0 0.63211 0.0553(4) 6610538. 0.05399 0.05620
6010.0 0.63422 0.0554(4) 6560349. 0.05397 0.05581
6030.0 0.63633 0.0551(4) 6543627. 0.05395 0.05608
6050.0 0.63844 0.0558(4) 6420991. 0.05394 0.05637
6070.0 0.64056 0.0557(4) 6387786. 0.05393 0.05645
6090.0 0.64267 0.0558(4) 6332829. 0.05393 0.05687
6110.0 0.64478 0.0561(4) 6258097. 0.05393 0.05690
6130.0 0.64689 0.0560(4) 6218992. 0.05393 0.05662
6150.0 0.64901 0.0568(4) 6106724. 0.05394 0.05660
6170.0 0.65112 0.0570(4) 6048171. 0.05395 0.05685
6190.0 0.65323 0.0563(4) 6076379. 0.05396 0.05699
6210.0 0.65534 0.0570(4) 5963608. 0.05398 0.05680
6230.0 0.65746 0.0568(4) 5942196. 0.05400 0.05627
6250.0 0.65957 0.0561(4) 5969899. 0.05402 0.05594
6270.0 0.66168 0.0561(4) 5934005. 0.05405 0.05615
6290.0 0.66379 0.0574(4) 5769076. 0.05408 0.05657
6310.0 0.66591 0.0579(4) 5682148. 0.05411 0.05641
6330.0 0.66802 0.0563(4) 5800609. 0.05414 0.05593
6350.0 0.67013 0.0565(4) 5746173. 0.05417 0.05593
6370.0 0.67224 0.0571(4) 5663140. 0.05420 0.05608
6390.0 0.67436 0.0569(4) 5641931. 0.05424 0.05658
6410.0 0.67647 0.0571(4) 5593404. 0.05428 0.05752
6430.0 0.67858 0.0584(4) 5439110. 0.05432 0.05734
6450.0 0.68069 0.0589(4) 5361045. 0.05436 0.05662
6470.0 0.68281 0.0579(4) 5417820. 0.05440 0.05620
6490.0 0.68492 0.0575(4) 5426206. 0.05444 0.05632
6510.0 0.68703 0.0578(4) 5373067. 0.05448 0.05670
6530.0 0.68914 0.0579(4) 5322775. 0.05453 0.05669
6550.0 0.69126 0.0582(4) 5270077. 0.05457 0.05664
6570.0 0.69337 0.0572(4) 5323847. 0.05461 0.05661
6590.0 0.69548 0.0565(4) 5352681. 0.05466 0.05647
6610.0 0.69759 0.0572(4) 5264602. 0.05470 0.05638
6630.0 0.69971 0.0574(4) 5218469. 0.05475 0.05690
6650.0 0.70182 0.0587(4) 5081513. 0.05479 0.05792
6670.0 0.70393 0.0589(4) 5032490. 0.05484 0.05850
6690.0 0.70604 0.0585(4) 5041145. 0.05488 0.05812
6710.0 0.70816 0.0590(4) 4968004. 0.05493 0.05815
6730.0 0.71027 0.0592(5) 4936231. 0.05497 0.05832
6750.0 0.71238 0.0591(5) 4916212. 0.05502 0.05797
6770.0 0.71449 0.0604(5) 4787814. 0.05506 0.05783
6790.0 0.71661 0.0602(5) 4777485. 0.05510 0.05827
6810.0 0.71872 0.0598(5) 4788381. 0.05514 0.05827
6830.0 0.72083 0.0594(5) 4790476. 0.05519 0.05769
6850.0 0.72294 0.0594(5) 4771951. 0.05523 0.05777
6870.0 0.72506 0.0589(5) 4786735. 0.05527 0.05796
6890.0 0.72717 0.0584(5) 4806283. 0.05531 0.05804
6910.0 0.72928 0.0589(5) 4739607. 0.05535 0.05843
6930.0 0.73139 0.0590(5) 4713742. 0.05538 0.05916
6950.0 0.73351 0.0598(5) 4629412. 0.05542 0.05983
6970.0 0.73562 0.0608(5) 4536925. 0.05546 0.05990
6990.0 0.73773 0.0611(5) 4497730. 0.05549 0.05951
7010.0 0.73984 0.0607(5) 4504669. 0.05553 0.05915
7030.0 0.74196 0.0607(5) 4483665. 0.05556 0.05978
7050.0 0.74407 0.0609(5) 4455535. 0.05559 0.06052
7070.0 0.74618 0.0605(5) 4458820. 0.05562 0.06077
7090.0 0.74829 0.0612(5) 4392708. 0.05565 0.06095
7110.0 0.75041 0.0608(5) 4403374. 0.05568 0.06025
7130.0 0.75252 0.0592(5) 4494413. 0.05571 0.05897
7150.0 0.75463 0.0581(5) 4557050. 0.05573 0.05850
7170.0 0.75674 0.0582(5) 4535166. 0.05576 0.05875
7190.0 0.75886 0.0568(5) 4618754. 0.05578 0.05855
7210.0 0.76097 0.0579(5) 4517687. 0.05580 0.05796
7230.0 0.76308 0.0580(5) 4493596. 0.05582 0.05802
7250.0 0.76519 0.0576(5) 4509713. 0.05584 0.05869
7270.0 0.76731 0.0574(5) 4501939. 0.05586 0.05894
7290.0 0.76942 0.0575(5) 4478048. 0.05587 0.05903
7310.0 0.77153 0.0585(5) 4393095. 0.05589 0.05924
7330.0 0.77365 0.0579(5) 4423182. 0.05590 0.05917
7350.0 0.77576 0.0587(5) 4344454. 0.05592 0.05898
7370.0 0.77787 0.0587(5) 4332047. 0.05593 0.05917
7390.0 0.77998 0.0575(5) 4406733. 0.05594 0.05916
7410.0 0.78210 0.0573(5) 4402942. 0.05594 0.05850
7430.0 0.78421 0.0563(5) 4463329. 0.05595 0.05812
7450.0 0.78632 0.0574(5) 4365915. 0.05596 0.05821
7470.0 0.78843 0.0566(5) 4408986. 0.05596 0.05808
7490.0 0.79055 0.0558(5) 4453368. 0.05596 0.05794
7510.0 0.79266 0.0563(5) 4401850. 0.05596 0.05798
7530.0 0.79477 0.0548(5) 4504309. 0.05596 0.05830
7550.0 0.79688 0.0573(5) 4305152. 0.05596 0.05933
7570.0 0.79900 0.0567(5) 4334229. 0.05596 0.06010
7590.0 0.80111 0.0566(5) 4326852. 0.05595 0.05978
7610.0 0.80322 0.0577(5) 4238459. 0.05595 0.05959
7630.0 0.80533 0.0570(5) 4270119. 0.05594 0.05983
7650.0 0.80745 0.0582(5) 4174639. 0.05593 0.05972
7670.0 0.80956 0.0578(5) 4189156. 0.05592 0.05943
7690.0 0.81167 0.0583(5) 4146550. 0.05591 0.05962
7710.0 0.81379 0.0573(5) 4203480. 0.05590 0.06032
7730.0 0.81590 0.0584(5) 4114385. 0.05588 0.06051
7750.0 0.81801 0.0586(5) 4089843. 0.05587 0.05998
7770.0 0.82012 0.0582(5) 4103824. 0.05585 0.05951
7790.0 0.82224 0.0580(5) 4109455. 0.05583 0.05976
7810.0 0.82435 0.0585(5) 4062231. 0.05581 0.06054
7830.0 0.82646 0.0599(5) 3967819. 0.05579 0.06086
7850.0 0.82857 0.0593(5) 3995523. 0.05577 0.06009
7870.0 0.83069 0.0592(5) 3992426. 0.05575 0.05931
7890.0 0.83280 0.0585(5) 4028727. 0.05572 0.05900
7910.0 0.83491 0.0593(5) 3968578. 0.05570 0.05864
7930.0 0.83702 0.0589(5) 3984246. 0.05567 0.05864
7950.0 0.83914 0.0588(5) 3980510. 0.05565 0.05902
7970.0 0.84125 0.0589(5) 3966871. 0.05562 0.05892
7990.0 0.84336 0.0598(5) 3901181. 0.05559 0.05881
8010.0 0.84548 0.0598(5) 3888490. 0.05556 0.05947
8030.0 0.84759 0.0606(5) 3835125. 0.05552 0.06026
8050.0 0.84970 0.0601(5) 3856076. 0.05549 0.06073
8070.0 0.85181 0.0610(5) 3791387. 0.05546 0.06143
8090.0 0.85393 0.0613(5) 3768656. 0.05542 0.06195
8110.0 0.85604 0.0630(5) 3659158. 0.05538 0.06185
8130.0 0.85815 0.0625(5) 3682366. 0.05535 0.06127
8150.0 0.86027 0.0611(5) 3756584. 0.05531 0.06023
8170.0 0.86238 0.0611(5) 3749502. 0.05527 0.05917
8190.0 0.86449 0.0592(5) 3857508. 0.05523 0.05859
8210.0 0.86660 0.0589(5) 3871730. 0.05519 0.05866
8230.0 0.86872 0.0594(5) 3828375. 0.05515 0.05927
8250.0 0.87083 0.0612(5) 3714937. 0.05511 0.05994
8270.0 0.87294 0.0622(5) 3649608. 0.05506 0.06017
8290.0 0.87505 0.0611(5) 3713183. 0.05502 0.06024
8310.0 0.87717 0.0607(5) 3729702. 0.05497 0.05985
8330.0 0.87928 0.0601(5) 3759418. 0.05493 0.05972
8350.0 0.88139 0.0608(5) 3711474. 0.05488 0.05983
8370.0 0.88351 0.0619(5) 3642229. 0.05483 0.05930
8390.0 0.88562 0.0596(5) 3772719. 0.05478 0.05819
8410.0 0.88773 0.0593(5) 3783684. 0.05474 0.05779
8430.0 0.88984 0.0604(5) 3714121. 0.05469 0.05864
8450.0 0.89196 0.0615(5) 3639853. 0.05464 0.05980
8470.0 0.89407 0.0620(5) 3609983. 0.05459 0.05961
8490.0 0.89618 0.0607(5) 3675056. 0.05453 0.05910
8510.0 0.89829 0.0616(5) 3617773. 0.05448 0.05966
8530.0 0.90041 0.0628(5) 3544293. 0.05443 0.06048
8550.0 0.90252 0.0626(5) 3550761. 0.05438 0.06029
8570.0 0.90463 0.0626(5) 3543452. 0.05432 0.05986
8590.0 0.90675 0.0631(5) 3511749. 0.05427 0.06004
8610.0 0.90886 0.0627(5) 3528399. 0.05422 0.06045
8630.0 0.91097 0.0630(5) 3505060. 0.05416 0.06047
8650.0 0.91308 0.0610(5) 3613717. 0.05411 0.05957
8670.0 0.91520 0.0582(5) 3772800. 0.05405 0.05788
8690.0 0.91731 0.0560(5) 3907815. 0.05400 0.05646
8710.0 0.91942 0.0561(5) 3900195. 0.05394 0.05573
8730.0 0.92154 0.0566(5) 3857946. 0.05388 0.05564
8750.0 0.92365 0.0563(5) 3870236. 0.05383 0.05605
8770.0 0.92576 0.0570(5) 3822338. 0.05377 0.05682
8790.0 0.92787 0.0567(5) 3837237. 0.05371 0.05743
8810.0 0.92999 0.0570(5) 3812462. 0.05365 0.05753
8830.0 0.93210 0.0569(5) 3810981. 0.05360 0.05741
8850.0 0.93421 0.0584(5) 3715925. 0.05354 0.05730
8870.0 0.93633 0.0578(5) 3746194. 0.05348 0.05759
8890.0 0.93844 0.0590(5) 3669454. 0.05342 0.05779
8910.0 0.94055 0.0590(5) 3666651. 0.05336 0.05740
8930.0 0.94266 0.0602(5) 3589405. 0.05330 0.05762
8950.0 0.94478 0.0614(5) 3518214. 0.05324 0.05925
8970.0 0.94689 0.0639(5) 3381551. 0.05319 0.06115
8990.0 0.94900 0.0642(5) 3361252. 0.05313 0.06173
9010.0 0.95112 0.0630(5) 3421006. 0.05307 0.06079
9030.0 0.95323 0.0620(5) 3468605. 0.05301 0.05993
9050.0 0.95534 0.0618(5) 3476020. 0.05295 0.05942
9070.0 0.95745 0.0621(5) 3458286. 0.05289 0.05957
9090.0 0.95957 0.0626(5) 3424248. 0.05283 0.06049
9110.0 0.96168 0.0627(5) 3420064. 0.05277 0.06072
9130.0 0.96379 0.0607(5) 3521616. 0.05271 0.05996
9150.0 0.96591 0.0574(5) 3716369. 0.05265 0.05968
9170.0 0.96802 0.0585(5) 3640186. 0.05259 0.05971
9190.0 0.97013 0.0585(5) 3641047. 0.05253 0.05957
9210.0 0.97224 0.0606(5) 3516090. 0.05248 0.06012
9230.0 0.97436 0.0629(5) 3387391. 0.05242 0.06134
9250.0 0.97647 0.0633(5) 3364163. 0.05236 0.06234
9270.0 0.97858 0.0639(5) 3329946. 0.05230 0.06260
9290.0 0.98070 0.0621(5) 3422507. 0.05224 0.06116
9310.0 0.98281 0.0602(5) 3527736. 0.05218 0.05853
9330.0 0.98492 0.0579(5) 3662715. 0.05213 0.05676
9350.0 0.98704 0.0563(5) 3753694. 0.05207 0.05743
9370.0 0.98915 0.0577(5) 3665908. 0.05201 0.06024
9390.0 0.99126 0.0586(5) 3605207. 0.05195 0.06206
9410.0 0.99337 0.0587(5) 3595588. 0.05190 0.06054
9430.0 0.99549 0.0559(5) 3762540. 0.05184 0.05817
9450.0 0.99760 0.0563(5) 3737529. 0.05178 0.05735
9470.0 0.99971 0.0561(5) 3749030. 0.05173 0.05763
9490.0 1.00183 0.0573(5) 3673028. 0.05167 0.05753
9510.0 1.00394 0.0575(5) 3658443. 0.05161 0.05617
9530.0 1.00605 0.0560(5) 3751623. 0.05156 0.05449
9550.0 1.00816 0.0539(5) 3884536. 0.05150 0.05335
9570.0 1.01028 0.0535(5) 3910111. 0.05145 0.05290
9590.0 1.01239 0.0528(5) 3963018. 0.05140 0.05283
9610.0 1.01450 0.0526(5) 3977336. 0.05134 0.05278
9630.0 1.01662 0.0535(5) 3912084. 0.05129 0.05299
9650.0 1.01873 0.0520(5) 4014673. 0.05123 0.05358
9670.0 1.02084 0.0540(5) 3878671. 0.05118 0.05426
9690.0 1.02296 0.0539(5) 3881063. 0.05113 0.05484
9710.0 1.02507 0.0548(5) 3821067. 0.05108 0.05523
9730.0 1.02718 0.0545(5) 3839147. 0.05103 0.05506
9750.0 1.02929 0.0542(5) 3863864. 0.05097 0.05460
9770.0 1.03141 0.0530(5) 3945420. 0.05092 0.05439
9790.0 1.03352 0.0526(5) 3973135. 0.05087 0.05468
9810.0 1.03563 0.0534(5) 3913833. 0.05082 0.05490
9830.0 1.03775 0.0535(5) 3907383. 0.05077 0.05454
9850.0 1.03986 0.0527(5) 3961275. 0.05072 0.05443
9870.0 1.04197 0.0552(5) 3790619. 0.05068 0.05522
9890.0 1.04409 0.0569(5) 3682705. 0.05063 0.05620
9910.0 1.04620 0.0562(5) 3726175. 0.05058 0.05592
9930.0 1.04831 0.0544(5) 3841924. 0.05053 0.05439
9950.0 1.05042 0.0536(5) 3899401. 0.05049 0.05310
9970.0 1.05254 0.0526(5) 3966752. 0.05044 0.05296
9990.0 1.05465 0.0525(5) 3978661. 0.05039 0.05382
10010.0 1.05676 0.0538(5) 3887356. 0.05035 0.05482
10030.0 1.05888 0.0549(5) 3814034. 0.05030 0.05483
10050.0 1.06099 0.0546(5) 3830938. 0.05026 0.05399
10070.0 1.06310 0.0542(5) 3861950. 0.05022 0.05346
10090.0 1.06522 0.0540(5) 3874230. 0.05017 0.05376
10110.0 1.06733 0.0553(5) 3791018. 0.05013 0.05484
10130.0 1.06944 0.0562(5) 3735023. 0.05009 0.05645
10150.0 1.07155 0.0584(5) 3599027. 0.05005 0.05760
10170.0 1.07367 0.0565(5) 3719638. 0.05001 0.05653
10190.0 1.07578 0.0548(5) 3829072. 0.04997 0.05428
10210.0 1.07789 0.0525(5) 3985757. 0.04993 0.05291
10230.0 1.08001 0.0543(5) 3865467. 0.04989 0.05350
10250.0 1.08212 0.0582(5) 3621526. 0.04985 0.05673
10270.0 1.08423 0.0638(5) 3308930. 0.04981 0.06225
10290.0 1.08635 0.0699(6) 3023901. 0.04977 0.06658
10310.0 1.08846 0.0700(6) 3023296. 0.04973 0.06531
10330.0 1.09057 0.0643(6) 3293019. 0.04970 0.06051
10350.0 1.09269 0.0571(5) 3698131. 0.04966 0.05665
10370.0 1.09480 0.0546(5) 3863583. 0.04962 0.05510
10390.0 1.09691 0.0546(5) 3861442. 0.04959 0.05499
10410.0 1.09902 0.0564(5) 3749880. 0.04956 0.05534
10430.0 1.10114 0.0563(5) 3759884. 0.04952 0.05565
10450.0 1.10325 0.0549(5) 3857704. 0.04949 0.05539
10470.0 1.10536 0.0554(5) 3821343. 0.04945 0.05464
10490.0 1.10748 0.0535(5) 3954794. 0.04942 0.05443
10510.0 1.10959 0.0550(5) 3856507. 0.04939 0.05548
10530.0 1.11170 0.0559(5) 3796145. 0.04936 0.05714
10550.0 1.11382 0.0563(5) 3776056. 0.04933 0.05743
10570.0 1.11593 0.0540(5) 3931500. 0.04930 0.05584
10590.0 1.11804 0.0532(5) 3989611. 0.04927 0.05418
10610.0 1.12016 0.0526(5) 4033533. 0.04924 0.05376
10630.0 1.12227 0.0544(5) 3910915. 0.04921 0.05506
10650.0 1.12438 0.0577(5) 3699639. 0.04918 0.05791
10670.0 1.12649 0.0631(5) 3393615. 0.04915 0.06070
10690.0 1.12861 0.0637(5) 3369068. 0.04913 0.06177
10710.0 1.13072 0.0629(5) 3410936. 0.04910 0.06232
10730.0 1.13283 0.0630(5) 3413369. 0.04908 0.06392
10750.0 1.13495 0.0651(6) 3304835. 0.04905 0.06566
10770.0 1.13706 0.0666(6) 3236183. 0.04902 0.06517
10790.0 1.13917 0.0635(5) 3394616. 0.04900 0.06179
10810.0 1.14129 0.0596(5) 3611794. 0.04898 0.05830
10830.0 1.14340 0.0583(5) 3693031. 0.04895 0.05653
10850.0 1.14551 0.0574(5) 3755522. 0.04893 0.05639
10870.0 1.14763 0.0590(5) 3664153. 0.04891 0.05738
10890.0 1.14974 0.0581(5) 3721461. 0.04889 0.05817
10910.0 1.15185 0.0567(5) 3814734. 0.04886 0.05745
10930.0 1.15397 0.0563(5) 3842587. 0.04884 0.05596
10950.0 1.15608 0.0541(5) 3997936. 0.04882 0.05494
10970.0 1.15819 0.0540(5) 4005258. 0.04880 0.05450
10990.0 1.16031 0.0566(5) 3831944. 0.04878 0.05428
11010.0 1.16242 0.0567(5) 3834510. 0.04876 0.05396
11030.0 1.16453 0.0575(5) 3788008. 0.04875 0.05337
11050.0 1.16664 0.0553(5) 3936907. 0.04873 0.05248
11070.0 1.16876 0.0530(5) 4104360. 0.04871 0.05144
11090.0 1.17087 0.0513(5) 4242303. 0.04869 0.05052
11110.0 1.17298 0.0496(5) 4387563. 0.04868 0.04989
11130.0 1.17510 0.0493(5) 4419401. 0.04866 0.04959
11150.0 1.17721 0.0490(5) 4447336. 0.04864 0.04958
11170.0 1.17932 0.0489(5) 4460722. 0.04863 0.04975
11190.0 1.18144 0.0489(5) 4470088. 0.04861 0.04992
11210.0 1.18355 0.0491(5) 4459011. 0.04860 0.04994
11230.0 1.18566 0.0488(5) 4490472. 0.04858 0.04999
11250.0 1.18778 0.0487(5) 4506929. 0.04857 0.05048
11270.0 1.18989 0.0494(5) 4455210. 0.04856 0.05159
11290.0 1.19200 0.0514(5) 4296857. 0.04854 0.05294
11310.0 1.19412 0.0517(5) 4282998. 0.04853 0.05351
11330.0 1.19623 0.0524(5) 4231064. 0.04852 0.05300
11350.0 1.19834 0.0502(5) 4409972. 0.04851 0.05223
11370.0 1.20046 0.0494(5) 4490990. 0.04850 0.05185
11390.0 1.20257 0.0509(5) 4372053. 0.04849 0.05198
11410.0 1.20468 0.0524(5) 4261398. 0.04848 0.05229
11430.0 1.20680 0.0520(5) 4296495. 0.04847 0.05231
11450.0 1.20891 0.0518(5) 4320168. 0.04846 0.05200
11470.0 1.21102 0.0519(5) 4321326. 0.04845 0.05150
11490.0 1.21314 0.0531(5) 4237166. 0.04844 0.05078
11510.0 1.21525 0.0530(5) 4251772. 0.04843 0.05005
11530.0 1.21736 0.0532(5) 4249702. 0.04842 0.04957
11550.0 1.21948 0.0508(5) 4440766. 0.04841 0.04942
11570.0 1.22159 0.0493(5) 4582291. 0.04840 0.04958
11590.0 1.22370 0.0485(5) 4658091. 0.04840 0.05013
11610.0 1.22582 0.0504(5) 4504112. 0.04839 0.05106
11630.0 1.22793 0.0527(5) 4328404. 0.04838 0.05211
11650.0 1.23004 0.0538(5) 4247727. 0.04837 0.05283
11670.0 1.23216 0.0535(5) 4275370. 0.04837 0.05322
11690.0 1.23427 0.0553(5) 4146004. 0.04836 0.05415
11710.0 1.23638 0.0556(5) 4131337. 0.04836 0.05618
11730.0 1.23849 0.0573(5) 4024458. 0.04835 0.05904
11750.0 1.24061 0.0594(5) 3889349. 0.04835 0.06208
11770.0 1.24272 0.0620(5) 3737797. 0.04834 0.06448
11790.0 1.24483 0.0641(5) 3619646. 0.04834 0.06539
11810.0 1.24695 0.0631(5) 3682931. 0.04833 0.06378
11830.0 1.24906 0.0586(5) 3967242. 0.04833 0.05978
11850.0 1.25117 0.0556(5) 4180433. 0.04832 0.05609
11870.0 1.25329 0.0535(5) 4348073. 0.04832 0.05480
11890.0 1.25540 0.0552(5) 4226882. 0.04832 0.05650
11910.0 1.25751 0.0564(5) 4146992. 0.04831 0.06029
11930.0 1.25963 0.0598(5) 3921960. 0.04831 0.06385
11950.0 1.26174 0.0605(5) 3883319. 0.04831 0.06431
11970.0 1.26385 0.0591(5) 3984469. 0.04830 0.06132
11990.0 1.26597 0.0558(5) 4223871. 0.04830 0.05761
12010.0 1.26808 0.0543(5) 4338684. 0.04830 0.05567
12030.0 1.27019 0.0545(5) 4334889. 0.04830 0.05600
12050.0 1.27231 0.0554(5) 4272668. 0.04829 0.05723
12070.0 1.27442 0.0553(5) 4287210. 0.04829 0.05742
12090.0 1.27653 0.0545(5) 4353067. 0.04829 0.05624
12110.0 1.27865 0.0538(5) 4416243. 0.04829 0.05440
12130.0 1.28076 0.0526(5) 4520663. 0.04829 0.05245
12150.0 1.28287 0.0514(5) 4632634. 0.04829 0.05101
12170.0 1.28499 0.0500(5) 4760805. 0.04829 0.05020
12190.0 1.28710 0.0498(5) 4788840. 0.04828 0.04990
12210.0 1.28921 0.0495(5) 4824800. 0.04828 0.04998
12230.0 1.29133 0.0494(5) 4842378. 0.04828 0.05042
12250.0 1.29344 0.0509(5) 4720332. 0.04828 0.05153
12270.0 1.29555 0.0512(5) 4706233. 0.04828 0.05360
12290.0 1.29767 0.0536(5) 4504805. 0.04828 0.05641
12310.0 1.29978 0.0568(5) 4264195. 0.04828 0.05891
12330.0 1.30190 0.0576(5) 4216400. 0.04828 0.06007
12350.0 1.30401 0.0581(5) 4187762. 0.04828 0.05988
12370.0 1.30612 0.0575(5) 4243046. 0.04828 0.05913
12390.0 1.30824 0.0572(5) 4272058. 0.04828 0.05890
12410.0 1.31035 0.0588(5) 4162447. 0.04828 0.05951
12430.0 1.31246 0.0606(5) 4047924. 0.04828 0.06090
12450.0 1.31458 0.0630(5) 3903509. 0.04828 0.06218
12470.0 1.31669 0.0625(5) 3939933. 0.04828 0.06205
12490.0 1.31880 0.0605(5) 4075331. 0.04828 0.06085
12510.0 1.32092 0.0568(5) 4348757. 0.04828 0.05881
12530.0 1.32303 0.0541(5) 4564851. 0.04828 0.05676
12550.0 1.32514 0.0539(5) 4593108. 0.04828 0.05626
12570.0 1.32726 0.0560(5) 4432087. 0.04828 0.05795
12590.0 1.32937 0.0592(5) 4206864. 0.04828 0.06101
12610.0 1.33148 0.0628(5) 3979209. 0.04828 0.06334
12630.0 1.33360 0.0643(5) 3891866. 0.04828 0.06360
12650.0 1.33571 0.0633(5) 3960936. 0.04828 0.06248
12670.0 1.33782 0.0613(5) 4096964. 0.04828 0.06115
12690.0 1.33994 0.0597(5) 4207540. 0.04828 0.06010
12710.0 1.34205 0.0590(5) 4264786. 0.04828 0.05851
12730.0 1.34416 0.0578(5) 4362256. 0.04828 0.05633
12750.0 1.34628 0.0551(5) 4578232. 0.04828 0.05437
12770.0 1.34839 0.0540(5) 4674330. 0.04828 0.05293
12790.0 1.35050 0.0538(5) 4702354. 0.04828 0.05202
12810.0 1.35262 0.0533(5) 4749396. 0.04828 0.05170
12830.0 1.35473 0.0541(5) 4689218. 0.04828 0.05208
12850.0 1.35684 0.0557(5) 4574444. 0.04828 0.05342
12870.0 1.35896 0.0581(5) 4399400. 0.04828 0.05586
12890.0 1.36107 0.0607(5) 4222583. 0.04828 0.05960
12910.0 1.36318 0.0644(5) 3986203. 0.04828 0.06458
12930.0 1.36530 0.0682(5) 3767383. 0.04828 0.07031
12950.0 1.36741 0.0727(5) 3539460. 0.04828 0.07572
12970.0 1.36952 0.0757(5) 3398447. 0.04828 0.07965
12990.0 1.37164 0.0779(6) 3303363. 0.04828 0.08122
13010.0 1.37375 0.0761(5) 3391022. 0.04828 0.07827
13030.0 1.37587 0.0718(5) 3608371. 0.04828 0.07137
13050.0 1.37798 0.0650(5) 3996737. 0.04828 0.06450
13070.0 1.38009 0.0601(5) 4334736. 0.04828 0.05974
13090.0 1.38221 0.0576(5) 4523355. 0.04828 0.05680
13110.0 1.38432 0.0550(5) 4737489. 0.04827 0.05486
13130.0 1.38643 0.0542(5) 4810576. 0.04827 0.05368
13150.0 1.38855 0.0541(5) 4830708. 0.04827 0.05334
13170.0 1.39066 0.0543(5) 4816146. 0.04827 0.05352
13190.0 1.39277 0.0552(5) 4752491. 0.04827 0.05359
13210.0 1.39489 0.0548(5) 4788380. 0.04827 0.05336
13230.0 1.39700 0.0548(5) 4798548. 0.04827 0.05319
13250.0 1.39911 0.0548(5) 4804258. 0.04826 0.05340
13270.0 1.40123 0.0550(5) 4797076. 0.04826 0.05448
13290.0 1.40334 0.0556(5) 4753056. 0.04826 0.05670
13310.0 1.40545 0.0583(5) 4545518. 0.04826 0.05962
13330.0 1.40757 0.0616(5) 4312705. 0.04825 0.06205
13350.0 1.40968 0.0638(5) 4171295. 0.04825 0.06325
13370.0 1.41180 0.0646(5) 4127143. 0.04825 0.06257
13390.0 1.41391 0.0638(5) 4186282. 0.04825 0.06074
13410.0 1.41602 0.0616(5) 4335889. 0.04824 0.05841
13430.0 1.41814 0.0592(5) 4513034. 0.04824 0.05582
13450.0 1.42025 0.0582(5) 4602438. 0.04824 0.05371
13470.0 1.42236 0.0566(5) 4727084. 0.04823 0.05271
13490.0 1.42448 0.0555(5) 4827897. 0.04823 0.05304
13510.0 1.42659 0.0564(5) 4761348. 0.04823 0.05446
13530.0 1.42870 0.0581(5) 4631400. 0.04822 0.05643
13550.0 1.43082 0.0591(5) 4560815. 0.04822 0.05847
13570.0 1.43293 0.0625(5) 4321574. 0.04821 0.06035
13590.0 1.43504 0.0638(5) 4240950. 0.04821 0.06193
13610.0 1.43716 0.0638(5) 4245138. 0.04821 0.06286
13630.0 1.43927 0.0631(5) 4296809. 0.04820 0.06202
13650.0 1.44139 0.0598(5) 4534659. 0.04820 0.05907
13670.0 1.44350 0.0566(5) 4800803. 0.04819 0.05544
13690.0 1.44561 0.0530(4) 5120895. 0.04819 0.05259
13710.0 1.44773 0.0512(4) 5301213. 0.04818 0.05093
13730.0 1.44984 0.0510(4) 5335803. 0.04817 0.05030
13750.0 1.45195 0.0498(4) 5464593. 0.04817 0.05039
13770.0 1.45407 0.0519(4) 5255350. 0.04816 0.05108
13790.0 1.45618 0.0528(4) 5184542. 0.04816 0.05224
13810.0 1.45829 0.0546(4) 5029108. 0.04815 0.05378
13830.0 1.46041 0.0572(5) 4813061. 0.04814 0.05539
13850.0 1.46252 0.0593(5) 4649897. 0.04814 0.05701
13870.0 1.46463 0.0602(5) 4594319. 0.04813 0.05871
13890.0 1.46675 0.0614(5) 4509326. 0.04812 0.06058
13910.0 1.46886 0.0617(5) 4492257. 0.04812 0.06220
13930.0 1.47098 0.0634(5) 4383813. 0.04811 0.06343
13950.0 1.47309 0.0650(5) 4279465. 0.04810 0.06406
13970.0 1.47520 0.0642(5) 4336870. 0.04809 0.06294
13990.0 1.47732 0.0629(5) 4435519. 0.04809 0.05985
14010.0 1.47943 0.0619(5) 4508267. 0.04808 0.05645
14030.0 1.48154 0.0619(5) 4518036. 0.04807 0.05409
14050.0 1.48366 0.0612(5) 4577373. 0.04806 0.05317
14070.0 1.48577 0.0607(5) 4616665. 0.04805 0.05358
14090.0 1.48788 0.0598(5) 4692154. 0.04805 0.05487
14110.0 1.49000 0.0611(5) 4603622. 0.04804 0.05664
14130.0 1.49211 0.0613(5) 4596290. 0.04803 0.05822
14150.0 1.49423 0.0637(5) 4428035. 0.04802 0.05886
14170.0 1.49634 0.0638(5) 4427732. 0.04801 0.05844
14190.0 1.49845 0.0623(5) 4543948. 0.04800 0.05710
14210.0 1.50057 0.0594(5) 4769599. 0.04799 0.05509
14230.0 1.50268 0.0557(4) 5086636. 0.04798 0.05306
14250.0 1.50479 0.0535(4) 5298832. 0.04797 0.05167
14270.0 1.50691 0.0512(4) 5534754. 0.04796 0.05129
14290.0 1.50902 0.0510(4) 5563460. 0.04795 0.05203
14310.0 1.51114 0.0517(4) 5500326. 0.04794 0.05370
14330.0 1.51325 0.0522(4) 5458205. 0.04793 0.05562
14350.0 1.51536 0.0539(4) 5295972. 0.04792 0.05667
14370.0 1.51748 0.0536(4) 5333643. 0.04791 0.05600
14390.0 1.51959 0.0524(4) 5453587. 0.04790 0.05417
14410.0 1.52170 0.0514(4) 5568564. 0.04788 0.05248
14430.0 1.52382 0.0506(4) 5668116. 0.04787 0.05178
14450.0 1.52593 0.0512(4) 5604715. 0.04786 0.05243
14470.0 1.52804 0.0538(4) 5354378. 0.04785 0.05428
14490.0 1.53016 0.0564(4) 5114190. 0.04784 0.05662
14510.0 1.53227 0.0577(4) 5012016. 0.04782 0.05809
14530.0 1.53439 0.0577(4) 5009714. 0.04781 0.05760
14550.0 1.53650 0.0563(4) 5136360. 0.04780 0.05547
14570.0 1.53861 0.0537(4) 5391394. 0.04779 0.05301
14590.0 1.54073 0.0510(4) 5667756. 0.04777 0.05111
14610.0 1.54284 0.0497(4) 5810123. 0.04776 0.05002
14630.0 1.54495 0.0495(4) 5841646. 0.04775 0.04970
14650.0 1.54707 0.0489(4) 5917804. 0.04774 0.05009
14670.0 1.54918 0.0496(4) 5857963. 0.04772 0.05141
14690.0 1.55130 0.0509(4) 5710015. 0.04771 0.05398
14710.0 1.55341 0.0542(4) 5388539. 0.04769 0.05778
14730.0 1.55552 0.0582(4) 5039261. 0.04768 0.06191
14750.0 1.55764 0.0612(5) 4800820. 0.04767 0.06450
14770.0 1.55975 0.0608(5) 4839869. 0.04765 0.06376
14790.0 1.56186 0.0586(4) 5025355. 0.04764 0.06036
14810.0 1.56398 0.0564(4) 5224939. 0.04762 0.05645
14830.0 1.56609 0.0521(4) 5649812. 0.04761 0.05332
14850.0 1.56821 0.0506(4) 5813919. 0.04760 0.05123
14870.0 1.57032 0.0494(4) 5961461. 0.04758 0.04998
14890.0 1.57243 0.0491(4) 6011675. 0.04757 0.04927
14910.0 1.57455 0.0487(4) 6064735. 0.04755 0.04893
14930.0 1.57666 0.0479(4) 6163137. 0.04754 0.04885
14950.0 1.57877 0.0476(4) 6219448. 0.04752 0.04900
14970.0 1.58089 0.0485(4) 6121104. 0.04751 0.04934
14990.0 1.58300 0.0492(4) 6044799. 0.04749 0.04984
15010.0 1.58512 0.0501(4) 5953318. 0.04748 0.05042
15030.0 1.58723 0.0500(4) 5965790. 0.04746 0.05118
15050.0 1.58934 0.0523(4) 5727136. 0.04745 0.05227
15070.0 1.59146 0.0527(4) 5687591. 0.04743 0.05381
15090.0 1.59357 0.0555(4) 5422042. 0.04741 0.05561
15110.0 1.59569 0.0578(4) 5215264. 0.04740 0.05739
15130.0 1.59780 0.0607(4) 4978496. 0.04738 0.05914
15150.0 1.59991 0.0620(5) 4877618. 0.04737 0.06076
15170.0 1.60203 0.0632(5) 4791953. 0.04735 0.06174
15190.0 1.60414 0.0613(4) 4950453. 0.04733 0.06152
15210.0 1.60625 0.0602(4) 5049465. 0.04732 0.06023
15230.0 1.60837 0.0574(4) 5298917. 0.04730 0.05846
15250.0 1.61048 0.0552(4) 5515173. 0.04729 0.05693
15270.0 1.61260 0.0536(4) 5684411. 0.04727 0.05610
15290.0 1.61471 0.0531(4) 5745280. 0.04725 0.05550
15310.0 1.61682 0.0528(4) 5787149. 0.04724 0.05454
15330.0 1.61894 0.0527(4) 5803567. 0.04722 0.05313
15350.0 1.62105 0.0514(4) 5962181. 0.04720 0.05162
15370.0 1.62316 0.0508(4) 6034238. 0.04719 0.05031
15390.0 1.62528 0.0491(4) 6238073. 0.04717 0.04942
15410.0 1.62739 0.0488(4) 6295965. 0.04715 0.04895
15430.0 1.62951 0.0485(4) 6339529. 0.04714 0.04894
15450.0 1.63162 0.0486(4) 6345106. 0.04712 0.04935
15470.0 1.63373 0.0492(4) 6279327. 0.04710 0.05014
15490.0 1.63585 0.0500(4) 6193660. 0.04709 0.05107
15510.0 1.63796 0.0502(4) 6171783. 0.04707 0.05176
15530.0 1.64008 0.0499(4) 6225386. 0.04705 0.05183
15550.0 1.64219 0.0502(4) 6190900. 0.04703 0.05131
15570.0 1.64430 0.0499(4) 6242196. 0.04702 0.05053
15590.0 1.64642 0.0493(4) 6319842. 0.04700 0.04988
15610.0 1.64853 0.0497(4) 6287020. 0.04698 0.04961
15630.0 1.65065 0.0500(4) 6259689. 0.04697 0.04969
15650.0 1.65276 0.0508(4) 6177876. 0.04695 0.04998
15670.0 1.65487 0.0503(4) 6244812. 0.04693 0.05020
15690.0 1.65699 0.0512(4) 6141332. 0.04692 0.05031
15710.0 1.65910 0.0503(4) 6262428. 0.04690 0.05040
15730.0 1.66121 0.0507(4) 6224693. 0.04688 0.05067
15750.0 1.66333 0.0505(4) 6254547. 0.04687 0.05104
15770.0 1.66544 0.0503(4) 6291768. 0.04685 0.05125
15790.0 1.66756 0.0501(4) 6319806. 0.04683 0.05122
15810.0 1.66967 0.0509(4) 6241365. 0.04682 0.05132
15830.0 1.67178 0.0506(4) 6274833. 0.04680 0.05200
15850.0 1.67390 0.0515(4) 6186082. 0.04678 0.05345
15870.0 1.67601 0.0534(4) 5970239. 0.04677 0.05538
15890.0 1.67813 0.0546(4) 5849415. 0.04675 0.05704
15910.0 1.68024 0.0560(4) 5716379. 0.04673 0.05749
15930.0 1.68235 0.0550(4) 5824334. 0.04672 0.05668
15950.0 1.68447 0.0544(4) 5898107. 0.04670 0.05548
15970.0 1.68658 0.0534(4) 6014729. 0.04668 0.05466
15990.0 1.68870 0.0537(4) 5988129. 0.04667 0.05428
16010.0 1.69081 0.0535(4) 6015000. 0.04665 0.05386
16030.0 1.69292 0.0527(4) 6117777. 0.04663 0.05300
16050.0 1.69504 0.0518(4) 6223911. 0.04662 0.05196
16070.0 1.69715 0.0503(4) 6403664. 0.04660 0.05125
16090.0 1.69927 0.0498(4) 6462831. 0.04659 0.05134
16110.0 1.70138 0.0505(4) 6395176. 0.04657 0.05251
16130.0 1.70349 0.0518(4) 6246716. 0.04655 0.05470
16150.0 1.70561 0.0537(4) 6035363. 0.04654 0.05745
16170.0 1.70772 0.0569(4) 5710889. 0.04652 0.05989
16190.0 1.70984 0.0586(4) 5548978. 0.04651 0.06114
16210.0 1.71195 0.0595(4) 5475790. 0.04649 0.06128
16230.0 1.71406 0.0611(4) 5330260. 0.04648 0.06115
16250.0 1.71618 0.0622(4) 5243755. 0.04646 0.06146
16270.0 1.71829 0.0627(4) 5206149. 0.04645 0.06280
16290.0 1.72041 0.0649(4) 5030454. 0.04643 0.06593
16310.0 1.72252 0.0685(5) 4759786. 0.04642 0.07082
16330.0 1.72463 0.0726(5) 4490954. 0.04640 0.07620
16350.0 1.72675 0.0758(5) 4291993. 0.04639 0.07943
16370.0 1.72886 0.0753(5) 4319534. 0.04637 0.07801
16390.0 1.73098 0.0729(5) 4472717. 0.04636 0.07239
16410.0 1.73309 0.0681(5) 4803775. 0.04634 0.06530
16430.0 1.73520 0.0640(4) 5121728. 0.04633 0.05917
16450.0 1.73732 0.0613(4) 5352191. 0.04632 0.05500
16470.0 1.73943 0.0604(4) 5432163. 0.04630 0.05271
16490.0 1.74155 0.0583(4) 5634019. 0.04629 0.05156
16510.0 1.74366 0.0551(4) 5957547. 0.04628 0.05081
16530.0 1.74577 0.0526(4) 6235021. 0.04626 0.05021
16550.0 1.74789 0.0519(4) 6306399. 0.04625 0.04985
16570.0 1.75000 0.0509(4) 6439936. 0.04624 0.04990
16590.0 1.75212 0.0519(4) 6320010. 0.04622 0.05047
16610.0 1.75423 0.0528(4) 6221010. 0.04621 0.05144
16630.0 1.75634 0.0537(4) 6121677. 0.04620 0.05248
16650.0 1.75846 0.0545(4) 6036520. 0.04619 0.05305
16670.0 1.76057 0.0554(4) 5939857. 0.04617 0.05281
16690.0 1.76269 0.0534(4) 6162570. 0.04616 0.05196
16710.0 1.76480 0.0515(4) 6378225. 0.04615 0.05109
16730.0 1.76691 0.0512(4) 6409670. 0.04614 0.05073
16750.0 1.76903 0.0508(4) 6450636. 0.04613 0.05137
16770.0 1.77114 0.0530(4) 6194038. 0.04612 0.05325
16790.0 1.77326 0.0564(4) 5816846. 0.04611 0.05635
16810.0 1.77537 0.0603(4) 5438224. 0.04609 0.06027
16830.0 1.77748 0.0652(4) 5027033. 0.04608 0.06396
16850.0 1.77960 0.0682(5) 4792769. 0.04607 0.06611
16870.0 1.78171 0.0673(5) 4856321. 0.04606 0.06593
16890.0 1.78383 0.0660(4) 4950223. 0.04605 0.06358
16910.0 1.78594 0.0619(4) 5281387. 0.04604 0.06019
16930.0 1.78805 0.0585(4) 5578610. 0.04603 0.05722
16950.0 1.79017 0.0554(4) 5887065. 0.04602 0.05534
16970.0 1.79228 0.0541(4) 6018761. 0.04602 0.05467
16990.0 1.79440 0.0550(4) 5921698. 0.04601 0.05509
17010.0 1.79651 0.0561(4) 5802881. 0.04600 0.05652
17030.0 1.79862 0.0586(4) 5552599. 0.04599 0.05878
17050.0 1.80074 0.0610(4) 5330767. 0.04598 0.06131
17070.0 1.80285 0.0624(4) 5203087. 0.04597 0.06300
17090.0 1.80497 0.0632(4) 5126067. 0.04597 0.06285
17110.0 1.80708 0.0617(4) 5250819. 0.04596 0.06088
17130.0 1.80920 0.0591(4) 5480314. 0.04595 0.05805
17150.0 1.81131 0.0562(4) 5750545. 0.04594 0.05556
17170.0 1.81342 0.0541(4) 5973581. 0.04594 0.05436
17190.0 1.81554 0.0545(4) 5921449. 0.04593 0.05504
17210.0 1.81765 0.0556(4) 5793507. 0.04592 0.05780
17230.0 1.81977 0.0610(4) 5278771. 0.04592 0.06240
17250.0 1.82188 0.0650(5) 4932631. 0.04591 0.06781
17270.0 1.82399 0.0700(5) 4568317. 0.04591 0.07223
17290.0 1.82611 0.0718(5) 4440583. 0.04590 0.07370
17310.0 1.82822 0.0713(5) 4462702. 0.04590 0.07191
17330.0 1.83034 0.0696(5) 4568397. 0.04589 0.06871
17350.0 1.83245 0.0663(5) 4802414. 0.04589 0.06629
17370.0 1.83457 0.0657(5) 4837796. 0.04588 0.06584
17390.0 1.83668 0.0649(5) 4895896. 0.04588 0.06706
17410.0 1.83879 0.0656(5) 4832035. 0.04588 0.06855
17430.0 1.84091 0.0648(5) 4884351. 0.04587 0.06843
17450.0 1.84302 0.0632(4) 5000464. 0.04587 0.06638
17470.0 1.84514 0.0605(4) 5220193. 0.04587 0.06369
17490.0 1.84725 0.0593(4) 5311548. 0.04586 0.06200
17510.0 1.84936 0.0594(4) 5297208. 0.04586 0.06233
17530.0 1.85148 0.0609(4) 5155392. 0.04586 0.06465
17550.0 1.85359 0.0627(4) 4996798. 0.04586 0.06789
17570.0 1.85571 0.0654(5) 4772832. 0.04586 0.07027
17590.0 1.85782 0.0661(5) 4714109. 0.04586 0.07033
17610.0 1.85994 0.0655(5) 4750203. 0.04585 0.06817
17630.0 1.86205 0.0645(5) 4813691. 0.04585 0.06495
17650.0 1.86416 0.0627(4) 4942631. 0.04585 0.06162
17670.0 1.86628 0.0607(4) 5096038. 0.04585 0.05852
17690.0 1.86839 0.0575(4) 5372142. 0.04585 0.05573
17710.0 1.87051 0.0555(4) 5553315. 0.04585 0.05348
17730.0 1.87262 0.0530(4) 5806761. 0.04586 0.05184
17750.0 1.87473 0.0517(4) 5936208. 0.04586 0.05074
17770.0 1.87685 0.0507(4) 6027206. 0.04586 0.05009
17790.0 1.87896 0.0501(4) 6085187. 0.04586 0.04990
17810.0 1.88108 0.0510(4) 5960140. 0.04586 0.05031
17830.0 1.88319 0.0523(4) 5803690. 0.04586 0.05163
17850.0 1.88531 0.0548(4) 5532334. 0.04587 0.05423
17870.0 1.88742 0.0580(4) 5212280. 0.04587 0.05823
17890.0 1.88953 0.0632(5) 4766231. 0.04587 0.06330
17910.0 1.89165 0.0687(5) 4362292. 0.04588 0.06853
17930.0 1.89376 0.0729(5) 4086611. 0.04588 0.07230
17950.0 1.89588 0.0742(5) 4004423. 0.04588 0.07317
17970.0 1.89799 0.0727(5) 4078116. 0.04589 0.07110
17990.0 1.90011 0.0679(5) 4363940. 0.04589 0.06702
18010.0 1.90222 0.0632(5) 4688299. 0.04590 0.06212
18030.0 1.90433 0.0580(4) 5096256. 0.04590 0.05737
18050.0 1.90645 0.0533(4) 5532192. 0.04591 0.05360
18070.0 1.90856 0.0511(4) 5749198. 0.04592 0.05091
18090.0 1.91068 0.0489(4) 5992452. 0.04592 0.04919
18110.0 1.91279 0.0483(4) 6040626. 0.04593 0.04817
18130.0 1.91491 0.0477(4) 6100350. 0.04594 0.04760
18150.0 1.91702 0.0476(4) 6097888. 0.04594 0.04728
18170.0 1.91913 0.0470(4) 6167398. 0.04595 0.04708
18190.0 1.92125 0.0472(4) 6116614. 0.04596 0.04694
18210.0 1.92336 0.0478(4) 6030673. 0.04597 0.04687
18230.0 1.92548 0.0474(4) 6062396. 0.04597 0.04684
18250.0 1.92759 0.0475(4) 6027231. 0.04598 0.04685
18270.0 1.92971 0.0473(4) 6041683. 0.04599 0.04688
18290.0 1.93182 0.0464(4) 6136734. 0.04600 0.04695
18310.0 1.93393 0.0464(4) 6113779. 0.04601 0.04704
18330.0 1.93605 0.0471(4) 6012922. 0.04602 0.04710
18350.0 1.93816 0.0473(4) 5974983. 0.04603 0.04711
18370.0 1.94028 0.0470(4) 5985868. 0.04604 0.04708
18390.0 1.94239 0.0471(4) 5964363. 0.04605 0.04704
18410.0 1.94451 0.0479(4) 5850391. 0.04607 0.04701
18430.0 1.94662 0.0473(4) 5900124. 0.04608 0.04704
18450.0 1.94873 0.0483(4) 5768420. 0.04609 0.04717
18470.0 1.95085 0.0483(4) 5748495. 0.04610 0.04743
18490.0 1.95296 0.0479(4) 5779232. 0.04611 0.04790
18510.0 1.95508 0.0482(4) 5723527. 0.04613 0.04861
18530.0 1.95719 0.0487(4) 5656588. 0.04614 0.04952
18550.0 1.95931 0.0488(4) 5629369. 0.04615 0.05045
18570.0 1.96142 0.0498(4) 5508176. 0.04617 0.05129
18590.0 1.96353 0.0495(4) 5527642. 0.04618 0.05163
18610.0 1.96565 0.0500(4) 5453509. 0.04619 0.05135
18630.0 1.96776 0.0487(4) 5579196. 0.04621 0.05066
18650.0 1.96988 0.0487(4) 5555376. 0.04622 0.04984
18670.0 1.97199 0.0489(4) 5518139. 0.04624 0.04913
18690.0 1.97411 0.0483(4) 5571314. 0.04626 0.04864
18710.0 1.97622 0.0480(4) 5588493. 0.04627 0.04841
18730.0 1.97834 0.0484(4) 5532995. 0.04629 0.04839
18750.0 1.98045 0.0482(4) 5531122. 0.04630 0.04857
18770.0 1.98256 0.0482(4) 5520850. 0.04632 0.04897
18790.0 1.98468 0.0497(4) 5342272. 0.04634 0.04972
18810.0 1.98679 0.0508(4) 5213763. 0.04635 0.05104
18830.0 1.98891 0.0528(4) 5011197. 0.04637 0.05328
18850.0 1.99102 0.0560(5) 4712047. 0.04639 0.05682
18870.0 1.99314 0.0598(5) 4398463. 0.04641 0.06186
18890.0 1.99525 0.0678(5) 3856598. 0.04643 0.06822
18910.0 1.99736 0.0738(5) 3516097. 0.04645 0.07517
18930.0 1.99948 0.0798(6) 3227439. 0.04647 0.08146
18950.0 2.00159 0.0850(6) 3009152. 0.04648 0.08604
18970.0 2.00371 0.0909(6) 2787069. 0.04650 0.08915
18990.0 2.00582 0.0935(6) 2694605. 0.04652 0.09209
19010.0 2.00794 0.0982(6) 2541488. 0.04654 0.09583
19030.0 2.01005 0.1026(6) 2413349. 0.04657 0.10005
19050.0 2.01217 0.1067(7) 2303051. 0.04659 0.10273
19070.0 2.01428 0.1063(7) 2307626. 0.04661 0.10151
19090.0 2.01639 0.1013(6) 2431465. 0.04663 0.09572
19110.0 2.01851 0.0930(6) 2667075. 0.04665 0.08699
19130.0 2.02062 0.0832(6) 3003570. 0.04667 0.07791
19150.0 2.02274 0.0752(5) 3334198. 0.04669 0.07062
19170.0 2.02485 0.0689(5) 3652468. 0.04672 0.06637
19190.0 2.02697 0.0668(5) 3758405. 0.04674 0.06549
19210.0 2.02908 0.0677(5) 3692321. 0.04676 0.06760
19230.0 2.03120 0.0711(5) 3498500. 0.04679 0.07174
19250.0 2.03331 0.0757(6) 3263372. 0.04681 0.07654
19270.0 2.03542 0.0776(6) 3169468. 0.04683 0.08017
19290.0 2.03754 0.0794(6) 3085324. 0.04686 0.08085
19310.0 2.03965 0.0768(6) 3189817. 0.04688 0.07793
19330.0 2.04177 0.0724(5) 3386774. 0.04691 0.07248
19350.0 2.04388 0.0666(5) 3683730. 0.04693 0.06624
19370.0 2.04600 0.0604(5) 4060593. 0.04696 0.06055
19390.0 2.04811 0.0570(5) 4297213. 0.04698 0.05614
19410.0 2.05023 0.0529(5) 4617344. 0.04701 0.05310
19430.0 2.05234 0.0512(5) 4757499. 0.04703 0.05122
19450.0 2.05445 0.0504(5) 4810692. 0.04706 0.05015
19470.0 2.05657 0.0499(5) 4850638. 0.04709 0.04956
19490.0 2.05868 0.0499(5) 4835343. 0.04711 0.04927
19510.0 2.06080 0.0498(5) 4829287. 0.04714 0.04914
19530.0 2.06291 0.0500(5) 4802335. 0.04717 0.04913
19550.0 2.06503 0.0513(5) 4668898. 0.04719 0.04920
19570.0 2.06714 0.0508(5) 4702323. 0.04722 0.04932
19590.0 2.06926 0.0518(5) 4600850. 0.04725 0.04947
19610.0 2.07137 0.0525(5) 4532500. 0.04728 0.04953
19630.0 2.07348 0.0529(5) 4487606. 0.04730 0.04977
19650.0 2.07560 0.0522(5) 4530974. 0.04733 0.05001
19670.0 2.07771 0.0519(5) 4541510. 0.04736 0.05049
19690.0 2.07983 0.0523(5) 4495791. 0.04739 0.05134
19710.0 2.08194 0.0520(5) 4505138. 0.04742 0.05260
19730.0 2.08406 0.0530(5) 4409990. 0.04745 0.05418
19750.0 2.08617 0.0538(5) 4337323. 0.04748 0.05592
19770.0 2.08829 0.0552(5) 4214864. 0.04751 0.05753
19790.0 2.09040 0.0557(5) 4171817. 0.04754 0.05852
19810.0 2.09252 0.0557(5) 4156747. 0.04757 0.05862
19830.0 2.09463 0.0561(5) 4122857. 0.04760 0.05782
19850.0 2.09674 0.0561(5) 4106140. 0.04763 0.05638
19870.0 2.09886 0.0553(5) 4155307. 0.04766 0.05475
19890.0 2.10097 0.0534(5) 4290699. 0.04769 0.05331
19910.0 2.10309 0.0528(5) 4330219. 0.04772 0.05229
19930.0 2.10520 0.0523(5) 4356067. 0.04775 0.05182
19950.0 2.10732 0.0535(5) 4246786. 0.04778 0.05194
19970.0 2.10943 0.0536(5) 4234661. 0.04782 0.05250
19990.0 2.11155 0.0566(5) 3996825. 0.04785 0.05379
20010.0 2.11366 0.0601(5) 3755623. 0.04788 0.05585
20030.0 2.11578 0.0620(5) 3623836. 0.04791 0.05890
20050.0 2.11789 0.0651(5) 3438122. 0.04794 0.06320
20070.0 2.12000 0.0702(6) 3174129. 0.04798 0.06890
20090.0 2.12212 0.0751(6) 2948657. 0.04801 0.07580
20110.0 2.12423 0.0803(6) 2737417. 0.04804 0.08267
20130.0 2.12635 0.0843(6) 2589614. 0.04807 0.08774
20150.0 2.12846 0.0856(6) 2537021. 0.04811 0.08910
20170.0 2.13058 0.0847(6) 2558407. 0.04814 0.08618
20190.0 2.13269 0.0804(6) 2701656. 0.04817 0.08023
20210.0 2.13481 0.0739(6) 2947579. 0.04821 0.07321
20230.0 2.13692 0.0682(6) 3199713. 0.04824 0.06672
20250.0 2.13904 0.0631(5) 3456512. 0.04828 0.06167
20270.0 2.14115 0.0585(5) 3729176. 0.04831 0.05825
20290.0 2.14327 0.0577(5) 3766404. 0.04834 0.05618
20310.0 2.14538 0.0555(5) 3905646. 0.04838 0.05494
20330.0 2.14749 0.0553(5) 3911937. 0.04841 0.05408
20350.0 2.14961 0.0541(5) 3983562. 0.04845 0.05336
20370.0 2.15172 0.0538(5) 3995396. 0.04848 0.05268
20390.0 2.15384 0.0544(5) 3935557. 0.04852 0.05209
20410.0 2.15595 0.0530(5) 4029818. 0.04855 0.05164
20430.0 2.15807 0.0529(5) 4021323. 0.04859 0.05136
20450.0 2.16018 0.0528(5) 4018790. 0.04862 0.05124
20470.0 2.16230 0.0526(5) 4018213. 0.04866 0.05129
20490.0 2.16441 0.0537(5) 3928726. 0.04869 0.05150
20510.0 2.16653 0.0528(5) 3979312. 0.04873 0.05189
20530.0 2.16864 0.0533(5) 3934526. 0.04876 0.05245
20550.0 2.17076 0.0539(5) 3874145. 0.04880 0.05319
20570.0 2.17287 0.0541(5) 3847254. 0.04883 0.05406
20590.0 2.17498 0.0557(5) 3726398. 0.04887 0.05508
20610.0 2.17710 0.0573(5) 3614397. 0.04890 0.05631
20630.0 2.17921 0.0595(5) 3466016. 0.04894 0.05802
20650.0 2.18133 0.0626(6) 3281415. 0.04898 0.06079
20670.0 2.18344 0.0675(6) 3021253. 0.04901 0.06532
20690.0 2.18556 0.0750(6) 2697455. 0.04905 0.07220
20710.0 2.18767 0.0835(6) 2393511. 0.04908 0.08151
20730.0 2.18979 0.0937(7) 2101830. 0.04912 0.09249
20750.0 2.19190 0.1028(7) 1887974. 0.04916 0.10327
20770.0 2.19402 0.1094(8) 1751936. 0.04919 0.11096
20790.0 2.19613 0.1100(8) 1734479. 0.04923 0.11286
20810.0 2.19825 0.1071(7) 1782980. 0.04927 0.10835
20830.0 2.20036 0.0994(7) 1934543. 0.04930 0.09929
20850.0 2.20248 0.0906(7) 2138438. 0.04934 0.08845
20870.0 2.20459 0.0816(6) 2392127. 0.04938 0.07814
20890.0 2.20670 0.0734(6) 2669826. 0.04941 0.06962
20910.0 2.20882 0.0674(6) 2910892. 0.04945 0.06359
20930.0 2.21093 0.0630(6) 3114540. 0.04949 0.05978
20950.0 2.21305 0.0603(6) 3242492. 0.04952 0.05782
20970.0 2.21516 0.0585(5) 3337847. 0.04956 0.05731
20990.0 2.21728 0.0584(5) 3327832. 0.04960 0.05806
21010.0 2.21939 0.0588(6) 3298392. 0.04963 0.06003
21030.0 2.22151 0.0614(6) 3148386. 0.04967 0.06320
21050.0 2.22362 0.0651(6) 2956049. 0.04971 0.06740
21070.0 2.22574 0.0678(6) 2822320. 0.04974 0.07217
21090.0 2.22785 0.0711(6) 2675799. 0.04978 0.07666
21110.0 2.22997 0.0746(6) 2535624. 0.04982 0.07977
21130.0 2.23208 0.0744(6) 2536019. 0.04985 0.08071
21150.0 2.23420 0.0756(6) 2484271. 0.04989 0.07981
21170.0 2.23631 0.0758(6) 2468395. 0.04993 0.07843
21190.0 2.23843 0.0761(6) 2447425. 0.04996 0.07833
21210.0 2.24054 0.0810(7) 2281789. 0.05000 0.08115
21230.0 2.24265 0.0886(7) 2059346. 0.05004 0.08795
21250.0 2.24477 0.1006(7) 1781441. 0.05007 0.09889
21270.0 2.24688 0.1179(8) 1478916. 0.05011 0.11286
21290.0 2.24900 0.1314(9) 1297444. 0.05015 0.12727
21310.0 2.25111 0.1408(9) 1189280. 0.05018 0.13820
21330.0 2.25323 0.1439(9) 1155275. 0.05022 0.14179
21350.0 2.25534 0.1402(9) 1187478. 0.05026 0.13671
21370.0 2.25746 0.1262(9) 1342558. 0.05029 0.12498
21390.0 2.25957 0.1107(8) 1558696. 0.05033 0.11024
21410.0 2.26169 0.0940(7) 1869968. 0.05037 0.09581
21430.0 2.26380 0.0832(7) 2131768. 0.05040 0.08399
21450.0 2.26592 0.0736(6) 2422542. 0.05044 0.07588
21470.0 2.26803 0.0701(6) 2542173. 0.05047 0.07165
21490.0 2.27015 0.0694(6) 2558349. 0.05051 0.07086
21510.0 2.27226 0.0716(6) 2469020. 0.05055 0.07267
21530.0 2.27438 0.0748(7) 2348135. 0.05058 0.07579
21550.0 2.27649 0.0792(7) 2203131. 0.05062 0.07926
21570.0 2.27861 0.0817(7) 2120641. 0.05065 0.08140
21590.0 2.28072 0.0835(7) 2064498. 0.05069 0.08114
21610.0 2.28284 0.0790(7) 2186651. 0.05073 0.07845
21630.0 2.28495 0.0756(7) 2282678. 0.05076 0.07422
21650.0 2.28707 0.0717(6) 2406865. 0.05080 0.06945
21670.0 2.28918 0.0645(6) 2682882. 0.05083 0.06508
21690.0 2.29129 0.0603(6) 2866922. 0.05087 0.06160
21710.0 2.29341 0.0565(6) 3053633. 0.05090 0.05916
21730.0 2.29552 0.0546(6) 3143966. 0.05094 0.05763
21750.0 2.29764 0.0538(6) 3187062. 0.05097 0.05671
21770.0 2.29975 0.0526(6) 3246418. 0.05101 0.05611
21790.0 2.30187 0.0526(6) 3238263. 0.05104 0.05558
21810.0 2.30398 0.0531(6) 3195859. 0.05108 0.05502
21830.0 2.30610 0.0515(6) 3286897. 0.05111 0.05445
21850.0 2.30821 0.0514(6) 3281956. 0.05115 0.05390
21870.0 2.31033 0.0525(6) 3203723. 0.05118 0.05335
21890.0 2.31244 0.0510(6) 3284074. 0.05122 0.05298
21910.0 2.31456 0.0502(5) 3326788. 0.05125 0.05270
21930.0 2.31667 0.0502(5) 3309135. 0.05128 0.05251
21950.0 2.31879 0.0513(6) 3232611. 0.05132 0.05239
21970.0 2.32090 0.0514(6) 3216803. 0.05135 0.05231
21990.0 2.32302 0.0519(6) 3174265. 0.05138 0.05225
22010.0 2.32513 0.0524(6) 3133778. 0.05142 0.05222
22030.0 2.32725 0.0524(6) 3122381. 0.05145 0.05220
22050.0 2.32936 0.0535(6) 3046629. 0.05148 0.05219
22070.0 2.33148 0.0532(6) 3054279. 0.05152 0.05218
22090.0 2.33359 0.0534(6) 3030690. 0.05155 0.05218
22110.0 2.33571 0.0530(6) 3043388. 0.05158 0.05219
22130.0 2.33782 0.0534(6) 3012501. 0.05162 0.05219
22150.0 2.33994 0.0527(6) 3046900. 0.05165 0.05200
22170.0 2.34205 0.0518(6) 3090750. 0.05168 0.05203
22190.0 2.34417 0.0509(6) 3134688. 0.05171 0.05206
22210.0 2.34628 0.0497(6) 3195984. 0.05174 0.05209
22230.0 2.34840 0.0505(6) 3139372. 0.05178 0.05212
22250.0 2.35051 0.0510(6) 3099288. 0.05181 0.05215
22270.0 2.35263 0.0511(6) 3085660. 0.05184 0.05219
22290.0 2.35474 0.0512(6) 3072267. 0.05187 0.05222
22310.0 2.35686 0.0502(6) 3117576. 0.05190 0.05226
22330.0 2.35897 0.0511(6) 3058180. 0.05193 0.05230
22350.0 2.36109 0.0502(6) 3101652. 0.05196 0.05234
22370.0 2.36320 0.0507(6) 3064694. 0.05199 0.05239
22390.0 2.36532 0.0505(6) 3071357. 0.05202 0.05235
22410.0 2.36743 0.0510(6) 3028044. 0.05205 0.05240
22430.0 2.36955 0.0500(6) 3078955. 0.05208 0.05246
22450.0 2.37166 0.0519(6) 2961301. 0.05211 0.05251
22470.0 2.37378 0.0506(6) 3023039. 0.05214 0.05257
22490.0 2.37589 0.0503(6) 3031466. 0.05217 0.05263
22510.0 2.37801 0.0500(6) 3045364. 0.05220 0.05270
22530.0 2.38012 0.0514(6) 2952996. 0.05223 0.05277
22550.0 2.38223 0.0515(6) 2940013. 0.05226 0.05285
22570.0 2.38435 0.0509(6) 2969896. 0.05229 0.05306
22590.0 2.38646 0.0517(6) 2917384. 0.05232 0.05315
22610.0 2.38858 0.0504(6) 2980884. 0.05234 0.05326
22630.0 2.39069 0.0513(6) 2924883. 0.05237 0.05339
22650.0 2.39281 0.0508(6) 2948349. 0.05240 0.05354
22670.0 2.39492 0.0512(6) 2912790. 0.05243 0.05372
22690.0 2.39704 0.0509(6) 2929365. 0.05245 0.05396
22710.0 2.39915 0.0524(6) 2837291. 0.05248 0.05429
22730.0 2.40127 0.0535(6) 2774031. 0.05251 0.05480
22750.0 2.40338 0.0544(6) 2724721. 0.05253 0.05562
22770.0 2.40550 0.0559(6) 2642446. 0.05256 0.05694
22790.0 2.40761 0.0592(6) 2487116. 0.05259 0.05901
22810.0 2.40973 0.0628(7) 2334546. 0.05261 0.06206
22830.0 2.41184 0.0665(7) 2193692. 0.05264 0.06628
22850.0 2.41396 0.0740(7) 1954270. 0.05266 0.07151
22870.0 2.41607 0.0776(7) 1851964. 0.05269 0.07736
22890.0 2.41819 0.0821(8) 1739018. 0.05271 0.08300
22910.0 2.42030 0.0873(8) 1622591. 0.05274 0.08718
22930.0 2.42242 0.0880(8) 1605185. 0.05276 0.08877
22950.0 2.42453 0.0881(8) 1598525. 0.05279 0.08735
22970.0 2.42665 0.0851(8) 1657735. 0.05281 0.08348
22990.0 2.42876 0.0795(7) 1781067. 0.05283 0.07824
23010.0 2.43088 0.0749(7) 1892447. 0.05286 0.07272
23030.0 2.43299 0.0686(7) 2072376. 0.05288 0.06770
23050.0 2.43511 0.0639(7) 2227348. 0.05290 0.06362
23070.0 2.43722 0.0606(7) 2348042. 0.05293 0.06059
23090.0 2.43934 0.0579(6) 2449866. 0.05295 0.05851
23110.0 2.44145 0.0579(6) 2445099. 0.05297 0.05717
23130.0 2.44357 0.0563(6) 2508802. 0.05299 0.05637
23150.0 2.44568 0.0562(6) 2505622. 0.05301 0.05593
23170.0 2.44780 0.0565(6) 2483531. 0.05303 0.05570
23190.0 2.44991 0.0585(6) 2391805. 0.05306 0.05563
23210.0 2.45203 0.0589(6) 2371805. 0.05308 0.05567
23230.0 2.45415 0.0615(7) 2263238. 0.05310 0.05583
23250.0 2.45626 0.0639(7) 2172289. 0.05312 0.05616
23270.0 2.45838 0.0670(7) 2062758. 0.05314 0.05673
23290.0 2.46049 0.0681(7) 2022189. 0.05316 0.05770
23310.0 2.46261 0.0694(7) 1978226. 0.05318 0.05925
23330.0 2.46472 0.0706(7) 1937697. 0.05319 0.06177
23350.0 2.46684 0.0718(7) 1898258. 0.05321 0.06507
23370.0 2.46895 0.0730(7) 1861449. 0.05323 0.06934
23390.0 2.47107 0.0754(7) 1790846. 0.05325 0.07435
23410.0 2.47318 0.0783(8) 1716497. 0.05327 0.07967
23430.0 2.47530 0.0813(8) 1643008. 0.05329 0.08414
23450.0 2.47741 0.0837(8) 1586891. 0.05330 0.08683
23470.0 2.47953 0.0827(8) 1606546. 0.05332 0.08703
23490.0 2.48164 0.0811(8) 1636168. 0.05334 0.08482
23510.0 2.48376 0.0783(8) 1696801. 0.05335 0.08096
23530.0 2.48587 0.0739(7) 1801805. 0.05337 0.07644
23550.0 2.48799 0.0698(7) 1910201. 0.05339 0.07200
23570.0 2.49010 0.0663(7) 2011968. 0.05340 0.06823
23590.0 2.49222 0.0633(7) 2109530. 0.05342 0.06541
23610.0 2.49433 0.0603(7) 2209903. 0.05343 0.06356
23630.0 2.49645 0.0584(7) 2279825. 0.05345 0.06259
23650.0 2.49856 0.0597(7) 2224990. 0.05346 0.06240
23670.0 2.50068 0.0594(7) 2229710. 0.05348 0.06297
23690.0 2.50279 0.0606(7) 2182164. 0.05349 0.06449
23710.0 2.50491 0.0634(7) 2078439. 0.05350 0.06733
23730.0 2.50702 0.0682(7) 1919514. 0.05352 0.07200
23750.0 2.50914 0.0764(8) 1696518. 0.05353 0.07902
23770.0 2.51125 0.0866(8) 1476251. 0.05354 0.08868
23790.0 2.51337 0.1023(9) 1220806. 0.05355 0.10082
23810.0 2.51548 0.1163(10) 1048803. 0.05357 0.11445
23830.0 2.51760 0.1341(11) 883355. 0.05358 0.12798
23850.0 2.51971 0.1414(11) 825625. 0.05359 0.13871
23870.0 2.52183 0.1491(11) 771337. 0.05360 0.14395
23890.0 2.52394 0.1460(11) 789674. 0.05361 0.14236
23910.0 2.52606 0.1395(11) 833097. 0.05362 0.13473
23930.0 2.52817 0.1275(10) 925756. 0.05363 0.12325
23950.0 2.53029 0.1114(10) 1082880. 0.05364 0.11022
23970.0 2.53240 0.0974(9) 1261530. 0.05365 0.09779
23990.0 2.53452 0.0844(8) 1477288. 0.05366 0.08732
24010.0 2.53663 0.0772(8) 1623452. 0.05367 0.07946
24030.0 2.53875 0.0709(8) 1772435. 0.05368 0.07440
24050.0 2.54086 0.0699(7) 1796082. 0.05369 0.07203
24070.0 2.54298 0.0721(8) 1729799. 0.05370 0.07213
24090.0 2.54510 0.0746(8) 1663575. 0.05370 0.07447
24110.0 2.54721 0.0779(8) 1582168. 0.05371 0.07877
24130.0 2.54933 0.0839(8) 1456863. 0.05372 0.08456
24150.0 2.55144 0.0901(9) 1339775. 0.05373 0.09112
24170.0 2.55356 0.0964(9) 1237162. 0.05373 0.09736
24190.0 2.55567 0.1001(9) 1181581. 0.05374 0.10197
24210.0 2.55779 0.1026(9) 1145949. 0.05375 0.10377
24230.0 2.55990 0.0999(9) 1178135. 0.05375 0.10233
24250.0 2.56202 0.0975(9) 1208627. 0.05376 0.09809
24270.0 2.56413 0.0913(9) 1297299. 0.05376 0.09216
24290.0 2.56625 0.0850(8) 1399575. 0.05377 0.08567
24310.0 2.56836 0.0805(8) 1481436. 0.05377 0.07957
24330.0 2.57048 0.0745(8) 1608670. 0.05378 0.07445
24350.0 2.57259 0.0722(8) 1657155. 0.05378 0.07049
24370.0 2.57471 0.0698(8) 1715721. 0.05378 0.06791
24390.0 2.57682 0.0669(7) 1789081. 0.05379 0.06631
24410.0 2.57894 0.0653(7) 1829417. 0.05379 0.06550
24430.0 2.58105 0.0671(8) 1773807. 0.05379 0.06525
24450.0 2.58317 0.0653(7) 1821114. 0.05379 0.06543
24470.0 2.58528 0.0671(8) 1765640. 0.05380 0.06603
24490.0 2.58740 0.0678(8) 1742442. 0.05380 0.06720
24510.0 2.58952 0.0704(8) 1672812. 0.05380 0.06924
24530.0 2.59163 0.0741(8) 1576319. 0.05380 0.07268
24550.0 2.59375 0.0815(8) 1418001. 0.05380 0.07824
24570.0 2.59586 0.0890(9) 1283638. 0.05380 0.08680
24590.0 2.59798 0.1009(9) 1109194. 0.05380 0.09929
24610.0 2.60009 0.1202(11) 902511. 0.05380 0.11644
24630.0 2.60221 0.1444(12) 721049. 0.05380 0.13846
24650.0 2.60432 0.1736(13) 570792. 0.05380 0.16474
24670.0 2.60644 0.2017(15) 469856. 0.05380 0.19347
24690.0 2.60855 0.2321(16) 388392. 0.05380 0.22153
24710.0 2.61067 0.2554(17) 339825. 0.05380 0.24521
24730.0 2.61278 0.2718(18) 311119. 0.05380 0.26165
24750.0 2.61490 0.2790(18) 299312. 0.05379 0.26987
24770.0 2.61701 0.2800(18) 297039. 0.05379 0.26978
24790.0 2.61913 0.2733(18) 306192. 0.05379 0.26244
24810.0 2.62124 0.2571(17) 332217. 0.05379 0.24873
24830.0 2.62336 0.2347(16) 375499. 0.05378 0.23085
24850.0 2.62547 0.2140(15) 423732. 0.05378 0.21136
24870.0 2.62759 0.1918(14) 488283. 0.05378 0.19220
24890.0 2.62971 0.1737(13) 553278. 0.05377 0.17417
24910.0 2.63182 0.1567(13) 629036. 0.05377 0.15748
24930.0 2.63394 0.1379(12) 734494. 0.05376 0.14140
24950.0 2.63605 0.1256(11) 820436. 0.05376 0.12637
24970.0 2.63817 0.1098(10) 959729. 0.05375 0.11279
24990.0 2.64028 0.0988(10) 1080222. 0.05375 0.10102
25010.0 2.64240 0.0895(9) 1204706. 0.05374 0.09130
25030.0 2.64451 0.0799(9) 1364462. 0.05373 0.08370
25050.0 2.64663 0.0755(8) 1449561. 0.05373 0.07816
25070.0 2.64874 0.0719(8) 1524193. 0.05372 0.07453
25090.0 2.65086 0.0692(8) 1585157. 0.05371 0.07272
25110.0 2.65297 0.0701(8) 1562515. 0.05371 0.07271
25130.0 2.65509 0.0722(8) 1510313. 0.05370 0.07465
25150.0 2.65720 0.0773(8) 1398308. 0.05369 0.07887
25170.0 2.65932 0.0848(9) 1260292. 0.05368 0.08561
25190.0 2.66144 0.0971(10) 1078338. 0.05367 0.09539
25210.0 2.66355 0.1099(10) 932318. 0.05367 0.10802
25230.0 2.66567 0.1253(11) 797661. 0.05366 0.12288
25250.0 2.66778 0.1427(12) 679849. 0.05365 0.13858
25270.0 2.66990 0.1557(13) 608965. 0.05364 0.15297
25290.0 2.67201 0.1649(13) 565245. 0.05363 0.16345
25310.0 2.67413 0.1708(14) 539465. 0.05362 0.16779
25330.0 2.67624 0.1663(13) 556742. 0.05361 0.16505
25350.0 2.67836 0.1577(13) 594786. 0.05360 0.15600
25370.0 2.68047 0.1444(12) 662449. 0.05359 0.14269
25390.0 2.68259 0.1276(11) 768618. 0.05358 0.12751
25410.0 2.68470 0.1127(11) 888358. 0.05356 0.11256
25430.0 2.68682 0.0974(10) 1051347. 0.05355 0.09929
25450.0 2.68894 0.0886(9) 1168305. 0.05354 0.08872
25470.0 2.69105 0.0784(9) 1336986. 0.05353 0.08061
25490.0 2.69317 0.0742(8) 1418337. 0.05352 0.07505
25510.0 2.69528 0.0701(8) 1506206. 0.05350 0.07172
25530.0 2.69740 0.0683(8) 1546953. 0.05349 0.07026
25550.0 2.69951 0.0698(8) 1508309. 0.05348 0.07039
25570.0 2.70163 0.0703(8) 1492970. 0.05346 0.07192
25590.0 2.70374 0.0719(8) 1456103. 0.05345 0.07471
25610.0 2.70586 0.0751(8) 1386547. 0.05344 0.07863
25630.0 2.70797 0.0797(9) 1297156. 0.05342 0.08349
25650.0 2.71009 0.0873(9) 1169549. 0.05341 0.08902
25670.0 2.71220 0.0931(10) 1086752. 0.05339 0.09485
25690.0 2.71432 0.0988(10) 1014366. 0.05338 0.10018
25710.0 2.71644 0.1037(10) 957275. 0.05336 0.10501
25730.0 2.71855 0.1064(10) 927105. 0.05335 0.10806
25750.0 2.72067 0.1064(10) 925574. 0.05333 0.10849
25770.0 2.72278 0.1038(10) 949940. 0.05332 0.10576
25790.0 2.72490 0.1016(10) 972815. 0.05330 0.10092
25810.0 2.72701 0.0932(10) 1072039. 0.05328 0.09458
25830.0 2.72913 0.0872(9) 1153453. 0.05327 0.08771
25850.0 2.73124 0.0805(9) 1257959. 0.05325 0.08113
25870.0 2.73336 0.0733(8) 1391123. 0.05323 0.07524
25890.0 2.73547 0.0699(8) 1462241. 0.05322 0.07058
25910.0 2.73759 0.0677(8) 1509009. 0.05320 0.06706
25930.0 2.73971 0.0663(8) 1540885. 0.05318 0.06460
25950.0 2.74182 0.0660(8) 1542857. 0.05316 0.06295
25970.0 2.74394 0.0673(8) 1510517. 0.05314 0.06194
25990.0 2.74605 0.0663(8) 1532623. 0.05313 0.06141
26010.0 2.74817 0.0689(8) 1470674. 0.05311 0.06123
26030.0 2.75028 0.0690(8) 1466872. 0.05309 0.06132
26050.0 2.75240 0.0702(8) 1438875. 0.05307 0.06163
26070.0 2.75451 0.0720(8) 1396624. 0.05305 0.06218
26090.0 2.75663 0.0708(8) 1417235. 0.05303 0.06303
26110.0 2.75875 0.0719(8) 1393408. 0.05301 0.06433
26130.0 2.76086 0.0731(9) 1367672. 0.05299 0.06633
26150.0 2.76298 0.0736(9) 1357783. 0.05297 0.06948
26170.0 2.76509 0.0797(9) 1242960. 0.05295 0.07442
26190.0 2.76721 0.0843(9) 1167691. 0.05293 0.08203
26210.0 2.76932 0.0938(10) 1033385. 0.05291 0.09332
26230.0 2.77144 0.1100(11) 858004. 0.05289 0.10924
26250.0 2.77355 0.1293(12) 707087. 0.05287 0.13031
26270.0 2.77567 0.1569(13) 556646. 0.05285 0.15658
26290.0 2.77778 0.1853(15) 450125. 0.05282 0.18651
26310.0 2.77990 0.2133(16) 373875. 0.05280 0.21787
26330.0 2.78202 0.2417(18) 315826. 0.05278 0.24625
26350.0 2.78413 0.2597(19) 285832. 0.05276 0.26654
26370.0 2.78625 0.2681(19) 273451. 0.05274 0.27444
26390.0 2.78836 0.2613(19) 283168. 0.05271 0.26850
26410.0 2.79048 0.2455(18) 308056. 0.05269 0.25067
26430.0 2.79259 0.2229(17) 350528. 0.05267 0.22496
26450.0 2.79471 0.1928(15) 424339. 0.05265 0.19577
26470.0 2.79682 0.1632(14) 524455. 0.05262 0.16687
26490.0 2.79894 0.1369(12) 651205. 0.05260 0.14089
26510.0 2.80106 0.1142(11) 808307. 0.05258 0.11927
26530.0 2.80317 0.0986(10) 957168. 0.05255 0.10242
26550.0 2.80529 0.0868(10) 1106068. 0.05253 0.08999
26570.0 2.80740 0.0787(9) 1231288. 0.05250 0.08128
26590.0 2.80952 0.0735(9) 1325439. 0.05248 0.07546
26610.0 2.81163 0.0703(8) 1389508. 0.05246 0.07175
26630.0 2.81375 0.0663(8) 1479288. 0.05243 0.06965
26650.0 2.81586 0.0653(8) 1501294. 0.05241 0.06880
26670.0 2.81798 0.0655(8) 1495641. 0.05238 0.06910
26690.0 2.82010 0.0671(8) 1452700. 0.05236 0.07067
26710.0 2.82221 0.0700(8) 1386293. 0.05233 0.07391
26730.0 2.82433 0.0741(9) 1300747. 0.05231 0.07941
26750.0 2.82644 0.0842(9) 1126860. 0.05228 0.08789
26770.0 2.82856 0.0978(10) 949967. 0.05226 0.10003
26790.0 2.83067 0.1141(11) 792321. 0.05223 0.11617
26810.0 2.83279 0.1376(13) 631677. 0.05220 0.13644
26830.0 2.83491 0.1643(14) 506124. 0.05218 0.15981
26850.0 2.83702 0.1924(16) 412493. 0.05215 0.18433
26870.0 2.83914 0.2173(17) 351051. 0.05213 0.20702
26890.0 2.84125 0.2340(18) 317544. 0.05210 0.22380
26910.0 2.84337 0.2417(18) 303158. 0.05207 0.23134
26930.0 2.84548 0.2402(18) 305342. 0.05205 0.22820
26950.0 2.84760 0.2224(17) 337830. 0.05202 0.21547
26970.0 2.84971 0.1989(16) 391196. 0.05199 0.19601
26990.0 2.85183 0.1729(15) 468230. 0.05196 0.17313
27010.0 2.85395 0.1472(13) 572152. 0.05194 0.14983
27030.0 2.85606 0.1190(12) 740171. 0.05191 0.12835
27050.0 2.85818 0.1020(11) 885320. 0.05188 0.10998
27070.0 2.86029 0.0883(10) 1041859. 0.05186 0.09525
27090.0 2.86241 0.0771(9) 1211784. 0.05183 0.08403
27110.0 2.86452 0.0713(9) 1319975. 0.05180 0.07586
27130.0 2.86664 0.0654(8) 1446591. 0.05177 0.07009
27150.0 2.86876 0.0644(8) 1465439. 0.05174 0.06613
27170.0 2.87087 0.0624(8) 1515479. 0.05172 0.06343
27190.0 2.87299 0.0607(8) 1559919. 0.05169 0.06162
27210.0 2.87510 0.0584(8) 1623716. 0.05166 0.06042
27230.0 2.87722 0.0583(8) 1622856. 0.05163 0.05968
27250.0 2.87933 0.0587(8) 1611823. 0.05160 0.05932
27270.0 2.88145 0.0600(8) 1573434. 0.05157 0.05936
27290.0 2.88357 0.0607(8) 1549457. 0.05155 0.05983
27310.0 2.88568 0.0614(8) 1531623. 0.05152 0.06081
27330.0 2.88780 0.0635(8) 1474910. 0.05149 0.06239
27350.0 2.88991 0.0656(8) 1420829. 0.05146 0.06461
27370.0 2.89203 0.0697(9) 1328919. 0.05143 0.06743
27390.0 2.89414 0.0716(9) 1290829. 0.05140 0.07070
27410.0 2.89626 0.0737(9) 1248707. 0.05137 0.07355
27430.0 2.89838 0.0771(9) 1186211. 0.05134 0.07672
27450.0 2.90049 0.0791(9) 1150596. 0.05131 0.07905
27470.0 2.90261 0.0810(9) 1119519. 0.05128 0.08004
27490.0 2.90472 0.0790(9) 1150131. 0.05125 0.07951
27510.0 2.90684 0.0777(9) 1170116. 0.05122 0.07759
27530.0 2.90895 0.0748(9) 1219232. 0.05119 0.07468
27550.0 2.91107 0.0718(9) 1274909. 0.05116 0.07126
27570.0 2.91318 0.0688(9) 1333838. 0.05113 0.06774
27590.0 2.91530 0.0650(8) 1415384. 0.05110 0.06446
27610.0 2.91742 0.0643(8) 1431002. 0.05107 0.06162
27630.0 2.91953 0.0613(8) 1504446. 0.05104 0.05930
27650.0 2.92165 0.0601(8) 1536581. 0.05101 0.05750
27670.0 2.92376 0.0595(8) 1550013. 0.05098 0.05616
27690.0 2.92588 0.0581(8) 1584341. 0.05095 0.05520
27710.0 2.92800 0.0589(8) 1560829. 0.05092 0.05452
27730.0 2.93011 0.0581(8) 1582893. 0.05089 0.05405
27750.0 2.93223 0.0577(8) 1593122. 0.05086 0.05372
27770.0 2.93434 0.0571(8) 1607854. 0.05083 0.05350
27790.0 2.93646 0.0576(8) 1590369. 0.05080 0.05335
27810.0 2.93857 0.0580(8) 1577151. 0.05077 0.05324
27830.0 2.94069 0.0580(8) 1573783. 0.05074 0.05318
27850.0 2.94281 0.0590(8) 1545637. 0.05071 0.05315
27870.0 2.94492 0.0586(8) 1554567. 0.05068 0.05314
27890.0 2.94704 0.0577(8) 1579068. 0.05065 0.05315
27910.0 2.94915 0.0581(8) 1565345. 0.05062 0.05319
27930.0 2.95127 0.0583(8) 1559730. 0.05059 0.05324
27950.0 2.95338 0.0589(8) 1542338. 0.05055 0.05283
27970.0 2.95550 0.0586(8) 1549779. 0.05052 0.05297
27990.0 2.95762 0.0577(8) 1573165. 0.05049 0.05317
28010.0 2.95973 0.0581(8) 1562767. 0.05046 0.05345
28030.0 2.96185 0.0566(8) 1603214. 0.05043 0.05385
28050.0 2.96396 0.0581(8) 1559878. 0.05040 0.05440
28070.0 2.96608 0.0579(8) 1563164. 0.05037 0.05514
28090.0 2.96819 0.0576(8) 1573163. 0.05034 0.05609
28110.0 2.97031 0.0590(8) 1529158. 0.05031 0.05727
28130.0 2.97243 0.0577(8) 1566664. 0.05027 0.05869
28150.0 2.97454 0.0609(8) 1475283. 0.05024 0.06035
28170.0 2.97666 0.0609(8) 1474989. 0.05021 0.06228
28190.0 2.97877 0.0626(8) 1431643. 0.05018 0.06453
28210.0 2.98089 0.0657(9) 1358026. 0.05015 0.06724
28230.0 2.98301 0.0681(9) 1304890. 0.05012 0.07068
28250.0 2.98512 0.0730(9) 1206876. 0.05009 0.07523
28270.0 2.98724 0.0798(10) 1092047. 0.05006 0.08126
28290.0 2.98935 0.0875(10) 985030. 0.05002 0.08904
28310.0 2.99147 0.0969(11) 875010. 0.04999 0.09858
28330.0 2.99358 0.1086(11) 765166. 0.04996 0.10952
28350.0 2.99570 0.1181(12) 692707. 0.04993 0.12104
28370.0 2.99782 0.1290(13) 621959. 0.04990 0.13186
28390.0 2.99993 0.1398(13) 562699. 0.04987 0.14039
28410.0 3.00205 0.1459(14) 533865. 0.04984 0.14524
28430.0 3.00416 0.1460(14) 532559. 0.04981 0.14577
28450.0 3.00628 0.1436(14) 543475. 0.04977 0.14220
28470.0 3.00840 0.1396(13) 561837. 0.04974 0.13536
28490.0 3.01051 0.1290(13) 618076. 0.04971 0.12624
28510.0 3.01263 0.1195(12) 675821. 0.04968 0.11588
28530.0 3.01474 0.1060(11) 778031. 0.04965 0.10520
28550.0 3.01686 0.0958(11) 874538. 0.04962 0.09498
28570.0 3.01898 0.0847(10) 1005266. 0.04959 0.08577
28590.0 3.02109 0.0768(9) 1120859. 0.04956 0.07781
28610.0 3.02321 0.0709(9) 1220927. 0.04952 0.07132
28630.0 3.02532 0.0658(9) 1323858. 0.04949 0.06617
28650.0 3.02744 0.0617(8) 1417990. 0.04946 0.06220
28670.0 3.02955 0.0573(8) 1531445. 0.04943 0.05921
28690.0 3.03167 0.0561(8) 1563688. 0.04940 0.05700
28710.0 3.03379 0.0557(8) 1575267. 0.04937 0.05538
28730.0 3.03590 0.0546(8) 1608491. 0.04934 0.05419
28750.0 3.03802 0.0519(8) 1694640. 0.04931 0.05332
28770.0 3.04013 0.0522(8) 1685132. 0.04927 0.05267
28790.0 3.04225 0.0511(8) 1722469. 0.04924 0.05217
28810.0 3.04437 0.0508(8) 1730878. 0.04921 0.05178
28830.0 3.04648 0.0524(8) 1672762. 0.04918 0.05146
28850.0 3.04860 0.0502(8) 1748563. 0.04915 0.05120
28870.0 3.05071 0.0501(8) 1750900. 0.04912 0.05098
28890.0 3.05283 0.0490(7) 1788509. 0.04909 0.05078
28910.0 3.05495 0.0494(8) 1775031. 0.04906 0.05061
28930.0 3.05706 0.0505(8) 1730664. 0.04903 0.05045
28950.0 3.05918 0.0496(8) 1762409. 0.04900 0.05032
28970.0 3.06129 0.0493(8) 1772808. 0.04896 0.05019
28990.0 3.06341 0.0504(8) 1732275. 0.04893 0.05007
29010.0 3.06553 0.0488(7) 1790187. 0.04890 0.04996
29030.0 3.06764 0.0498(8) 1755224. 0.04887 0.04986
29050.0 3.06976 0.0486(7) 1795439. 0.04884 0.04977
29070.0 3.07187 0.0485(7) 1798043. 0.04881 0.04968
29090.0 3.07399 0.0502(8) 1734237. 0.04878 0.04960
29110.0 3.07611 0.0496(8) 1760866. 0.04875 0.04952
29130.0 3.07822 0.0502(8) 1739545. 0.04872 0.04945
29150.0 3.08034 0.0499(8) 1747352. 0.04869 0.04938
29170.0 3.08245 0.0489(7) 1786650. 0.04866 0.04931
29190.0 3.08457 0.0485(7) 1800731. 0.04863 0.04925
29210.0 3.08668 0.0494(8) 1767184. 0.04860 0.04919
29230.0 3.08880 0.0485(7) 1800451. 0.04857 0.04913
29250.0 3.09092 0.0486(7) 1798101. 0.04854 0.04907
29270.0 3.09303 0.0481(7) 1815039. 0.04851 0.04902
29290.0 3.09515 0.0479(7) 1824037. 0.04848 0.04896
29310.0 3.09726 0.0469(7) 1861721. 0.04845 0.04891
29330.0 3.09938 0.0470(7) 1855991. 0.04842 0.04884
29350.0 3.10150 0.0484(7) 1798691. 0.04839 0.04879
29370.0 3.10361 0.0476(7) 1832276. 0.04836 0.04875
29390.0 3.10573 0.0494(8) 1762299. 0.04833 0.04870
29410.0 3.10784 0.0497(8) 1749789. 0.04830 0.04866
29430.0 3.10996 0.0487(7) 1787452. 0.04827 0.04861
29450.0 3.11208 0.0476(7) 1830625. 0.04824 0.04857
29470.0 3.11419 0.0466(7) 1872349. 0.04821 0.04853
29490.0 3.11631 0.0474(7) 1838031. 0.04818 0.04848
29510.0 3.11842 0.0477(7) 1828351. 0.04815 0.04844
29530.0 3.12054 0.0485(7) 1793579. 0.04812 0.04818
29550.0 3.12266 0.0475(7) 1835149. 0.04809 0.04815
29570.0 3.12477 0.0491(8) 1773025. 0.04806 0.04811
29590.0 3.12689 0.0483(7) 1800908. 0.04803 0.04808
29610.0 3.12900 0.0465(7) 1877993. 0.04800 0.04805
29630.0 3.13112 0.0489(7) 1778088. 0.04797 0.04797
29650.0 3.13324 0.0485(7) 1793480. 0.04795 0.04795
29670.0 3.13535 0.0474(7) 1840715. 0.04792 0.04792
29690.0 3.13747 0.0475(7) 1837236. 0.04789 0.04789
29710.0 3.13959 0.0475(7) 1836352. 0.04786 0.04786
29730.0 3.14170 0.0482(7) 1811918. 0.04783 0.04783
29750.0 3.14382 0.0477(7) 1833142. 0.04780 0.04780
29770.0 3.14593 0.0479(7) 1820104. 0.04777 0.04777
29790.0 3.14805 0.0479(7) 1822951. 0.04774 0.04774
29810.0 3.15017 0.0478(7) 1827180. 0.04772 0.04772
29830.0 3.15228 0.0477(7) 1831316. 0.04769 0.04769
29850.0 3.15440 0.0475(7) 1839277. 0.04766 0.04766
29870.0 3.15651 0.0482(7) 1809974. 0.04763 0.04763
29890.0 3.15863 0.0468(7) 1866937. 0.04760 0.04760
29910.0 3.16075 0.0471(7) 1857066. 0.04757 0.04757
29930.0 3.16286 0.0474(7) 1844387. 0.04755 0.04755
29950.0 3.16498 0.0471(7) 1854613. 0.04752 0.04752
29970.0 3.16709 0.0460(7) 1897740. 0.04749 0.04749
29990.0 3.16921 0.0462(7) 1891003. 0.04746 0.04746
30010.0 3.17133 0.0464(7) 1883404. 0.04743 0.04743
30030.0 3.17344 0.0469(7) 1859391. 0.04741 0.04741
30050.0 3.17556 0.0458(7) 1904629. 0.04738 0.04738
30070.0 3.17767 0.0458(7) 1905339. 0.04735 0.04735
30090.0 3.17979 0.0460(7) 1896019. 0.04732 0.04732
30110.0 3.18191 0.0456(7) 1911437. 0.04730 0.04730
30130.0 3.18402 0.0459(7) 1897327. 0.04727 0.04727
30150.0 3.18614 0.0471(7) 1847984. 0.04724 0.04724
30170.0 3.18826 0.0461(7) 1886965. 0.04721 0.04721
30190.0 3.19037 0.0461(7) 1886769. 0.04719 0.04719
30210.0 3.19249 0.0470(7) 1847431. 0.04716 0.04716
30230.0 3.19460 0.0463(7) 1876792. 0.04713 0.04713
30250.0 3.19672 0.0466(7) 1863056. 0.04711 0.04711
30270.0 3.19884 0.0465(7) 1866169. 0.04708 0.04708
30290.0 3.20095 0.0475(7) 1827896. 0.04705 0.04705
30310.0 3.20307 0.0470(7) 1847457. 0.04703 0.04703
30330.0 3.20518 0.0449(7) 1932526. 0.04700 0.04700
30350.0 3.20730 0.0464(7) 1868251. 0.04697 0.04697
30370.0 3.20942 0.0467(7) 1854386. 0.04695 0.04695
30390.0 3.21153 0.0456(7) 1902772. 0.04692 0.04692
30410.0 3.21365 0.0454(7) 1907829. 0.04689 0.04689
30430.0 3.21577 0.0470(7) 1838911. 0.04687 0.04687
30450.0 3.21788 0.0464(7) 1863111. 0.04684 0.04684
30470.0 3.22000 0.0445(7) 1947023. 0.04682 0.04682
30490.0 3.22211 0.0452(7) 1913132. 0.04679 0.04679
30510.0 3.22423 0.0459(7) 1883820. 0.04676 0.04676
30530.0 3.22635 0.0476(7) 1811058. 0.04674 0.04674
30550.0 3.22846 0.0458(7) 1884144. 0.04671 0.04671
30570.0 3.23058 0.0461(7) 1869823. 0.04669 0.04669
30590.0 3.23269 0.0460(7) 1872913. 0.04666 0.04666
30610.0 3.23481 0.0455(7) 1894330. 0.04664 0.04664
30630.0 3.23693 0.0450(7) 1914043. 0.04661 0.04661
30650.0 3.23904 0.0448(7) 1928286. 0.04659 0.04659
30670.0 3.24116 0.0451(7) 1911395. 0.04656 0.04656
30690.0 3.24328 0.0453(7) 1901718. 0.04654 0.04654
30710.0 3.24539 0.0452(7) 1906489. 0.04651 0.04651
30730.0 3.24751 0.0460(7) 1868938. 0.04649 0.04649
30750.0 3.24962 0.0454(7) 1891963. 0.04646 0.04646
30770.0 3.25174 0.0465(7) 1842582. 0.04644 0.04644
30790.0 3.25386 0.0458(7) 1873110. 0.04641 0.04641
30810.0 3.25597 0.0447(7) 1917285. 0.04639 0.04639
30830.0 3.25809 0.0445(7) 1925715. 0.04636 0.04636
30850.0 3.26021 0.0454(7) 1884025. 0.04634 0.04634
30870.0 3.26232 0.0458(7) 1865667. 0.04631 0.04631
30890.0 3.26444 0.0456(7) 1872011. 0.04629 0.04629
30910.0 3.26655 0.0452(7) 1885637. 0.04627 0.04627
30930.0 3.26867 0.0445(7) 1913571. 0.04624 0.04624
30950.0 3.27079 0.0454(7) 1875692. 0.04622 0.04622
30970.0 3.27290 0.0451(7) 1881506. 0.04619 0.04619
30990.0 3.27502 0.0448(7) 1889540. 0.04617 0.04617
31010.0 3.27714 0.0453(7) 1865828. 0.04615 0.04615
31030.0 3.27925 0.0451(7) 1872331. 0.04612 0.04612
31050.0 3.28137 0.0457(7) 1849301. 0.04610 0.04610
31070.0 3.28348 0.0447(7) 1885248. 0.04608 0.04608
31090.0 3.28560 0.0462(7) 1822361. 0.04605 0.04605
31110.0 3.28772 0.0453(7) 1854578. 0.04603 0.04603
31130.0 3.28983 0.0444(7) 1892088. 0.04601 0.04601
31150.0 3.29195 0.0456(7) 1838235. 0.04598 0.04598
31170.0 3.29407 0.0442(7) 1897981. 0.04596 0.04596
31190.0 3.29618 0.0470(7) 1779167. 0.04594 0.04594
31210.0 3.29830 0.0447(7) 1869749. 0.04591 0.04591
31230.0 3.30041 0.0460(7) 1811531. 0.04589 0.04589
31250.0 3.30253 0.0450(7) 1854013. 0.04587 0.04587
31270.0 3.30465 0.0452(7) 1841027. 0.04584 0.04585
31290.0 3.30676 0.0451(7) 1844257. 0.04582 0.04582
31310.0 3.30888 0.0452(7) 1837709. 0.04580 0.04580
31330.0 3.31100 0.0453(7) 1830892. 0.04578 0.04578
31350.0 3.31311 0.0456(7) 1817759. 0.04575 0.04576
31370.0 3.31523 0.0446(7) 1856241. 0.04573 0.04573
31390.0 3.31734 0.0448(7) 1841835. 0.04571 0.04571
31410.0 3.31946 0.0451(7) 1828428. 0.04569 0.04569
31430.0 3.32158 0.0455(7) 1810378. 0.04567 0.04567
31450.0 3.32369 0.0456(7) 1802744. 0.04564 0.04564
31470.0 3.32581 0.0457(7) 1792736. 0.04562 0.04562
31490.0 3.32793 0.0440(7) 1862448. 0.04560 0.04560
31510.0 3.33004 0.0455(7) 1794751. 0.04558 0.04558
31530.0 3.33216 0.0459(8) 1775816. 0.04556 0.04556
31550.0 3.33428 0.0457(7) 1781474. 0.04553 0.04554
31570.0 3.33639 0.0452(7) 1802209. 0.04551 0.04551
31590.0 3.33851 0.0447(7) 1817450. 0.04549 0.04549
31610.0 3.34062 0.0462(8) 1755101. 0.04547 0.04547
31630.0 3.34274 0.0456(7) 1779599. 0.04545 0.04545
31650.0 3.34486 0.0460(8) 1761742. 0.04543 0.04543
31670.0 3.34697 0.0473(8) 1708333. 0.04541 0.04541
31690.0 3.34909 0.0456(8) 1770824. 0.04538 0.04539
31710.0 3.35121 0.0445(7) 1817578. 0.04536 0.04537
31730.0 3.35332 0.0449(7) 1796797. 0.04534 0.04535
31750.0 3.35544 0.0450(7) 1788444. 0.04532 0.04532
31770.0 3.35756 0.0453(8) 1768632. 0.04530 0.04530
31790.0 3.35967 0.0458(8) 1744807. 0.04528 0.04528
31810.0 3.36179 0.0451(8) 1772244. 0.04526 0.04526
31830.0 3.36390 0.0458(8) 1741982. 0.04524 0.04524
31850.0 3.36602 0.0446(7) 1786277. 0.04522 0.04522
31870.0 3.36814 0.0459(8) 1732564. 0.04520 0.04520
31890.0 3.37025 0.0461(8) 1719478. 0.04518 0.04518
31910.0 3.37237 0.0458(8) 1732256. 0.04516 0.04516
31930.0 3.37449 0.0453(8) 1749685. 0.04514 0.04514
31950.0 3.37660 0.0452(8) 1749661. 0.04512 0.04512
31970.0 3.37872 0.0456(8) 1732954. 0.04510 0.04510
31990.0 3.38084 0.0453(8) 1741022. 0.04508 0.04508
32010.0 3.38295 0.0460(8) 1715193. 0.04506 0.04506
32030.0 3.38507 0.0461(8) 1707644. 0.04504 0.04504
32050.0 3.38718 0.0456(8) 1723521. 0.04502 0.04502
32070.0 3.38930 0.0445(8) 1765649. 0.04500 0.04500
32090.0 3.39142 0.0455(8) 1721448. 0.04498 0.04498
32110.0 3.39353 0.0452(8) 1733068. 0.04496 0.04496
32130.0 3.39565 0.0452(8) 1731721. 0.04494 0.04495
32150.0 3.39777 0.0457(8) 1709135. 0.04492 0.04493
32170.0 3.39988 0.0442(8) 1765520. 0.04490 0.04491
32190.0 3.40200 0.0459(8) 1694686. 0.04488 0.04489
32210.0 3.40412 0.0444(8) 1751375. 0.04486 0.04487
32230.0 3.40623 0.0464(8) 1670966. 0.04484 0.04485
32250.0 3.40835 0.0463(8) 1674063. 0.04482 0.04483
32270.0 3.41047 0.0446(8) 1735931. 0.04480 0.04482
32290.0 3.41258 0.0455(8) 1695763. 0.04478 0.04480
32310.0 3.41470 0.0455(8) 1693685. 0.04476 0.04478
32330.0 3.41681 0.0450(8) 1709631. 0.04474 0.04476
32350.0 3.41893 0.0467(8) 1643708. 0.04472 0.04475
32370.0 3.42105 0.0449(8) 1708892. 0.04471 0.04473
32390.0 3.42316 0.0456(8) 1680892. 0.04469 0.04472
32410.0 3.42528 0.0456(8) 1676637. 0.04467 0.04470
32430.0 3.42740 0.0459(8) 1665702. 0.04465 0.04469
32450.0 3.42951 0.0454(8) 1681430. 0.04463 0.04468
32470.0 3.43163 0.0453(8) 1685138. 0.04461 0.04468
32490.0 3.43375 0.0450(8) 1691601. 0.04459 0.04468
32510.0 3.43586 0.0459(8) 1655287. 0.04457 0.04469
32530.0 3.43798 0.0448(8) 1695476. 0.04456 0.04470
32550.0 3.44010 0.0443(8) 1712252. 0.04454 0.04473
32570.0 3.44221 0.0437(8) 1735709. 0.04452 0.04477
32590.0 3.44433 0.0460(8) 1644667. 0.04450 0.04483
32610.0 3.44645 0.0461(8) 1639915. 0.04448 0.04489
32630.0 3.44856 0.0456(8) 1653919. 0.04447 0.04495
32650.0 3.45068 0.0456(8) 1651176. 0.04445 0.04502
32670.0 3.45280 0.0450(8) 1671214. 0.04443 0.04508
32690.0 3.45491 0.0453(8) 1657483. 0.04441 0.04512
32710.0 3.45703 0.0451(8) 1659750. 0.04439 0.04514
32730.0 3.45914 0.0449(8) 1666740. 0.04437 0.04512
32750.0 3.46126 0.0450(8) 1656097. 0.04436 0.04508
32770.0 3.46338 0.0446(8) 1668099. 0.04434 0.04501
32790.0 3.46549 0.0459(8) 1619809. 0.04432 0.04492
32810.0 3.46761 0.0453(8) 1639172. 0.04430 0.04483
32830.0 3.46973 0.0457(8) 1622858. 0.04429 0.04473
32850.0 3.47184 0.0455(8) 1623677. 0.04427 0.04463
32870.0 3.47396 0.0457(8) 1612906. 0.04425 0.04455
32890.0 3.47608 0.0450(8) 1634993. 0.04423 0.04447
32910.0 3.47819 0.0454(8) 1617747. 0.04422 0.04440
32930.0 3.48031 0.0458(8) 1601500. 0.04420 0.04434
32950.0 3.48243 0.0461(8) 1590112. 0.04418 0.04429
32970.0 3.48454 0.0456(8) 1604868. 0.04416 0.04425
32990.0 3.48666 0.0453(8) 1615472. 0.04415 0.04422
33010.0 3.48878 0.0450(8) 1619586. 0.04413 0.04418
33030.0 3.49089 0.0448(8) 1624143. 0.04411 0.04416
33050.0 3.49301 0.0444(8) 1638108. 0.04410 0.04413
33070.0 3.49513 0.0455(8) 1595677. 0.04408 0.04411
33090.0 3.49724 0.0458(8) 1584012. 0.04406 0.04409
33110.0 3.49936 0.0453(8) 1597515. 0.04404 0.04407
33130.0 3.50148 0.0447(8) 1615895. 0.04403 0.04405
33150.0 3.50359 0.0472(8) 1523811. 0.04401 0.04403
33170.0 3.50571 0.0454(8) 1585814. 0.04399 0.04401
33190.0 3.5078 0.0450(8) 1595782. 0.04398 0.04399
33210.0 3.5099 0.0441(8) 1632425. 0.04396 0.04398
33230.0 3.5121 0.0445(8) 1614443. 0.04394 0.04396
33250.0 3.5142 0.0465(8) 1535845. 0.04393 0.04394
33270.0 3.5163 0.0448(8) 1591467. 0.04391 0.04392
33290.0 3.5184 0.0448(8) 1591939. 0.04389 0.04391
33310.0 3.5205 0.0450(8) 1579967. 0.04388 0.04389
33330.0 3.5226 0.0462(8) 1537314. 0.04386 0.04387
33350.0 3.5248 0.0448(8) 1583978. 0.04384 0.04385
33370.0 3.5269 0.0455(8) 1558464. 0.04383 0.04384
33390.0 3.5290 0.0447(8) 1583512. 0.04381 0.04382
33410.0 3.5311 0.0450(8) 1572161. 0.04379 0.04380
33430.0 3.5332 0.0453(8) 1559265. 0.04378 0.04379
33450.0 3.5353 0.0435(8) 1627486. 0.04376 0.04377
33470.0 3.5375 0.0441(8) 1601123. 0.04375 0.04376
33490.0 3.5396 0.0424(8) 1665800. 0.04373 0.04374
33510.0 3.5417 0.0449(8) 1568602. 0.04371 0.04372
33530.0 3.5438 0.0443(8) 1587323. 0.04370 0.04371
33550.0 3.5459 0.0438(8) 1603147. 0.04368 0.04369
33570.0 3.5480 0.0453(8) 1547172. 0.04367 0.04367
33590.0 3.5502 0.0440(8) 1594324. 0.04365 0.04366
33610.0 3.5523 0.0434(8) 1613517. 0.04363 0.04364
33630.0 3.5544 0.0434(8) 1612009. 0.04362 0.04363
33650.0 3.5565 0.0425(8) 1639073. 0.04360 0.04361
33670.0 3.5586 0.0445(8) 1561520. 0.04359 0.04359
33690.0 3.5607 0.0448(8) 1545000. 0.04357 0.04358
33710.0 3.5629 0.0448(8) 1540122. 0.04355 0.04356
33730.0 3.5650 0.0435(8) 1586325. 0.04354 0.04355
33750.0 3.5671 0.0431(8) 1598820. 0.04352 0.04353
33770.0 3.5692 0.0441(8) 1558112. 0.04351 0.04352
33790.0 3.5713 0.0436(8) 1575945. 0.04349 0.04350
33810.0 3.5734 0.0427(8) 1603608. 0.04348 0.04349
33830.0 3.5756 0.0434(8) 1575967. 0.04346 0.04347
33850.0 3.5777 0.0441(8) 1547869. 0.04345 0.04346
33870.0 3.5798 0.0431(8) 1582540. 0.04343 0.04344
33890.0 3.5819 0.0430(8) 1582673. 0.04341 0.04342
33910.0 3.5840 0.0439(8) 1548840. 0.04340 0.04341
33930.0 3.5861 0.0438(8) 1548339. 0.04338 0.04340
33950.0 3.5883 0.0437(8) 1549031. 0.04337 0.04338
33970.0 3.5904 0.0442(8) 1526516. 0.04335 0.04337
33990.0 3.5925 0.0441(8) 1527939. 0.04334 0.04335
34010.0 3.5946 0.0428(8) 1576588. 0.04332 0.04334
34030.0 3.5967 0.0435(8) 1547330. 0.04331 0.04332
34050.0 3.5988 0.0439(8) 1530613. 0.04329 0.04331
34070.0 3.6010 0.0429(8) 1562365. 0.04328 0.04329
34090.0 3.6031 0.0435(8) 1539944. 0.04326 0.04328
34110.0 3.6052 0.0429(8) 1558922. 0.04325 0.04326
34130.0 3.6073 0.0434(8) 1535796. 0.04323 0.04325
34150.0 3.6094 0.0426(8) 1563467. 0.04322 0.04324
34170.0 3.6115 0.0445(8) 1496398. 0.04320 0.04323
34190.0 3.6137 0.0421(8) 1582064. 0.04319 0.04321
34210.0 3.6158 0.0429(8) 1547836. 0.04317 0.04320
34230.0 3.6179 0.0415(8) 1596151. 0.04316 0.04319
34250.0 3.6200 0.0427(8) 1549455. 0.04314 0.04318
34270.0 3.6221 0.0430(8) 1534655. 0.04313 0.04317
34290.0 3.6242 0.0431(8) 1532564. 0.04311 0.04317
34310.0 3.6264 0.0429(8) 1534683. 0.04310 0.04317
34330.0 3.6285 0.0412(8) 1598214. 0.04308 0.04318
34350.0 3.6306 0.0425(8) 1541164. 0.04307 0.04319
34370.0 3.6327 0.0434(8) 1507185. 0.04305 0.04322
34390.0 3.6348 0.0416(8) 1569920. 0.04304 0.04325
34410.0 3.6369 0.0437(8) 1490673. 0.04303 0.04329
34430.0 3.6391 0.0442(8) 1469963. 0.04301 0.04335
34450.0 3.6412 0.0433(8) 1497450. 0.04300 0.04342
34470.0 3.6433 0.0443(8) 1460619. 0.04298 0.04349
34490.0 3.6454 0.0451(8) 1431091. 0.04297 0.04356
34510.0 3.6475 0.0433(8) 1491261. 0.04295 0.04363
34530.0 3.6496 0.0443(8) 1453792. 0.04294 0.04368
34550.0 3.6518 0.0443(8) 1451502. 0.04293 0.04371
34570.0 3.6539 0.0427(8) 1504856. 0.04291 0.04371
34590.0 3.6560 0.0436(8) 1467092. 0.04290 0.04368
34610.0 3.6581 0.0436(8) 1465462. 0.04288 0.04362
34630.0 3.6602 0.0433(8) 1472261. 0.04287 0.04355
34650.0 3.6623 0.0449(8) 1414647. 0.04285 0.04346
34670.0 3.6645 0.0437(8) 1451212. 0.04284 0.04337
34690.0 3.6666 0.0426(8) 1487389. 0.04283 0.04327
34710.0 3.6687 0.0427(8) 1479829. 0.04281 0.04318
34730.0 3.6708 0.0439(8) 1434655. 0.04280 0.04310
34750.0 3.6729 0.0426(8) 1477888. 0.04278 0.04303
34770.0 3.6750 0.0404(8) 1556936. 0.04277 0.04296
34790.0 3.6772 0.0434(8) 1439704. 0.04276 0.04291
34810.0 3.6793 0.0434(8) 1438626. 0.04274 0.04286
34830.0 3.6814 0.0416(8) 1497605. 0.04273 0.04282
34850.0 3.6835 0.0431(8) 1441989. 0.04272 0.04279
34870.0 3.6856 0.0419(8) 1481619. 0.04270 0.04276
34890.0 3.6877 0.0416(8) 1491840. 0.04269 0.04274
34910.0 3.6899 0.0439(8) 1406228. 0.04268 0.04272
34930.0 3.6920 0.0435(8) 1416397. 0.04266 0.04275
34950.0 3.6941 0.0422(8) 1458827. 0.04265 0.04274
34970.0 3.6962 0.0425(8) 1448962. 0.04263 0.04272
34990.0 3.6983 0.0435(8) 1408806. 0.04262 0.04271
35010.0 3.7004 0.0421(8) 1456383. 0.04261 0.04269
35030.0 3.7026 0.0429(8) 1423325. 0.04259 0.04268
35050.0 3.7047 0.0413(8) 1478479. 0.04258 0.04266
35070.0 3.7068 0.0421(8) 1445628. 0.04257 0.04265
35090. 3.7089 0.0430(8) 1408368. 0.04255 0.04264
35110. 3.7110 0.0425(8) 1423072. 0.04254 0.04262
35130. 3.7131 0.0422(8) 1431922. 0.04253 0.04261
35150. 3.7153 0.0429(8) 1402852. 0.04252 0.04260
35170. 3.7174 0.0413(8) 1456158. 0.04250 0.04259
35190. 3.7195 0.0432(8) 1386085. 0.04249 0.04258
35210. 3.7216 0.0417(8) 1432987. 0.04248 0.04256
35230. 3.7237 0.0439(9) 1353475. 0.04246 0.04255
35250. 3.7259 0.0439(9) 1349528. 0.04245 0.04254
35270. 3.7280 0.0432(9) 1365336. 0.04244 0.04253
35290. 3.7301 0.0427(9) 1382353. 0.04242 0.04252
35310. 3.7322 0.0431(9) 1364909. 0.04241 0.04251
35330. 3.7343 0.0436(9) 1341108. 0.04240 0.04250
35350. 3.7364 0.0411(8) 1420580. 0.04239 0.04249
35370. 3.7386 0.0415(8) 1403486. 0.04237 0.04247
35390. 3.7407 0.0433(9) 1339037. 0.04236 0.04246
35410. 3.7428 0.0425(9) 1361605. 0.04235 0.04245
35430. 3.7449 0.0433(9) 1330824. 0.04234 0.04244
35450. 3.7470 0.0427(9) 1347298. 0.04232 0.04243
35470. 3.7491 0.0432(9) 1324434. 0.04231 0.04242
35490. 3.7513 0.0420(9) 1363409. 0.04230 0.04241
35510. 3.7534 0.0432(9) 1320145. 0.04229 0.04241
35530. 3.7555 0.0412(9) 1383314. 0.04227 0.04240
35550. 3.7576 0.0433(9) 1311570. 0.04226 0.04239
35570. 3.7597 0.0430(9) 1317343. 0.04225 0.04238
35590. 3.7618 0.0429(9) 1315565. 0.04224 0.04237
35610. 3.7640 0.0438(9) 1282642. 0.04223 0.04236
35630. 3.7661 0.0429(9) 1307674. 0.04221 0.04235
35650. 3.7682 0.0418(9) 1339077. 0.04220 0.04235
35670. 3.7703 0.0425(9) 1312234. 0.04219 0.04234
35690. 3.7724 0.0431(9) 1289644. 0.04218 0.04233
35710. 3.7745 0.0429(9) 1293819. 0.04217 0.04232
35730. 3.7767 0.0436(9) 1267256. 0.04216 0.04232
35750. 3.7788 0.0436(9) 1268470. 0.04214 0.04231
35770. 3.7809 0.0423(9) 1305868. 0.04213 0.04231
35790. 3.7830 0.0427(9) 1288758. 0.04212 0.04230
35810. 3.7851 0.0430(9) 1278057. 0.04211 0.04229
35830. 3.7872 0.0424(9) 1293010. 0.04210 0.04229
35850. 3.7894 0.0434(9) 1257791. 0.04209 0.04229
35870. 3.7915 0.0431(9) 1266703. 0.04207 0.04228
35890. 3.7936 0.0423(9) 1290595. 0.04206 0.04228
35910. 3.7957 0.0414(9) 1315579. 0.04205 0.04228
35930. 3.7978 0.0433(9) 1252707. 0.04204 0.04227
35950. 3.7999 0.0432(9) 1250850. 0.04203 0.04227
35970. 3.8021 0.0428(9) 1259192. 0.04202 0.04227
35990. 3.8042 0.0417(9) 1291457. 0.04201 0.04227
36010. 3.8063 0.0420(9) 1279037. 0.04200 0.04227
36030. 3.8084 0.0434(9) 1231673. 0.04199 0.04227
36050. 3.8105 0.0428(9) 1247646. 0.04197 0.04227
36070. 3.8126 0.0428(9) 1246046. 0.04196 0.04228
36090. 3.8148 0.0424(9) 1256743. 0.04195 0.04228
36110. 3.8169 0.0408(9) 1305255. 0.04194 0.04229
36130. 3.8190 0.0433(9) 1224991. 0.04193 0.04230
36150. 3.8211 0.0422(9) 1257119. 0.04192 0.04231
36170. 3.8232 0.0414(9) 1279178. 0.04191 0.04234
36190. 3.8253 0.0422(9) 1254611. 0.04190 0.04235
36210. 3.8275 0.0417(9) 1267803. 0.04189 0.04237
36230. 3.8296 0.0427(9) 1237122. 0.04188 0.04238
36250. 3.8317 0.0424(9) 1243076. 0.04187 0.04240
36270. 3.8338 0.0421(9) 1250644. 0.04186 0.04242
36290. 3.8359 0.0416(9) 1264230. 0.04185 0.04245
36310. 3.8381 0.0406(9) 1293386. 0.04184 0.04247
36330. 3.8402 0.0422(9) 1238799. 0.04183 0.04250
36350. 3.8423 0.0428(9) 1222415. 0.04182 0.04254
36370. 3.8444 0.0419(9) 1248823. 0.04181 0.04258
36390. 3.8465 0.0423(9) 1232155. 0.04180 0.04263
36410. 3.8486 0.0416(9) 1251083. 0.04179 0.04268
36430. 3.8508 0.0427(9) 1214414. 0.04178 0.04274
36450. 3.8529 0.0413(9) 1254034. 0.04177 0.04281
36470. 3.8550 0.0419(9) 1230094. 0.04176 0.04289
36490. 3.8571 0.0414(9) 1241784. 0.04175 0.04299
36510. 3.8592 0.0417(9) 1231465. 0.04174 0.04312
36530. 3.8613 0.0417(9) 1224410. 0.04173 0.04327
36550. 3.8635 0.0433(9) 1174263. 0.04172 0.04348
36570. 3.8656 0.0429(9) 1181998. 0.04172 0.04376
36590. 3.8677 0.0425(9) 1185622. 0.04171 0.04413
36610. 3.8698 0.0425(9) 1180182. 0.04170 0.04465
36630. 3.8719 0.0465(10) 1068452. 0.04169 0.04536
36650. 3.8740 0.0456(10) 1083457. 0.04168 0.04633
36670. 3.8762 0.0454(10) 1085394. 0.04167 0.04761
36690. 3.8783 0.0484(10) 1008719. 0.04166 0.04929
36710. 3.8804 0.0498(10) 973149. 0.04165 0.05143
36730. 3.8825 0.0526(10) 914408. 0.04164 0.05405
36750. 3.8846 0.0559(11) 851868. 0.04164 0.05717
36770. 3.8867 0.0587(11) 804497. 0.04163 0.06075
36790. 3.8889 0.0640(12) 728317. 0.04162 0.06467
36810. 3.8910 0.0702(12) 653819. 0.04161 0.06877
36830. 3.8931 0.0753(13) 600362. 0.04160 0.07279
36850. 3.8952 0.0780(13) 573694. 0.04159 0.07641
36870. 3.8973 0.0799(13) 555279. 0.04159 0.07928
36890. 3.8994 0.0831(14) 528954. 0.04158 0.08108
36910. 3.9016 0.0854(14) 510684. 0.04157 0.08162
36930. 3.9037 0.0839(14) 519703. 0.04156 0.08087
36950. 3.9058 0.0823(14) 529927. 0.04156 0.07896
36970. 3.9079 0.0780(13) 561681. 0.04155 0.07615
36990. 3.9100 0.0754(13) 583040. 0.04154 0.07271
37010. 3.9122 0.0720(13) 613724. 0.04153 0.06895
37030. 3.9143 0.0670(12) 662173. 0.04153 0.06512
37050. 3.9164 0.0615(12) 729473. 0.04152 0.06142
37070. 3.9185 0.0574(11) 785451. 0.04151 0.05802
37090. 3.9206 0.0518(11) 874168. 0.04150 0.05500
37110. 3.9227 0.0494(10) 918190. 0.04150 0.05241
37130. 3.9249 0.0491(10) 923314. 0.04149 0.05026
37150. 3.9270 0.0483(10) 936038. 0.04148 0.04854
37170. 3.9291 0.0468(10) 967574. 0.04148 0.04714
37190. 3.9312 0.0458(10) 986550. 0.04147 0.04605
37210. 3.9333 0.0432(10) 1043355. 0.04146 0.04521
37230. 3.9354 0.0443(10) 1015984. 0.04146 0.04457
37250. 3.9376 0.0430(10) 1050162. 0.04145 0.04407
37270. 3.9397 0.0424(10) 1060339. 0.04144 0.04370
37290. 3.9418 0.0434(10) 1030856. 0.04144 0.04341
37310. 3.9439 0.0422(10) 1060876. 0.04143 0.04318
37330. 3.9460 0.0411(10) 1087352. 0.04143 0.04300
37350. 3.9481 0.0446(10) 994893. 0.04142 0.04286
37370. 3.9503 0.0436(10) 1021709. 0.04141 0.04275
37390. 3.9524 0.0421(10) 1051215. 0.04141 0.04265
37410. 3.9545 0.0425(10) 1040188. 0.04140 0.04257
37430. 3.9566 0.0440(10) 1002653. 0.04140 0.04251
37450. 3.9587 0.0426(10) 1032083. 0.04139 0.04245
37470. 3.9608 0.0415(10) 1057497. 0.04139 0.04241
37490. 3.9630 0.0426(10) 1029678. 0.04138 0.04237
37510. 3.9651 0.0425(10) 1027591. 0.04138 0.04234
37530. 3.9672 0.0425(10) 1024521. 0.04137 0.04231
37550. 3.9693 0.0425(10) 1022799. 0.04137 0.04229
37570. 3.9714 0.0414(10) 1045675. 0.04136 0.04228
37590. 3.9735 0.0413(10) 1045776. 0.04136 0.04227
37610. 3.9757 0.0412(10) 1048840. 0.04135 0.04227
37630. 3.9778 0.0436(10) 985727. 0.04135 0.04227
37650. 3.9799 0.0406(10) 1053331. 0.04134 0.04228
37670. 3.9820 0.0420(10) 1019029. 0.04134 0.04230
37690. 3.9841 0.0424(10) 1003312. 0.04133 0.04232
37710. 3.9863 0.0428(10) 987714. 0.04133 0.04236
37730. 3.9884 0.0423(10) 997890. 0.04132 0.04241
37750. 3.9905 0.0430(10) 978939. 0.04132 0.04248
37770. 3.9926 0.0423(10) 990421. 0.04132 0.04257
37790. 3.9947 0.0429(10) 976155. 0.04131 0.04271
37810. 3.9968 0.0441(10) 944924. 0.04131 0.04289
37830. 3.9990 0.0437(10) 949688. 0.04130 0.04315
37850. 4.0011 0.0427(10) 969223. 0.04130 0.04350
37870. 4.0032 0.0447(10) 922224. 0.04130 0.04398
37890. 4.0053 0.0448(10) 916321. 0.04129 0.04460
37910. 4.0074 0.0457(11) 895130. 0.04129 0.04540
37930. 4.0095 0.0458(11) 889780. 0.04129 0.04640
37950. 4.0117 0.0480(11) 841809. 0.04128 0.04762
37970. 4.0138 0.0477(11) 842793. 0.04128 0.04905
37990. 4.0159 0.0496(11) 806094. 0.04128 0.05071
38010. 4.0180 0.0520(11) 761753. 0.04128 0.05249
38030. 4.0201 0.0537(12) 732865. 0.04127 0.05434
38050. 4.0222 0.0552(12) 706637. 0.04127 0.05616
38070. 4.0244 0.0569(12) 680885. 0.04127 0.05782
38090. 4.0265 0.0573(12) 673740. 0.04126 0.05919
38110. 4.0286 0.0572(12) 673796. 0.04126 0.06013
38130. 4.0307 0.0579(12) 661924. 0.04126 0.06054
38150. 4.0328 0.0596(13) 637064. 0.04126 0.06040
38170. 4.0350 0.0594(13) 637065. 0.04126 0.05973
38190. 4.0371 0.0600(13) 628582. 0.04125 0.05862
38210. 4.0392 0.0582(12) 646223. 0.04125 0.05717
38230. 4.0413 0.0555(12) 677438. 0.04125 0.05552
38250. 4.0434 0.0544(12) 689422. 0.04125 0.05378
38270. 4.0455 0.0541(12) 691009. 0.04125 0.05205
38290. 4.0477 0.0505(12) 740602. 0.04125 0.05041
38310. 4.0498 0.0494(12) 755458. 0.04124 0.04892
38330. 4.0519 0.0491(11) 758610. 0.04124 0.04760
38350. 4.0540 0.0488(11) 759878. 0.04124 0.04648
38370. 4.0561 0.0479(11) 775123. 0.04124 0.04554
38390. 4.0582 0.0469(11) 791286. 0.04124 0.04478
38410. 4.0604 0.0463(11) 799519. 0.04124 0.04418
38430. 4.0625 0.0448(11) 824960. 0.04124 0.04370
38450. 4.0646 0.0441(11) 838127. 0.04124 0.04334
38470. 4.0667 0.0461(11) 797994. 0.04124 0.04296
38490. 4.0688 0.0445(11) 825437. 0.04124 0.04275
38510. 4.0709 0.0451(11) 813287. 0.04124 0.04260
38530. 4.0731 0.0437(11) 837822. 0.04124 0.04248
38550. 4.0752 0.0433(11) 843343. 0.04124 0.04240
38570. 4.0773 0.0460(11) 788220. 0.04124 0.04233
38590. 4.0794 0.0459(11) 790106. 0.04124 0.04229
38610. 4.0815 0.0442(11) 819183. 0.04124 0.04226
38630. 4.0837 0.0449(11) 804345. 0.04124 0.04225
38650. 4.0858 0.0417(11) 866602. 0.04124 0.04224
38670. 4.0879 0.0443(11) 812258. 0.04124 0.04224
38690. 4.0900 0.0442(11) 813323. 0.04124 0.04225
38710. 4.0921 0.0443(11) 807037. 0.04124 0.04227
38730. 4.0942 0.0433(11) 825252. 0.04124 0.04230
38750. 4.0964 0.0428(11) 834034. 0.04124 0.04234
38770. 4.0985 0.0437(11) 812605. 0.04124 0.04239
38790. 4.1006 0.0423(11) 838514. 0.04124 0.04245
38810. 4.1027 0.0432(11) 818251. 0.04124 0.04254
38830. 4.1048 0.0444(11) 790671. 0.04124 0.04265
38850. 4.1069 0.0447(11) 782849. 0.04124 0.04280
38870. 4.1091 0.0445(11) 786093. 0.04125 0.04300
38890. 4.1112 0.0439(11) 793648. 0.04125 0.04328
38910. 4.1133 0.0468(12) 739482. 0.04125 0.04366
38930. 4.1154 0.0462(12) 748558. 0.04125 0.04416
38950. 4.1175 0.0457(12) 755684. 0.04125 0.04483
38970. 4.1196 0.0465(12) 742334. 0.04125 0.04571
38990. 4.1218 0.0476(12) 722513. 0.04126 0.04682
39010. 4.1239 0.0482(12) 711659. 0.04126 0.04820
39030. 4.1260 0.0514(12) 663679. 0.04126 0.04987
39050. 4.1281 0.0506(12) 673827. 0.04126 0.05182
39070. 4.1302 0.0522(12) 649514. 0.04126 0.05403
39090. 4.1324 0.0540(13) 625119. 0.04127 0.05643
39110. 4.1345 0.0551(13) 609431. 0.04127 0.05893
39130. 4.1366 0.0577(13) 577193. 0.04127 0.06140
39150. 4.1387 0.0598(13) 553533. 0.04127 0.06366
39170. 4.1408 0.0584(13) 566555. 0.04128 0.06551
39190. 4.1429 0.0601(14) 547443. 0.04128 0.06678
39210. 4.1451 0.0606(14) 540594. 0.04128 0.06735
39230. 4.1472 0.0588(13) 556340. 0.04129 0.06716
39250. 4.1493 0.0579(13) 564086. 0.04129 0.06628
39270. 4.1514 0.0583(13) 557748. 0.04129 0.06480
39290. 4.1535 0.0586(13) 553440. 0.04130 0.06288
39310. 4.1556 0.0566(13) 574558. 0.04130 0.06069
39330. 4.1578 0.0538(13) 605135. 0.04130 0.05838
39350. 4.1599 0.0542(13) 598603. 0.04131 0.05607
39370. 4.1620 0.0533(13) 604731. 0.04131 0.05388
39390. 4.1641 0.0505(13) 639506. 0.04131 0.05188
39410. 4.1662 0.0488(12) 661352. 0.04132 0.05010
39430. 4.1684 0.0462(12) 698379. 0.04132 0.04858
39450. 4.1705 0.0462(12) 695647. 0.04132 0.04731
39470. 4.1726 0.0470(12) 683001. 0.04133 0.04627
39490. 4.1747 0.0467(12) 687588. 0.04133 0.04544
39510. 4.1768 0.0444(12) 723072. 0.04134 0.04480
39530. 4.1789 0.0466(12) 683447. 0.04134 0.04430
39550. 4.1811 0.0460(12) 691464. 0.04135 0.04393
39570. 4.1832 0.0441(12) 722180. 0.04135 0.04365
39590. 4.1853 0.0452(12) 701868. 0.04135 0.04346
39610. 4.1874 0.0450(12) 701464. 0.04136 0.04333
39630. 4.1895 0.0430(12) 734773. 0.04136 0.04325
39650. 4.1916 0.0448(12) 701750. 0.04137 0.04321
39670. 4.1938 0.0447(12) 701911. 0.04137 0.04323
39690. 4.1959 0.0438(12) 716936. 0.04138 0.04330
39710. 4.1980 0.0449(12) 694985. 0.04138 0.04339
39730. 4.2001 0.0462(12) 672683. 0.04139 0.04360
39750. 4.2022 0.0443(12) 701379. 0.04139 0.04390
39770. 4.2044 0.0457(12) 677051. 0.04140 0.04432
39790. 4.2065 0.0460(12) 672516. 0.04140 0.04490
39810. 4.2086 0.0457(12) 673903. 0.04141 0.04565
39830. 4.2107 0.0478(12) 641659. 0.04141 0.04661
39850. 4.2128 0.0485(13) 630429. 0.04142 0.04781
39870. 4.2149 0.0504(13) 603512. 0.04143 0.04926
39890. 4.2171 0.0481(13) 633324. 0.04143 0.05095
39910. 4.2192 0.0523(13) 577930. 0.04144 0.05286
39930. 4.2213 0.0541(13) 556186. 0.04144 0.05495
39950. 4.2234 0.0542(13) 554491. 0.04145 0.05713
39970. 4.2255 0.0556(14) 537378. 0.04145 0.05929
39990. 4.2276 0.0566(14) 526413. 0.04146 0.06128
40010. 4.2298 0.0587(14) 504703. 0.04147 0.06295
40030. 4.2319 0.0588(14) 502536. 0.04147 0.06414
40050. 4.2340 0.0612(14) 478734. 0.04148 0.06473
40070. 4.2361 0.0583(14) 504387. 0.04148 0.06468
40090. 4.2382 0.0601(14) 486972. 0.04149 0.06401
40110. 4.2404 0.0610(14) 478338. 0.04150 0.06280
40130. 4.2425 0.0586(14) 499070. 0.04150 0.06119
40150. 4.2446 0.0558(14) 525603. 0.04151 0.05930
40170. 4.2467 0.0555(14) 528025. 0.04152 0.05727
40190. 4.2488 0.0550(14) 531686. 0.04152 0.05522
40210. 4.2509 0.0531(13) 552245. 0.04153 0.05324
40230. 4.2531 0.0549(14) 531798. 0.04154 0.05140
40250. 4.2552 0.0496(13) 593360. 0.04154 0.04975
40270. 4.2573 0.0471(13) 628118. 0.04155 0.04831
40290. 4.2594 0.0487(13) 605782. 0.04156 0.04708
40310. 4.2615 0.0484(13) 609037. 0.04156 0.04607
40330. 4.2636 0.0439(12) 672284. 0.04157 0.04524
40350. 4.2658 0.0432(12) 684338. 0.04158 0.04458
40370. 4.2679 0.0436(12) 676321. 0.04158 0.04406
40390. 4.2700 0.0431(12) 683685. 0.04159 0.04365
40410. 4.2721 0.0440(12) 668671. 0.04160 0.04333
40430. 4.2742 0.0414(12) 710685. 0.04160 0.04308
40450. 4.2764 0.0434(12) 674290. 0.04161 0.04289
40470. 4.2785 0.0448(12) 649437. 0.04162 0.04274
40490. 4.2806 0.0414(12) 702952. 0.04163 0.04262
40510. 4.2827 0.0441(12) 658312. 0.04163 0.04253
40530. 4.2848 0.0434(12) 669193. 0.04164 0.04245
40550. 4.2869 0.0440(12) 657159. 0.04165 0.04239
40570. 4.2891 0.0419(12) 689863. 0.04165 0.04234
40590. 4.2912 0.0410(12) 705678. 0.04166 0.04230
40610. 4.2933 0.0402(12) 718799. 0.04167 0.04226
40630. 4.2954 0.0424(12) 676357. 0.04168 0.04223
40650. 4.2975 0.0431(12) 665182. 0.04168 0.04220
40670. 4.2996 0.0423(12) 677042. 0.04169 0.04218
40690. 4.3018 0.0436(12) 653534. 0.04170 0.04216
40710. 4.3039 0.0447(13) 636425. 0.04171 0.04214
40730. 4.3060 0.0432(12) 656990. 0.04171 0.04212
40750. 4.3081 0.0418(12) 679622. 0.04172 0.04211
40770. 4.3102 0.0428(12) 660762. 0.04173 0.04210
40790. 4.3124 0.0439(12) 643104. 0.04174 0.04209
40810. 4.3145 0.0427(12) 661043. 0.04174 0.04208
40830. 4.3166 0.0424(12) 666300. 0.04175 0.04207
40850. 4.3187 0.0426(12) 661476. 0.04176 0.04207
40870. 4.3208 0.0431(12) 653674. 0.04177 0.04200
40890. 4.3229 0.0423(12) 664555. 0.04177 0.04200
40910. 4.3251 0.0430(12) 652293. 0.04178 0.04199
40930. 4.3272 0.0424(12) 660817. 0.04179 0.04199
40950. 4.3293 0.0434(12) 644600. 0.04180 0.04199
40970. 4.3314 0.0454(13) 613902. 0.04181 0.04199
40990. 4.3335 0.0441(13) 631499. 0.04181 0.04199
41010. 4.3356 0.0421(12) 662361. 0.04182 0.04199
41030. 4.3378 0.0423(12) 659258. 0.04183 0.04199
41050. 4.3399 0.0435(12) 641133. 0.04184 0.04199
41070. 4.3420 0.0431(12) 647472. 0.04184 0.04199
41090. 4.3441 0.0434(12) 640899. 0.04185 0.04200
41110. 4.3462 0.0412(12) 674880. 0.04186 0.04200
41130. 4.3484 0.0431(12) 642990. 0.04187 0.04200
41150. 4.3505 0.0423(12) 653501. 0.04188 0.04200
41170. 4.3526 0.0446(13) 617296. 0.04188 0.04201
41190. 4.3547 0.0424(12) 649781. 0.04189 0.04201
41210. 4.3568 0.0408(12) 673133. 0.04190 0.04202
41230. 4.3589 0.0414(12) 664731. 0.04191 0.04202
41250. 4.3611 0.0443(13) 620053. 0.04192 0.04202
41270. 4.3632 0.0441(13) 623529. 0.04192 0.04203
41290. 4.3653 0.0430(13) 639603. 0.04193 0.04203
41310. 4.3674 0.0431(13) 636519. 0.04194 0.04204
41330. 4.3695 0.0410(12) 669795. 0.04195 0.04204
41350. 4.3717 0.0413(12) 663288. 0.04195 0.04205
41370. 4.3738 0.0411(12) 664576. 0.04196 0.04205
41390. 4.3759 0.0430(13) 632317. 0.04197 0.04206
41410. 4.3780 0.0428(13) 633509. 0.04198 0.04206
41430. 4.3801 0.0410(12) 660977. 0.04199 0.04207
41450. 4.3822 0.0428(13) 630848. 0.04199 0.04207
41470. 4.3844 0.0421(13) 637262. 0.04200 0.04208
41490. 4.3865 0.0430(13) 622419. 0.04201 0.04208
41510. 4.3886 0.0425(13) 628377. 0.04202 0.04209
41530. 4.3907 0.0414(12) 644225. 0.04202 0.04209
41550. 4.3928 0.0426(13) 623434. 0.04203 0.04210
41570. 4.3949 0.0414(12) 640372. 0.04204 0.04211
41590. 4.3971 0.0427(13) 619773. 0.04205 0.04211
41610. 4.3992 0.0430(13) 613433. 0.04205 0.04212
41630. 4.4013 0.0413(13) 638081. 0.04206 0.04212
41650. 4.4034 0.0427(13) 614597. 0.04207 0.04213
41670. 4.4055 0.0421(13) 620748. 0.04208 0.04214
41690. 4.4077 0.0416(13) 625946. 0.04208 0.04214
41710. 4.4098 0.0417(13) 620934. 0.04209 0.04209
41730. 4.4119 0.0414(13) 626055. 0.04210 0.04210
41750. 4.4140 0.0440(13) 586240. 0.04211 0.04211
41770. 4.4161 0.0444(13) 579396. 0.04211 0.04211
41790. 4.4182 0.0433(13) 592095. 0.04212 0.04212
41810. 4.4204 0.0425(13) 602941. 0.04213 0.04213
41830. 4.4225 0.0431(13) 593891. 0.04214 0.04214
41850. 4.4246 0.0415(13) 616309. 0.04214 0.04214
41870. 4.4267 0.0412(13) 619035. 0.04215 0.04215
41890. 4.4288 0.0429(13) 592874. 0.04216 0.04216
41910. 4.4310 0.0427(13) 595200. 0.04216 0.04216
41930. 4.4331 0.0428(13) 591094. 0.04217 0.04217
41950. 4.4352 0.0418(13) 604309. 0.04218 0.04218
41970. 4.4373 0.0429(13) 587481. 0.04218 0.04218
41990. 4.4394 0.0412(13) 609765. 0.04219 0.04219
42010. 4.4415 0.0425(13) 588366. 0.04220 0.04220
42030. 4.4437 0.0428(13) 582003. 0.04221 0.04221
42050. 4.4458 0.0432(13) 573455. 0.04221 0.04221
42070. 4.4479 0.0399(13) 620912. 0.04222 0.04222
42090. 4.4500 0.0427(13) 578898. 0.04223 0.04223
42110. 4.4521 0.0428(13) 574607. 0.04223 0.04223
42130. 4.4542 0.0422(13) 581441. 0.04224 0.04224
42150. 4.4564 0.0416(13) 587744. 0.04225 0.04225
42170. 4.4585 0.0426(13) 571124. 0.04225 0.04225
42190. 4.4606 0.0422(13) 574329. 0.04226 0.04226
42210. 4.4627 0.0410(13) 590784. 0.04226 0.04226
42230. 4.4648 0.0444(14) 542533. 0.04227 0.04227
42250. 4.4670 0.0417(13) 577839. 0.04228 0.04228
42270. 4.4691 0.0419(13) 572077. 0.04228 0.04228
42290. 4.4712 0.0402(13) 596172. 0.04229 0.04229
42310. 4.4733 0.0448(14) 531197. 0.04230 0.04230
42330. 4.4754 0.0431(13) 550214. 0.04230 0.04230
42350. 4.4775 0.0436(14) 540541. 0.04231 0.04231
42370. 4.4797 0.0445(14) 527422. 0.04231 0.04231
42390. 4.4818 0.0441(14) 531978. 0.04232 0.04232
42410. 4.4839 0.0435(14) 538599. 0.04232 0.04232
42430. 4.4860 0.0433(14) 539539. 0.04233 0.04233
42450. 4.4881 0.0427(14) 546536. 0.04234 0.04234
42470. 4.4903 0.0410(13) 567374. 0.04234 0.04234
42490. 4.4924 0.0431(14) 536007. 0.04235 0.04235
42510. 4.4945 0.0420(13) 548963. 0.04235 0.04235
42530. 4.4966 0.0440(14) 522121. 0.04236 0.04236
42550. 4.4987 0.0429(14) 536093. 0.04236 0.04236
42570. 4.5008 0.0417(13) 550422. 0.04237 0.04237
42590. 4.5030 0.0425(14) 539136. 0.04237 0.04237
42610. 4.5051 0.0403(13) 568662. 0.04238 0.04238
42630. 4.5072 0.0424(14) 536696. 0.04238 0.04238
42650. 4.5093 0.0428(14) 530040. 0.04239 0.04239
42670. 4.5114 0.0422(14) 538137. 0.04239 0.04239
42690. 4.5136 0.0439(14) 514988. 0.04240 0.04240
42710. 4.5157 0.0427(14) 528385. 0.04240 0.04240
42730. 4.5178 0.0430(14) 523512. 0.04241 0.04241
42750. 4.5199 0.0436(14) 516203. 0.04241 0.04241
42770. 4.5220 0.0445(14) 502664. 0.04242 0.04242
42790. 4.5241 0.0434(14) 515133. 0.04242 0.04242
42810. 4.5263 0.0432(14) 516251. 0.04242 0.04242
42830. 4.5284 0.0445(14) 500936. 0.04243 0.04243
42850. 4.5305 0.0420(14) 531553. 0.04243 0.04243
42870. 4.5326 0.0442(14) 503757. 0.04244 0.04244
42890. 4.5347 0.0435(14) 511802. 0.04244 0.04244
42910. 4.5369 0.0430(14) 517587. 0.04245 0.04245
42930. 4.5390 0.0432(14) 514596. 0.04245 0.04245
42950. 4.5411 0.0447(14) 496566. 0.04245 0.04245
42970. 4.5432 0.0394(13) 565912. 0.04246 0.04246
42990. 4.5453 0.0422(14) 525697. 0.04246 0.04246
43010. 4.5474 0.0436(14) 507023. 0.04246 0.04246
43030. 4.5496 0.0432(14) 512714. 0.04247 0.04247
43050. 4.5517 0.0434(14) 511096. 0.04247 0.04247
43070. 4.5538 0.0436(14) 508717. 0.04247 0.04247
43090. 4.5559 0.0423(14) 523483. 0.04248 0.04248
43110. 4.5580 0.0437(14) 504957. 0.04248 0.04248
43130. 4.5602 0.0447(14) 494085. 0.04248 0.04248
43150. 4.5623 0.0416(14) 531586. 0.04249 0.04249
43170. 4.5644 0.0438(14) 503965. 0.04249 0.04249
43190. 4.5665 0.0437(14) 504366. 0.04249 0.04249
43210. 4.5686 0.0409(14) 540127. 0.04249 0.04249
43230. 4.5707 0.0424(14) 520007. 0.04250 0.04250
43250. 4.5729 0.0441(14) 499333. 0.04250 0.04250
43270. 4.5750 0.0415(14) 531169. 0.04250 0.04250
43290. 4.5771 0.0443(14) 492974. 0.04250 0.04250
43310. 4.5792 0.0420(14) 518612. 0.04251 0.04251
43330. 4.5813 0.0424(14) 513473. 0.04251 0.04251
43350. 4.5835 0.0420(14) 518578. 0.04251 0.04251
43370. 4.5856 0.0410(14) 529965. 0.04251 0.04251
43390. 4.5877 0.0412(14) 525372. 0.04251 0.04251
43410. 4.5898 0.0419(14) 516491. 0.04252 0.04252
43430. 4.5919 0.0444(14) 485178. 0.04252 0.04252
43450. 4.5940 0.0436(14) 492678. 0.04252 0.04252
43470. 4.5962 0.0425(14) 505940. 0.04252 0.04254
43490. 4.5983 0.0423(14) 508620. 0.04252 0.04254
43510. 4.6004 0.0421(14) 511714. 0.04252 0.04254
43530. 4.6025 0.0413(14) 520744. 0.04253 0.04254
43550. 4.6046 0.0431(14) 497275. 0.04253 0.04254
43570. 4.6068 0.0429(14) 500799. 0.04253 0.04254
43590. 4.6089 0.0433(14) 495525. 0.04253 0.04254
43610. 4.6110 0.0414(14) 518315. 0.04253 0.04255
43630. 4.6131 0.0444(14) 480759. 0.04253 0.04255
43650. 4.6152 0.0419(14) 511551. 0.04253 0.04255
43670. 4.6173 0.0430(14) 496257. 0.04253 0.04255
43690. 4.6195 0.0396(14) 539739. 0.04253 0.04255
43710. 4.6216 0.0426(14) 498935. 0.04253 0.04255
43730. 4.6237 0.0447(15) 472494. 0.04253 0.04255
43750. 4.6258 0.0428(14) 494153. 0.04253 0.04255
43770. 4.6279 0.0416(14) 508112. 0.04254 0.04255
43790. 4.6301 0.0443(15) 475294. 0.04254 0.04255
43810. 4.6322 0.0445(15) 472728. 0.04254 0.04255
43830. 4.6343 0.0422(14) 499157. 0.04254 0.04255
43850. 4.6364 0.0437(14) 480498. 0.04254 0.04255
43870. 4.6385 0.0418(14) 502545. 0.04254 0.04255
43890. 4.6406 0.0423(14) 493633. 0.04254 0.04256
43910. 4.6428 0.0418(14) 500382. 0.04253 0.04256
43930. 4.6449 0.0431(14) 483951. 0.04253 0.04256
43950. 4.6470 0.0437(14) 476418. 0.04253 0.04256
43970. 4.6491 0.0428(14) 485469. 0.04253 0.04256
43990. 4.6512 0.0444(15) 466751. 0.04253 0.04256
44010. 4.6534 0.0435(14) 475803. 0.04253 0.04256
44030. 4.6555 0.0408(14) 507385. 0.04253 0.04255
44050. 4.6576 0.0406(14) 507514. 0.04253 0.04255
44070. 4.6597 0.0439(15) 466184. 0.04253 0.04255
44090. 4.6618 0.0428(14) 477542. 0.04253 0.04255
44110. 4.6639 0.0411(14) 497740. 0.04253 0.04255
44130. 4.6661 0.0422(14) 482568. 0.04253 0.04255
44150. 4.6682 0.0434(15) 469033. 0.04253 0.04255
44170. 4.6703 0.0429(15) 474100. 0.04252 0.04255
44190. 4.6724 0.0439(15) 461935. 0.04252 0.04255
44210. 4.6745 0.0422(14) 480701. 0.04252 0.04255
44230. 4.6767 0.0428(15) 473304. 0.04252 0.04255
44250. 4.6788 0.0413(14) 489061. 0.04252 0.04255
44270. 4.6809 0.0426(15) 470823. 0.04252 0.04255
44290. 4.6830 0.0428(15) 466717. 0.04252 0.04255
44310. 4.6851 0.0434(15) 459325. 0.04251 0.04255
44330. 4.6872 0.0441(15) 450636. 0.04251 0.04254
44350. 4.6894 0.0438(15) 451697. 0.04251 0.04254
44370. 4.6915 0.0412(14) 479980. 0.04251 0.04254
44390. 4.6936 0.0419(15) 469471. 0.04251 0.04254
44410. 4.6957 0.0452(15) 431948. 0.04250 0.04254
44430. 4.6978 0.0443(15) 442066. 0.04250 0.04254
44450. 4.7000 0.0427(15) 457545. 0.04250 0.04254
44470. 4.7021 0.0448(15) 434115. 0.04250 0.04254
44490. 4.7042 0.0426(15) 457518. 0.04249 0.04254
44510. 4.7063 0.0444(15) 438119. 0.04249 0.04254
44530. 4.7084 0.0445(15) 437062. 0.04249 0.04253
44550. 4.7105 0.0429(15) 453183. 0.04249 0.04253
44570. 4.7127 0.0427(15) 454672. 0.04248 0.04253
44590. 4.7148 0.0426(15) 454046. 0.04248 0.04253
44610. 4.7169 0.0442(15) 435865. 0.04248 0.04253
44630. 4.7190 0.0426(15) 451011. 0.04248 0.04253
44650. 4.7211 0.0446(15) 427984. 0.04247 0.04253
44670. 4.7233 0.0408(15) 469649. 0.04247 0.04253
44690. 4.7254 0.0432(15) 442779. 0.04247 0.04253
44710. 4.7275 0.0455(15) 418175. 0.04247 0.04252
44730. 4.7296 0.0439(15) 434405. 0.04246 0.04252
44750. 4.7317 0.0423(15) 450939. 0.04246 0.04252
44770. 4.7338 0.0389(14) 491334. 0.04246 0.04252
44790. 4.7360 0.0431(15) 441653. 0.04245 0.04252
44810. 4.7381 0.0438(15) 433225. 0.04245 0.04252
44830. 4.7402 0.0458(16) 411549. 0.04245 0.04252
44850. 4.7423 0.0428(15) 440185. 0.04244 0.04252
44870. 4.7444 0.0422(15) 446666. 0.04244 0.04252
44890. 4.7466 0.0406(15) 464884. 0.04244 0.04252
44910. 4.7487 0.0432(15) 434498. 0.04243 0.04252
44930. 4.7508 0.0436(15) 429023. 0.04243 0.04252
44950. 4.7529 0.0409(15) 456352. 0.04243 0.04252
44970. 4.7550 0.0422(15) 440225. 0.04242 0.04252
44990. 4.7572 0.0413(15) 448060. 0.04242 0.04252
45010. 4.7593 0.0415(15) 446076. 0.04242 0.04253
45030. 4.7614 0.0418(15) 441344. 0.04241 0.04253
45050. 4.7635 0.0430(15) 427103. 0.04241 0.04253
45070. 4.7656 0.0452(16) 405416. 0.04241 0.04253
45090. 4.7677 0.0431(15) 424720. 0.04240 0.04253
45110. 4.7699 0.0454(16) 399771. 0.04240 0.04254
45130. 4.7720 0.0411(15) 441112. 0.04240 0.04254
45150. 4.7741 0.0436(16) 412872. 0.04239 0.04255
45170. 4.7762 0.0434(16) 414982. 0.04239 0.04255
45190. 4.7783 0.0401(15) 449154. 0.04238 0.04256
45210. 4.7805 0.0417(15) 429480. 0.04238 0.04257
45230. 4.7826 0.0422(15) 423083. 0.04238 0.04257
45250. 4.7847 0.0451(16) 392820. 0.04237 0.04258
45270. 4.7868 0.0444(16) 396568. 0.04237 0.04259
45290. 4.7889 0.0439(16) 400529. 0.04237 0.04261
45310. 4.7910 0.0415(15) 424233. 0.04236 0.04262
45330. 4.7932 0.0442(16) 395631. 0.04236 0.04264
45350. 4.7953 0.0444(16) 392882. 0.04235 0.04266
45370. 4.7974 0.0440(16) 396628. 0.04235 0.04269
45390. 4.7995 0.0418(15) 418191. 0.04235 0.04272
45410. 4.8016 0.0430(16) 406459. 0.04234 0.04277
45430. 4.8038 0.0417(15) 418753. 0.04234 0.04282
45450. 4.8059 0.0426(16) 408807. 0.04234 0.04290
45470. 4.8080 0.0421(16) 412797. 0.04233 0.04300
45490. 4.8101 0.0431(16) 401733. 0.04233 0.04312
45510. 4.8122 0.0431(16) 400802. 0.04232 0.04328
45530. 4.8143 0.0421(16) 409308. 0.04232 0.04349
45550. 4.8165 0.0449(16) 381865. 0.04232 0.04375
45570. 4.8186 0.0420(16) 409380. 0.04231 0.04408
45590. 4.8207 0.0440(16) 389078. 0.04231 0.04447
45610. 4.8228 0.0441(16) 388076. 0.04231 0.04493
45630. 4.8249 0.0435(16) 391991. 0.04230 0.04547
45650. 4.8271 0.0443(16) 385662. 0.04230 0.04607
45670. 4.8292 0.0440(16) 388286. 0.04229 0.04674
45690. 4.8313 0.0454(16) 375318. 0.04229 0.04746
45710. 4.8334 0.0472(17) 357866. 0.04229 0.04820
45730. 4.8355 0.0445(16) 381221. 0.04228 0.04894
45750. 4.8377 0.0483(17) 348850. 0.04228 0.04963
45770. 4.8398 0.0465(17) 361787. 0.04228 0.05024
45790. 4.8419 0.0461(17) 365708. 0.04227 0.05072
45810. 4.8440 0.0461(17) 367014. 0.04227 0.05103
45830. 4.8461 0.0457(16) 369366. 0.04227 0.05116
45850. 4.8482 0.0468(17) 360660. 0.04226 0.05108
45870. 4.8504 0.0466(17) 362057. 0.04226 0.05083
45890. 4.8525 0.0451(16) 374418. 0.04226 0.05041
45910. 4.8546 0.0436(16) 385481. 0.04225 0.04986
45930. 4.8567 0.0465(17) 358966. 0.04225 0.04923
45950. 4.8588 0.0427(16) 392275. 0.04225 0.04854
45970. 4.8610 0.0442(16) 376272. 0.04224 0.04783
45990. 4.8631 0.0462(17) 356718. 0.04224 0.04713
46010. 4.8652 0.0458(17) 360791. 0.04224 0.04647
46030. 4.8673 0.0448(16) 368833. 0.04223 0.04585
46050. 4.8694 0.0443(16) 372031. 0.04223 0.04529
46070. 4.8715 0.0450(17) 365295. 0.04223 0.04479
46090. 4.8737 0.0445(16) 367480. 0.04223 0.04436
46110. 4.8758 0.0430(16) 380443. 0.04222 0.04399
46130. 4.8779 0.0421(16) 388781. 0.04222 0.04369
46150. 4.8800 0.0429(16) 381162. 0.04222 0.04344
46170. 4.8821 0.0399(16) 409702. 0.04222 0.04323
46190. 4.8843 0.0411(16) 396505. 0.04221 0.04306
46210. 4.8864 0.0417(16) 389845. 0.04221 0.04293
46230. 4.8885 0.0445(17) 363648. 0.04221 0.04282
46250. 4.8906 0.0425(16) 380334. 0.04221 0.04273
46270. 4.8927 0.0415(16) 389566. 0.04220 0.04266
46290. 4.8949 0.0409(16) 393547. 0.04220 0.04261
46310. 4.8970 0.0454(17) 352227. 0.04220 0.04256
46330. 4.8991 0.0446(17) 360200. 0.04220 0.04252
46350. 4.9012 0.0426(16) 377381. 0.04219 0.04249
46370. 4.9033 0.0392(16) 410118. 0.04219 0.04246
46390. 4.9054 0.0427(16) 373153. 0.04219 0.04244
46410. 4.9076 0.0396(16) 402948. 0.04219 0.04242
46430. 4.9097 0.0429(16) 370162. 0.04219 0.04240
46450. 4.9118 0.0431(16) 367792. 0.04219 0.04239
46470. 4.9139 0.0439(17) 359020. 0.04218 0.04237
46490. 4.9160 0.0418(16) 376591. 0.04218 0.04236
46510. 4.9182 0.0438(17) 359863. 0.04218 0.04235
46530. 4.9203 0.0420(16) 374595. 0.04218 0.04234
46550. 4.9224 0.0423(16) 370687. 0.04218 0.04233
46570. 4.9245 0.0434(17) 359258. 0.04218 0.04232
46590. 4.9266 0.0438(17) 354919. 0.04218 0.04231
46610. 4.9288 0.0416(16) 372170. 0.04218 0.04230
46630. 4.9309 0.0429(17) 360253. 0.04217 0.04229
46650. 4.9330 0.0427(17) 361770. 0.04217 0.04229
46670. 4.9351 0.0422(17) 366272. 0.04217 0.04228
46690. 4.9372 0.0437(17) 352308. 0.04217 0.04228
46710. 4.9393 0.0456(17) 336285. 0.04217 0.04227
46730. 4.9415 0.0436(17) 352751. 0.04217 0.04227
46750. 4.9436 0.0416(16) 371521. 0.04217 0.04226
46770. 4.9457 0.0447(17) 344337. 0.04217 0.04226
46790. 4.9478 0.0417(16) 369325. 0.04217 0.04225
46810. 4.9499 0.0421(17) 365213. 0.04217 0.04225
46830. 4.9521 0.0428(17) 357712. 0.04217 0.04225
46850. 4.9542 0.0425(17) 359996. 0.04217 0.04225
46870. 4.9563 0.0423(17) 360097. 0.04217 0.04224
46890. 4.9584 0.0426(17) 356203. 0.04217 0.04224
46910. 4.9605 0.0427(17) 355129. 0.04217 0.04224
46930. 4.9627 0.0433(17) 348184. 0.04217 0.04224
46950. 4.9648 0.0417(17) 361401. 0.04217 0.04224
46970. 4.9669 0.0412(17) 365811. 0.04218 0.04223
46990. 4.9690 0.0429(17) 349517. 0.04218 0.04223
47010. 4.9711 0.0412(17) 363340. 0.04218 0.04223
47030. 4.9732 0.0382(16) 391021. 0.04218 0.04223
47050. 4.9754 0.0417(17) 357312. 0.04218 0.04223
47070. 4.9775 0.0417(17) 355989. 0.04218 0.04223
47090. 4.9796 0.0410(17) 360100. 0.04218 0.04223
47110. 4.9817 0.0428(17) 344187. 0.04218 0.04223
47130. 4.9838 0.0394(16) 374433. 0.04219 0.04223
47150. 4.9860 0.0425(17) 345883. 0.04219 0.04223
47170. 4.9881 0.0420(17) 348153. 0.04219 0.04223
47190. 4.9902 0.0415(17) 351437. 0.04219 0.04223
47210. 4.9923 0.0394(16) 368926. 0.04219 0.04223
47230. 4.9944 0.0424(17) 339676. 0.04220 0.04224
47250. 4.9966 0.0438(17) 328439. 0.04220 0.04224
47270. 4.9987 0.0438(18) 325032. 0.04220 0.04224
47290. 5.0008 0.0440(18) 322897. 0.04220 0.04224
47310. 5.0029 0.0449(18) 315536. 0.04221 0.04224
47330. 5.0050 0.0406(17) 349981. 0.04221 0.04224
47350. 5.0071 0.0408(17) 345885. 0.04221 0.04225
47370. 5.0093 0.0435(18) 322176. 0.04222 0.04225
47390. 5.0114 0.0382(16) 368955. 0.04222 0.04225
47410. 5.0135 0.0430(18) 324823. 0.04222 0.04225
47430. 5.0156 0.0428(18) 325598. 0.04223 0.04226
47450. 5.0177 0.0422(17) 330346. 0.04223 0.04226
47470. 5.0199 0.0429(18) 322853. 0.04223 0.04226
47490. 5.0220 0.0428(18) 323706. 0.04224 0.04227
47510. 5.0241 0.0436(18) 316905. 0.04224 0.04227
47530. 5.0262 0.0446(18) 307959. 0.04225 0.04227
47550. 5.0283 0.0459(18) 298105. 0.04225 0.04228
47570. 5.0305 0.0441(18) 309825. 0.04226 0.04228
47590. 5.0326 0.0435(18) 312685. 0.04226 0.04228
47610. 5.0347 0.0440(18) 308090. 0.04226 0.04229
47630. 5.0368 0.0445(18) 303848. 0.04227 0.04229
47650. 5.0389 0.0436(18) 309327. 0.04227 0.04230
47670. 5.0410 0.0437(18) 307944. 0.04228 0.04230
47690. 5.0432 0.0424(18) 317745. 0.04228 0.04231
47710. 5.0453 0.0413(18) 326270. 0.04229 0.04231
47730. 5.0474 0.0431(18) 310985. 0.04229 0.04232
47750. 5.0495 0.0428(18) 311652. 0.04230 0.04232
47770. 5.0516 0.0426(18) 311924. 0.04231 0.04233
47790. 5.0538 0.0428(18) 308203. 0.04231 0.04231
47810. 5.0559 0.0448(18) 292372. 0.04232 0.04232
47830. 5.0580 0.0434(18) 301479. 0.04232 0.04232
47850. 5.0601 0.0429(18) 305711. 0.04233 0.04233
47870. 5.0622 0.0428(18) 305605. 0.04234 0.04234
47890. 5.0644 0.0434(18) 300725. 0.04234 0.04234
47910. 5.0665 0.0421(18) 309694. 0.04235 0.04235
47930. 5.0686 0.0439(18) 294540. 0.04235 0.04235
47950. 5.0707 0.0402(18) 322434. 0.04236 0.04236
47970. 5.0728 0.0422(18) 306520. 0.04237 0.04237
47990. 5.0749 0.0424(18) 304601. 0.04237 0.04237
48010. 5.0771 0.0437(18) 295710. 0.04238 0.04238
48030. 5.0792 0.0435(18) 297104. 0.04239 0.04239
48050. 5.0813 0.0412(18) 314078. 0.04240 0.04240
48070. 5.0834 0.0410(18) 315184. 0.04240 0.04240
48090. 5.0855 0.0437(18) 294193. 0.04241 0.04241
48110. 5.0877 0.0413(18) 311326. 0.04242 0.04242
48130. 5.0898 0.0426(18) 300635. 0.04243 0.04243
48150. 5.0919 0.0452(19) 282428. 0.04243 0.04243
48170. 5.0940 0.0417(18) 307160. 0.04244 0.04244
48190. 5.0961 0.0450(19) 281659. 0.04245 0.04245
48210. 5.0983 0.0448(19) 281381. 0.04246 0.04246
48230. 5.1004 0.0437(19) 288025. 0.04246 0.04246
48250. 5.1025 0.0413(18) 303955. 0.04247 0.04247
48270. 5.1046 0.0443(19) 281324. 0.04248 0.04248
48290. 5.1067 0.0460(19) 270472. 0.04249 0.04249
48310. 5.1088 0.0424(18) 295784. 0.04250 0.04250
48330. 5.1110 0.0431(19) 289096. 0.04251 0.04251
48350. 5.1131 0.0431(19) 288207. 0.04251 0.04251
48370. 5.1152 0.0416(18) 298822. 0.04252 0.04252
48390. 5.1173 0.0407(18) 304571. 0.04253 0.04253
48410. 5.1194 0.0405(18) 304377. 0.04254 0.04254
48430. 5.1216 0.0418(18) 293197. 0.04255 0.04255
48450. 5.1237 0.0400(18) 304559. 0.04256 0.04256
48470. 5.1258 0.0425(19) 284645. 0.04257 0.04257
48490. 5.1279 0.0438(19) 275149. 0.04258 0.04258
48510. 5.1300 0.046(2) 262550. 0.04259 0.04259
48530. 5.1322 0.0431(19) 278760. 0.04260 0.04260
48550. 5.1343 0.0416(19) 288435. 0.04261 0.04261
48570. 5.1364 0.0401(18) 298407. 0.04261 0.04261
48590. 5.1385 0.0413(19) 288695. 0.04262 0.04262
48610. 5.1406 0.0409(18) 292930. 0.04263 0.04263
48630. 5.1428 0.0412(19) 288622. 0.04264 0.04264
48650. 5.1449 0.0431(19) 275000. 0.04265 0.04265
48670. 5.1470 0.045(2) 260087. 0.04266 0.04266
48690. 5.1491 0.045(2) 259456. 0.04267 0.04267
48710. 5.1512 0.0433(19) 270547. 0.04268 0.04268
48730. 5.1533 0.0411(19) 284410. 0.04269 0.04269
48750. 5.1555 0.0436(19) 267366. 0.04270 0.04270
48770. 5.1576 0.049(2) 237061. 0.04271 0.04271
48790. 5.1597 0.0435(19) 267471. 0.04272 0.04272
48810. 5.1618 0.047(2) 248587. 0.04273 0.04273
48830. 5.1639 0.0437(19) 263761. 0.04274 0.04274
48850. 5.1661 0.044(2) 258385. 0.04275 0.04275
48870. 5.1682 0.045(2) 253100. 0.04276 0.04276
48890. 5.1703 0.0427(19) 267191. 0.04277 0.04277
48910. 5.1724 0.0383(18) 296730. 0.04278 0.04278
48930. 5.1745 0.044(2) 259986. 0.04279 0.04279
48950. 5.1767 0.045(2) 251932. 0.04280 0.04280
48970. 5.1788 0.046(2) 245250. 0.04281 0.04281
48990. 5.1809 0.044(2) 258454. 0.04282 0.04282
49010. 5.1830 0.047(2) 242039. 0.04284 0.04284
49030. 5.1851 0.044(2) 254238. 0.04285 0.04285
49050. 5.1873 0.048(2) 232211. 0.04286 0.04286
49070. 5.1894 0.0419(19) 266571. 0.04287 0.04287
49090. 5.1915 0.044(2) 249969. 0.04288 0.04288
49110. 5.1936 0.050(2) 222908. 0.04289 0.04289
49130. 5.1957 0.045(2) 244642. 0.04290 0.04290
49150. 5.1978 0.0396(19) 280595. 0.04291 0.04291
49170. 5.2000 0.044(2) 253292. 0.04292 0.04292
49190. 5.2021 0.045(2) 243794. 0.04293 0.04293
49210. 5.2042 0.0415(19) 265693. 0.04294 0.04294
49230. 5.2063 0.042(2) 260133. 0.04295 0.04295
49250. 5.2084 0.045(2) 241461. 0.04296 0.04296
49270. 5.2106 0.043(2) 253706. 0.04297 0.04297
49290. 5.2127 0.044(2) 249597. 0.04298 0.04298
49310. 5.2148 0.045(2) 244180. 0.04299 0.04299
49330. 5.2169 0.042(2) 261442. 0.04300 0.04300
49350. 5.2190 0.044(2) 247145. 0.04301 0.04301
49370. 5.2212 0.049(2) 220782. 0.04302 0.04302
49390. 5.2233 0.043(2) 248180. 0.04303 0.04303
49410. 5.2254 0.041(2) 262472. 0.04304 0.04304
49430. 5.2275 0.0408(19) 264736. 0.04305 0.04305
49450. 5.2296 0.043(2) 252045. 0.04306 0.04306
49470. 5.2318 0.045(2) 237135. 0.04307 0.04307
49490. 5.2339 0.045(2) 238496. 0.04308 0.04308
49510. 5.2360 0.044(2) 241659. 0.04309 0.04309
49530. 5.2381 0.044(2) 241036. 0.04310 0.04310
49550. 5.2402 0.042(2) 252725. 0.04311 0.04311
49570. 5.2423 0.042(2) 253685. 0.04312 0.04312
49590. 5.2445 0.042(2) 248536. 0.04313 0.04313
49610. 5.2466 0.0400(19) 264027. 0.04314 0.04314
49630. 5.2487 0.044(2) 242518. 0.04315 0.04315
49650. 5.2508 0.044(2) 240782. 0.04316 0.04316
49670. 5.2529 0.042(2) 250403. 0.04317 0.04317
49690. 5.2551 0.0395(19) 266617. 0.04317 0.04317
49710. 5.2572 0.043(2) 246229. 0.04318 0.04318
49730. 5.2593 0.044(2) 239025. 0.04319 0.04319
49750. 5.2614 0.044(2) 237592. 0.04320 0.04320
49770. 5.2635 0.041(2) 251820. 0.04321 0.04321
49790. 5.2657 0.044(2) 237115. 0.04322 0.04322
49810. 5.2678 0.043(2) 243515. 0.04323 0.04323
49830. 5.2699 0.045(2) 229741. 0.04323 0.04323
49850. 5.2720 0.045(2) 229523. 0.04324 0.04324
49870. 5.2741 0.045(2) 229135. 0.04325 0.04325
49890. 5.2763 0.044(2) 229113. 0.04326 0.04326
49910. 5.2784 0.044(2) 231186. 0.04327 0.04327
49930. 5.2805 0.043(2) 238234. 0.04327 0.04327
49950. 5.2826 0.040(2) 250381. 0.04328 0.04328
49970. 5.2847 0.046(2) 218618. 0.04329 0.04329
49990. 5.2868 0.043(2) 231234. 0.04330 0.04330
50010. 5.2890 0.047(2) 210993. 0.04330 0.04330
50030. 5.2911 0.042(2) 235270. 0.04331 0.04331
50050. 5.2932 0.045(2) 218196. 0.04332 0.04332
50070. 5.2953 0.045(2) 220809. 0.04332 0.04332
50090. 5.2974 0.045(2) 218305. 0.04333 0.04333
50110. 5.2996 0.043(2) 230466. 0.04334 0.04334
50130. 5.3017 0.042(2) 232671. 0.04334 0.04335
50150. 5.3038 0.042(2) 235533. 0.04335 0.04335
50170. 5.3059 0.044(2) 219825. 0.04336 0.04336
50190. 5.3080 0.042(2) 232047. 0.04336 0.04336
50210. 5.3102 0.044(2) 218062. 0.04337 0.04337
50230. 5.3123 0.045(2) 212416. 0.04337 0.04337
50250. 5.3144 0.039(2) 247815. 0.04338 0.04338
50270. 5.3165 0.043(2) 220343. 0.04338 0.04338
50290. 5.3186 0.044(2) 215471. 0.04339 0.04339
50310. 5.3208 0.045(2) 209436. 0.04339 0.04339
50330. 5.3229 0.044(2) 213483. 0.04340 0.04340
50350. 5.3250 0.048(2) 193496. 0.04340 0.04340
50370. 5.3271 0.045(2) 205719. 0.04341 0.04341
50390. 5.3292 0.044(2) 209156. 0.04341 0.04341
50410. 5.3314 0.044(2) 208296. 0.04341 0.04342
50430. 5.3335 0.041(2) 225053. 0.04342 0.04342
50450. 5.3356 0.047(2) 196394. 0.04342 0.04342
50470. 5.3377 0.042(2) 219917. 0.04342 0.04343
50490. 5.3398 0.045(2) 206019. 0.04343 0.04343
50510. 5.3419 0.045(2) 207729. 0.04343 0.04343
50530. 5.3441 0.042(2) 222133. 0.04343 0.04343
50550. 5.3462 0.046(2) 200187. 0.04344 0.04344
50570. 5.3483 0.047(2) 194326. 0.04344 0.04344
50590. 5.3504 0.045(2) 205878. 0.04344 0.04344
50610. 5.3525 0.043(2) 214091. 0.04344 0.04344
50630. 5.3547 0.046(2) 200373. 0.04344 0.04344
50650. 5.3568 0.046(2) 198735. 0.04344 0.04345
50670. 5.3589 0.044(2) 209804. 0.04345 0.04345
50690. 5.3610 0.045(2) 202125. 0.04345 0.04345
50710. 5.3631 0.043(2) 214434. 0.04345 0.04345
50730. 5.3653 0.044(2) 208720. 0.04345 0.04345
50750. 5.3674 0.041(2) 222813. 0.04345 0.04345
50770. 5.3695 0.046(2) 200194. 0.04345 0.04345
50790. 5.3716 0.041(2) 221802. 0.04345 0.04345
50810. 5.3737 0.040(2) 233986. 0.04345 0.04345
50830. 5.3759 0.046(2) 200164. 0.04345 0.04345
50850. 5.3780 0.042(2) 222170. 0.04345 0.04345
50870. 5.3801 0.044(2) 211197. 0.04345 0.04345
50890. 5.3822 0.044(2) 208013. 0.04344 0.04345
50910. 5.3843 0.045(2) 203386. 0.04344 0.04344
50930. 5.3865 0.040(2) 230159. 0.04344 0.04344
50950. 5.3886 0.038(2) 239727. 0.04344 0.04344
50970. 5.3907 0.040(2) 225919. 0.04344 0.04344
50990. 5.3928 0.040(2) 230058. 0.04343 0.04344
51010. 5.3949 0.040(2) 225899. 0.04343 0.04343
51030. 5.3971 0.046(2) 196641. 0.04343 0.04343
51050. 5.3992 0.041(2) 219929. 0.04343 0.04343
51070. 5.4013 0.046(2) 197308. 0.04342 0.04342
51090. 5.4034 0.041(2) 216928. 0.04342 0.04345
51110. 5.4055 0.038(2) 236527. 0.04342 0.04345
51130. 5.4076 0.044(2) 200763. 0.04341 0.04344
51150. 5.4098 0.039(2) 224907. 0.04341 0.04344
51170. 5.4119 0.047(2) 185671. 0.04340 0.04344
51190. 5.4140 0.043(2) 203847. 0.04340 0.04343
51210. 5.4161 0.046(2) 191988. 0.04339 0.04343
51230. 5.4182 0.044(2) 198609. 0.04339 0.04342
51250. 5.4204 0.043(2) 206396. 0.04338 0.04342
51270. 5.4225 0.041(2) 213337. 0.04338 0.04341
51290. 5.4246 0.046(2) 191948. 0.04337 0.04341
51310. 5.4267 0.040(2) 221998. 0.04337 0.04340
51330. 5.4288 0.042(2) 207582. 0.04336 0.04340
51350. 5.4310 0.045(2) 195184. 0.04336 0.04339
51370. 5.4331 0.041(2) 214243. 0.04335 0.04339
51390. 5.4352 0.043(2) 204529. 0.04334 0.04338
51410. 5.4373 0.040(2) 217457. 0.04334 0.04338
51430. 5.4394 0.041(2) 211579. 0.04333 0.04337
51450. 5.4416 0.043(2) 201907. 0.04332 0.04336
51470. 5.4437 0.044(2) 194834. 0.04331 0.04336
51490. 5.4458 0.042(2) 203962. 0.04331 0.04335
51510. 5.4479 0.044(2) 195998. 0.04330 0.04334
51530. 5.4500 0.042(2) 203862. 0.04329 0.04334
51550. 5.4522 0.042(2) 205553. 0.04328 0.04333
51570. 5.4543 0.043(2) 201229. 0.04328 0.04332
51590. 5.4564 0.040(2) 214555. 0.04327 0.04332
51610. 5.4585 0.043(2) 201716. 0.04326 0.04331
51630. 5.4606 0.043(2) 199639. 0.04325 0.04330
51650. 5.4628 0.048(2) 178046. 0.04324 0.04329
51670. 5.4649 0.046(2) 186367. 0.04323 0.04328
51690. 5.4670 0.044(2) 193608. 0.04322 0.04328
51710. 5.4691 0.045(2) 187631. 0.04321 0.04327
51730. 5.4712 0.042(2) 204440. 0.04320 0.04326
51750. 5.4734 0.042(2) 206400. 0.04320 0.04325
51770. 5.4755 0.043(2) 199238. 0.04319 0.04324
51790. 5.4776 0.043(2) 198586. 0.04318 0.04324
51810. 5.4797 0.046(2) 185465. 0.04317 0.04323
51830. 5.4818 0.040(2) 212997. 0.04316 0.04322
51850. 5.4839 0.044(2) 194110. 0.04315 0.04321
51870. 5.4861 0.043(2) 197798. 0.04314 0.04320
51890. 5.4882 0.045(2) 188156. 0.04313 0.04319
51910. 5.4903 0.042(2) 202157. 0.04312 0.04318
51930. 5.4924 0.042(2) 203080. 0.04311 0.04318
51950. 5.4945 0.044(2) 192634. 0.04310 0.04317
51970. 5.4967 0.043(2) 193031. 0.04309 0.04316
51990. 5.4988 0.044(2) 187806. 0.04307 0.04315
52010. 5.5009 0.045(2) 186619. 0.04306 0.04314
52030. 5.5030 0.042(2) 199506. 0.04305 0.04313
52050. 5.5051 0.044(2) 185791. 0.04304 0.04313
52070. 5.5073 0.041(2) 202851. 0.04303 0.04312
52090. 5.5094 0.044(2) 187993. 0.04302 0.04311
52110. 5.5115 0.043(2) 190882. 0.04301 0.04310
52130. 5.5136 0.045(2) 181040. 0.04300 0.04309
52150. 5.5157 0.045(2) 181059. 0.04299 0.04309
52170. 5.5179 0.043(2) 188857. 0.04298 0.04308
52190. 5.5200 0.042(2) 189882. 0.04297 0.04307
52210. 5.5221 0.041(2) 197544. 0.04296 0.04307
52230. 5.5242 0.043(2) 185426. 0.04295 0.04306
52250. 5.5263 0.045(2) 178493. 0.04294 0.04306
52270. 5.5285 0.046(2) 175517. 0.04293 0.04305
52290. 5.5306 0.043(2) 185049. 0.04292 0.04305
52310. 5.5327 0.042(2) 189443. 0.04291 0.04305
52330. 5.5348 0.043(2) 186120. 0.04290 0.04305
52350. 5.5369 0.043(2) 181228. 0.04289 0.04305
52370. 5.5391 0.039(2) 202643. 0.04288 0.04306
52390. 5.5412 0.046(2) 168315. 0.04287 0.04307
52410. 5.5433 0.044(2) 178511. 0.04286 0.04308
52430. 5.5454 0.043(2) 183931. 0.04285 0.04309
52450. 5.5475 0.048(3) 161712. 0.04284 0.04311
52470. 5.5497 0.044(2) 178489. 0.04283 0.04313
52490. 5.5518 0.047(3) 165250. 0.04283 0.04315
52510. 5.5539 0.044(2) 177287. 0.04282 0.04318
52530. 5.5560 0.044(2) 176176. 0.04281 0.04321
52550. 5.5581 0.040(2) 192489. 0.04280 0.04324
52570. 5.5603 0.041(2) 189816. 0.04279 0.04327
52590. 5.5624 0.042(2) 186573. 0.04279 0.04330
52610. 5.5645 0.046(2) 169082. 0.04278 0.04333
52630. 5.5666 0.047(3) 165144. 0.04277 0.04335
52650. 5.5687 0.041(2) 190031. 0.04276 0.04337
52670. 5.5708 0.046(3) 164896. 0.04276 0.04338
52690. 5.5730 0.039(2) 194719. 0.04275 0.04339
52710. 5.5751 0.038(2) 198955. 0.04275 0.04338
52730. 5.5772 0.042(2) 181252. 0.04274 0.04337
52750. 5.5793 0.042(2) 178228. 0.04273 0.04336
52770. 5.5814 0.045(3) 164729. 0.04273 0.04334
52790. 5.5836 0.043(2) 175463. 0.04272 0.04331
52810. 5.5857 0.040(2) 185787. 0.04272 0.04329
52830. 5.5878 0.043(2) 173210. 0.04272 0.04326
52850. 5.5899 0.043(2) 170973. 0.04271 0.04324
52870. 5.5920 0.046(3) 156952. 0.04271 0.04321
52890. 5.5942 0.045(3) 161926. 0.04271 0.04319
52910. 5.5963 0.046(3) 155596. 0.04271 0.04317
52930. 5.5984 0.043(3) 164658. 0.04270 0.04315
52950. 5.6005 0.042(2) 168049. 0.04270 0.04314
52970. 5.6026 0.045(3) 156536. 0.04270 0.04313
52990. 5.6048 0.044(3) 160170. 0.04270 0.04313
53010. 5.6069 0.046(3) 150277. 0.04270 0.04313
53030. 5.6090 0.047(3) 146461. 0.04270 0.04314
53050. 5.6111 0.046(3) 150599. 0.04270 0.04315
53070. 5.6132 0.045(3) 151769. 0.04270 0.04316
53090. 5.6154 0.043(3) 159568. 0.04271 0.04318
53110. 5.6175 0.048(3) 142802. 0.04271 0.04320
53130. 5.6196 0.050(3) 134361. 0.04271 0.04322
53150. 5.6217 0.044(3) 154633. 0.04272 0.04325
53170. 5.6238 0.043(3) 156356. 0.04272 0.04329
53190. 5.6260 0.048(3) 137115. 0.04273 0.04333
53210. 5.6281 0.043(3) 154644. 0.04273 0.04338
53230. 5.6302 0.043(3) 156110. 0.04274 0.04343
53250. 5.6323 0.043(3) 153750. 0.04274 0.04350
53270. 5.6344 0.048(3) 136898. 0.04275 0.04358
53290. 5.6366 0.044(3) 151645. 0.04276 0.04368
53310. 5.6387 0.043(3) 152407. 0.04277 0.04379
53330. 5.6408 0.043(3) 150505. 0.04278 0.04394
53350. 5.6429 0.046(3) 143736. 0.04279 0.04412
53370. 5.6450 0.045(3) 147634. 0.04280 0.04434
53390. 5.6472 0.044(3) 149314. 0.04281 0.04462
53410. 5.6493 0.043(3) 154650. 0.04282 0.04495
53430. 5.6514 0.051(3) 128243. 0.04284 0.04536
53450. 5.6535 0.048(3) 137117. 0.04285 0.04586
53470. 5.6556 0.049(3) 134149. 0.04286 0.04645
53490. 5.6578 0.047(3) 137571. 0.04288 0.04715
53510. 5.6599 0.045(3) 143236. 0.04290 0.04796
53530. 5.6620 0.047(3) 136701. 0.04291 0.04888
53550. 5.6641 0.049(3) 130542. 0.04293 0.04992
53570. 5.6662 0.050(3) 129415. 0.04295 0.05106
53590. 5.6684 0.052(3) 122903. 0.04297 0.05230
53610. 5.6705 0.048(3) 133776. 0.04299 0.05361
53630. 5.6726 0.046(3) 139528. 0.04301 0.05496
53650. 5.6747 0.056(3) 112401. 0.04303 0.05631
53670. 5.6768 0.052(3) 122948. 0.04305 0.05762
53690. 5.6790 0.057(3) 109250. 0.04307 0.05883
53710. 5.6811 0.057(3) 109638. 0.04310 0.05988
53730. 5.6832 0.059(3) 105499. 0.04312 0.06071
53750. 5.6853 0.059(3) 105032. 0.04315 0.06127
53770. 5.6874 0.058(3) 105820. 0.04318 0.06154
53790. 5.6896 0.060(3) 102458. 0.04320 0.06149
53810. 5.6917 0.056(3) 110163. 0.04323 0.06115
53830. 5.6938 0.058(3) 104313. 0.04326 0.06054
53850. 5.6959 0.059(3) 102615. 0.04329 0.05970
53870. 5.6980 0.063(3) 93874. 0.04332 0.05869
53890. 5.7001 0.054(3) 110594. 0.04335 0.05756
53910. 5.7023 0.057(3) 103240. 0.04338 0.05634
53930. 5.7044 0.057(3) 103756. 0.04342 0.05510
53950. 5.7065 0.056(3) 104660. 0.04345 0.05387
53970. 5.7086 0.058(3) 100145. 0.04348 0.05269
53990. 5.7107 0.052(3) 114072. 0.04352 0.05157
54010. 5.7129 0.056(3) 104824. 0.04356 0.05054
54030. 5.7150 0.056(3) 106311. 0.04359 0.04961
54050. 5.7171 0.051(3) 117826. 0.04363 0.04878
54070. 5.7192 0.047(3) 126292. 0.04367 0.04805
54090. 5.7213 0.052(3) 111391. 0.04371 0.04743
54110. 5.7235 0.047(3) 126727. 0.04375 0.04691
54130. 5.7256 0.051(3) 116490. 0.04379 0.04647
54150. 5.7277 0.048(3) 121658. 0.04383 0.04611
54170. 5.7298 0.051(3) 115648. 0.04387 0.04582
54190. 5.7319 0.049(3) 118494. 0.04392 0.04559
54210. 5.7341 0.045(3) 129861. 0.04396 0.04540
54230. 5.7362 0.047(3) 122696. 0.04400 0.04526
54250. 5.7383 0.048(3) 122272. 0.04405 0.04516
54270. 5.7404 0.044(3) 131083. 0.04409 0.04508
54290. 5.7425 0.047(3) 121785. 0.04414 0.04502
54310. 5.7447 0.047(3) 122956. 0.04419 0.04498
54330. 5.7468 0.044(3) 131220. 0.04423 0.04496
54350. 5.7489 0.046(3) 122350. 0.04428 0.04494
54370. 5.7510 0.047(3) 121350. 0.04433 0.04494
54390. 5.7531 0.048(3) 115443. 0.04438 0.04495
54410. 5.7553 0.044(3) 130248. 0.04443 0.04496
54430. 5.7574 0.044(3) 126793. 0.04448 0.04497
54450. 5.7595 0.050(3) 110324. 0.04453 0.04499
54470. 5.7616 0.042(3) 134708. 0.04458 0.04502
54490. 5.7637 0.050(3) 111727. 0.04463 0.04504
54510. 5.7659 0.044(3) 128082. 0.04468 0.04507
54530. 5.7680 0.047(3) 119903. 0.04473 0.04510
54550. 5.7701 0.046(3) 121432. 0.04478 0.04514
54570. 5.7722 0.048(3) 116094. 0.04484 0.04517
54590. 5.7743 0.047(3) 116637. 0.04489 0.04521
54610. 5.7765 0.043(3) 127964. 0.04494 0.04524
54630. 5.7786 0.042(3) 131961. 0.04499 0.04528
54650. 5.7807 0.045(3) 121876. 0.04504 0.04532
54670. 5.7828 0.047(3) 115012. 0.04510 0.04536
54690. 5.7849 0.043(3) 128868. 0.04515 0.04540
54710. 5.7871 0.043(3) 128340. 0.04520 0.04544
54730. 5.7892 0.047(3) 116686. 0.04525 0.04548
54750. 5.7913 0.045(3) 121821. 0.04530 0.04553
54770. 5.7934 0.046(3) 117056. 0.04535 0.04557
54790. 5.7955 0.047(3) 112266. 0.04540 0.04561
54810. 5.7977 0.044(3) 120374. 0.04545 0.04565
54830. 5.7998 0.046(3) 114686. 0.04550 0.04569
54850. 5.8019 0.047(3) 112137. 0.04555 0.04573
54870. 5.8040 0.047(3) 110706. 0.04560 0.04578
54890. 5.8061 0.046(3) 112087. 0.04564 0.04582
54910. 5.8083 0.045(3) 115671. 0.04569 0.04586
54930. 5.8104 0.045(3) 113091. 0.04573 0.04590
54950. 5.8125 0.048(3) 106072. 0.04578 0.04593
54970. 5.8146 0.045(3) 112363. 0.04582 0.04597
54990. 5.8167 0.047(3) 107068. 0.04586 0.04601
55010. 5.8189 0.050(3) 101031. 0.04590 0.04604
55030. 5.8210 0.048(3) 105463. 0.04594 0.04608
55050. 5.8231 0.044(3) 114635. 0.04598 0.04611
55070. 5.8252 0.046(3) 111059. 0.04601 0.04614
55090. 5.8273 0.047(3) 106746. 0.04605 0.04617
55110. 5.8295 0.043(3) 118099. 0.04608 0.04620
55130. 5.8316 0.042(3) 121613. 0.04611 0.04623
55150. 5.8337 0.045(3) 111652. 0.04614 0.04625
55170. 5.8358 0.047(3) 107155. 0.04616 0.04627
55190. 5.8379 0.053(3) 93204. 0.04619 0.04629
55210. 5.8401 0.046(3) 108943. 0.04621 0.04631
55230. 5.8422 0.047(3) 106707. 0.04622 0.04633
55250. 5.8443 0.045(3) 111761. 0.04624 0.04634
55270. 5.8464 0.047(3) 106622. 0.04625 0.04635
55290. 5.8485 0.043(3) 117863. 0.04626 0.04636
55310. 5.8507 0.049(3) 101140. 0.04627 0.04636
55330. 5.8528 0.049(3) 101847. 0.04627 0.04636
55350. 5.8549 0.043(3) 117656. 0.04627 0.04636
55370. 5.8570 0.047(3) 105813. 0.04626 0.04635
55390. 5.8591 0.046(3) 109959. 0.04626 0.04634
55410. 5.8613 0.043(3) 116863. 0.04624 0.04633
55430. 5.8634 0.038(3) 132916. 0.04623 0.04631
55450. 5.8655 0.046(3) 106999. 0.04621 0.04628
55470. 5.8676 0.044(3) 112670. 0.04618 0.04626
55490. 5.8697 0.050(3) 99432. 0.04615 0.04622
55510. 5.8719 0.049(3) 99846. 0.04611 0.04619
55530. 5.8740 0.044(3) 112895. 0.04607 0.04615
55550. 5.8761 0.040(3) 125219. 0.04603 0.04610
55570. 5.8782 0.045(3) 109821. 0.04598 0.04605
55590. 5.8803 0.047(3) 105378. 0.04592 0.04599
55610. 5.8825 0.045(3) 108542. 0.04585 0.04592
55630. 5.8846 0.051(3) 96379. 0.04578 0.04585
55650. 5.8867 0.042(3) 115375. 0.04571 0.04577
55670. 5.8888 0.048(3) 101235. 0.04563 0.04569
55690. 5.8909 0.041(3) 118559. 0.04554 0.04560
55710. 5.8931 0.046(3) 106239. 0.04544 0.04550
55730. 5.8952 0.044(3) 110734. 0.04533 0.04539
55750. 5.8973 0.047(3) 102866. 0.04522 0.04528
55770. 5.8994 0.045(3) 107503. 0.04510 0.04516
55790. 5.9015 0.046(3) 106023. 0.04497 0.04503
55810. 5.9037 0.045(3) 104657. 0.04483 0.04489
55830. 5.9058 0.043(3) 110355. 0.04469 0.04474
55850. 5.9079 0.048(3) 97796. 0.04453 0.04459
55870. 5.9100 0.043(3) 109071. 0.04437 0.04442
55890. 5.9121 0.051(3) 91089. 0.04419 0.04424
55910. 5.9143 0.050(3) 94400. 0.04400 0.04406
55930. . 0.043(3) . . .
55950. . 0.045(3) . . .
55970. . 0.048(3) . . .
55990. . 0.045(3) . . .
56010. . 0.043(3) . . .
56030. . 0.047(3) . . .
56050. . 0.049(3) . . .
56070. . 0.048(3) . . .
56090. . 0.046(3) . . .
56110. . 0.045(3) . . .
56130. . 0.041(3) . . .
56150. . 0.045(3) . . .
56170. . 0.045(3) . . .
56190. . 0.046(3) . . .
56210. . 0.044(3) . . .
56230. . 0.045(3) . . .
56250. . 0.049(3) . . .
56270. . 0.047(3) . . .
56290. . 0.045(3) . . .
56310. . 0.045(3) . . .
56330. . 0.043(3) . . .
56350. . 0.042(3) . . .
56370. . 0.047(3) . . .
56390. . 0.047(3) . . .
56410. . 0.043(3) . . .
56430. . 0.047(3) . . .
56450. . 0.042(3) . . .
56470. . 0.042(3) . . .
56490. . 0.046(3) . . .
56510. . 0.048(3) . . .
56530. . 0.044(3) . . .
56550. . 0.043(3) . . .
56570. . 0.046(3) . . .
56590. . 0.041(3) . . .
56610. . 0.048(3) . . .
56630. . 0.040(3) . . .
56650. . 0.041(3) . . .
56670. . 0.043(3) . . .
56690. . 0.044(3) . . .
56710. . 0.046(3) . . .
56730. . 0.048(3) . . .
56750. . 0.049(3) . . .
56770. . 0.044(3) . . .
56790. . 0.044(3) . . .
56810. . 0.040(3) . . .
56830. . 0.043(3) . . .
56850. . 0.049(3) . . .
56870. . 0.044(3) . . .
56890. . 0.045(3) . . .
56910. . 0.042(3) . . .
56930. . 0.041(3) . . .
56950. . 0.044(3) . . .
56970. . 0.044(3) . . .
56990. . 0.045(3) . . .
57010. . 0.041(3) . . .
57030. . 0.054(4) . . .
57050. . 0.048(3) . . .
57070. . 0.044(3) . . .
57090. . 0.044(3) . . .
57110. . 0.043(3) . . .
57130. . 0.043(3) . . .
57150. . 0.047(3) . . .
57170. . 0.043(3) . . .
57190. . 0.045(3) . . .
57210. . 0.042(3) . . .
57230. . 0.048(4) . . .
57250. . 0.040(3) . . .
57270. . 0.043(3) . . .
57290. . 0.046(3) . . .
57310. . 0.042(3) . . .
57330. . 0.049(4) . . .
57350. . 0.043(3) . . .
57370. . 0.040(3) . . .
57390. . 0.043(3) . . .
57410. . 0.045(3) . . .
57430. . 0.046(3) . . .
57450. . 0.047(4) . . .
57470. . 0.047(4) . . .
57490. . 0.047(4) . . .
57510. . 0.049(4) . . .
57530. . 0.046(4) . . .
57550. . 0.043(3) . . .
57570. . 0.046(4) . . .
57590. . 0.048(4) . . .
57610. . 0.043(3) . . .
57630. . 0.041(3) . . .
57650. . 0.044(3) . . .
57670. . 0.041(3) . . .
57690. . 0.050(4) . . .
57710. . 0.045(4) . . .
57730. . 0.043(3) . . .
57750. . 0.041(3) . . .
57770. . 0.043(3) . . .
57790. . 0.045(4) . . .
57810. . 0.046(4) . . .
57830. . 0.044(4) . . .
57850. . 0.043(3) . . .
57870. . 0.046(4) . . .
57890. . 0.048(4) . . .
57910. . 0.042(3) . . .
57930. . 0.039(3) . . .
57950. . 0.045(4) . . .
57970. . 0.043(3) . . .
57990. . 0.044(4) . . .
58010. . 0.044(4) . . .
58030. . 0.042(4) . . .
58050. . 0.044(4) . . .
58070. . 0.048(4) . . .
58090. . 0.047(4) . . .
58110. . 0.048(4) . . .
58130. . 0.046(4) . . .
58150. . 0.043(4) . . .
58170. . 0.038(3) . . .
58190. . 0.043(4) . . .
58210. . 0.045(4) . . .
58230. . 0.051(4) . . .
58250. . 0.039(3) . . .
58270. . 0.046(4) . . .
58290. . 0.044(4) . . .
58310. . 0.051(4) . . .
58330. . 0.046(4) . . .
58350. . 0.044(4) . . .
58370. . 0.044(4) . . .
58390. . 0.041(4) . . .
58410. . 0.049(4) . . .
58430. . 0.046(4) . . .
58450. . 0.045(4) . . .
58470. . 0.047(4) . . .
58490. . 0.040(3) . . .
58510. . 0.043(4) . . .
58530. . 0.051(4) . . .
58550. . 0.041(4) . . .
58570. . 0.044(4) . . .
58590. . 0.045(4) . . .
58610. . 0.047(4) . . .
58630. . 0.045(4) . . .
58650. . 0.047(4) . . .
58670. . 0.047(4) . . .
58690. . 0.051(4) . . .
58710. . 0.043(4) . . .
58730. . 0.045(4) . . .
58750. . 0.050(4) . . .
58770. . 0.055(4) . . .
58790. . 0.047(4) . . .
58810. . 0.047(4) . . .
58830. . 0.048(4) . . .
58850. . 0.043(4) . . .
58870. . 0.046(4) . . .
58890. . 0.045(4) . . .
58910. . 0.047(4) . . .
58930. . 0.047(4) . . .
58950. . 0.052(4) . . .
58970. . 0.046(4) . . .
58990. . 0.045(4) . . .
59010. . 0.042(4) . . .
59030. . 0.051(4) . . .
59050. . 0.048(4) . . .
59070. . 0.044(4) . . .
59090. . 0.040(4) . . .
59110. . 0.042(4) . . .
59130. . 0.044(4) . . .
59150. . 0.042(4) . . .
59170. . 0.044(4) . . .
59190. . 0.043(4) . . .
59210. . 0.043(4) . . .
59230. . 0.048(4) . . .
59250. . 0.046(4) . . .
59270. . 0.048(4) . . .
59290. . 0.048(4) . . .
59310. . 0.047(4) . . .
59330. . 0.044(4) . . .
59350. . 0.048(4) . . .
59370. . 0.045(4) . . .
59390. . 0.040(4) . . .
59410. . 0.049(4) . . .
59430. . 0.049(4) . . .
59450. . 0.049(4) . . .
59470. . 0.043(4) . . .
59490. . 0.041(4) . . .
59510. . 0.041(4) . . .
59530. . 0.049(4) . . .
59550. . 0.045(4) . . .
59570. . 0.043(4) . . .
59590. . 0.049(4) . . .
59610. . 0.042(4) . . .
59630. . 0.046(4) . . .
59650. . 0.048(4) . . .
59670. . 0.045(4) . . .
59690. . 0.041(4) . . .
59710. . 0.050(4) . . .
59730. . 0.044(4) . . .
59750. . 0.044(4) . . .
59770. . 0.048(4) . . .
59790. . 0.050(4) . . .
59810. . 0.047(4) . . .
59830. . 0.048(4) . . .
59850. . 0.052(4) . . .
59870. . 0.045(4) . . .
59890. . 0.047(4) . . .
59910. . 0.044(4) . . .
59930. . 0.043(4) . . .
59950. . 0.042(4) . . .
59970. . 0.044(4) . . .
59990. . 0.045(4) . . .
60010. . 0.042(4) . . .
60030. . 0.048(4) . . .
60050. . 0.045(4) . . .
60070. . 0.044(4) . . .
60090. . 0.051(4) . . .
60110. . 0.046(4) . . .
60130. . 0.042(4) . . .
60150. . 0.039(4) . . .
60170. . 0.044(4) . . .
60190. . 0.049(4) . . .
60210. . 0.047(4) . . .
60230. . 0.043(4) . . .
60250. . 0.040(4) . . .
60270. . 0.048(4) . . .
60290. . 0.049(4) . . .
60310. . 0.046(4) . . .
60330. . 0.046(4) . . .
60350. . 0.047(4) . . .
60370. . 0.047(4) . . .
60390. . 0.043(4) . . .
60410. . 0.054(5) . . .
60430. . 0.047(4) . . .
60450. . 0.047(4) . . .
60470. . 0.048(4) . . .
60490. . 0.047(4) . . .
60510. . 0.045(4) . . .
60530. . 0.037(4) . . .
60550. . 0.046(4) . . .
60570. . 0.051(5) . . .
60590. . 0.050(5) . . .
60610. . 0.056(5) . . .
60630. . 0.044(4) . . .
60650. . 0.042(4) . . .
60670. . 0.043(4) . . .
60690. . 0.041(4) . . .
60710. . 0.051(5) . . .
60730. . 0.045(4) . . .
60750. . 0.049(5) . . .
60770. . 0.051(5) . . .
60790. . 0.049(5) . . .
60810. . 0.052(5) . . .
60830. . 0.055(5) . . .
60850. . 0.046(4) . . .
60870. . 0.049(5) . . .
60890. . 0.048(5) . . .
60910. . 0.046(4) . . .
60930. . 0.049(5) . . .
60950. . 0.045(4) . . .
60970. . 0.054(5) . . .
60990. . 0.046(5) . . .
61010. . 0.046(4) . . .
61030. . 0.041(4) . . .
61050. . 0.047(5) . . .
61070. . 0.048(5) . . .
61090. . 0.050(5) . . .
61110. . 0.048(5) . . .
61130. . 0.044(4) . . .
61150. . 0.052(5) . . .
61170. . 0.048(5) . . .
61190. . 0.047(5) . . .
61210. . 0.055(5) . . .
61230. . 0.042(4) . . .
61250. . 0.045(4) . . .
61270. . 0.045(4) . . .
61290. . 0.043(4) . . .
61310. . 0.042(4) . . .
61330. . 0.049(5) . . .
61350. . 0.046(5) . . .
61370. . 0.043(4) . . .
61390. . 0.050(5) . . .
61410. . 0.044(4) . . .
61430. . 0.047(5) . . .
61450. . 0.040(4) . . .
61470. . 0.052(5) . . .
61490. . 0.046(5) . . .
61510. . 0.050(5) . . .
61530. . 0.050(5) . . .
61550. . 0.051(5) . . .
61570. . 0.045(5) . . .
61590. . 0.048(5) . . .
61610. . 0.048(5) . . .
61630. . 0.049(5) . . .
61650. . 0.044(5) . . .
61670. . 0.052(5) . . .
61690. . 0.044(5) . . .
61710. . 0.047(5) . . .
61730. . 0.047(5) . . .
61750. . 0.046(5) . . .
61770. . 0.055(5) . . .
61790. . 0.053(5) . . .
61810. . 0.050(5) . . .
61830. . 0.051(5) . . .
61850. . 0.054(5) . . .
61870. . 0.050(5) . . .
61890. . 0.044(5) . . .
61910. . 0.050(5) . . .
61930. . 0.048(5) . . .
61950. . 0.042(4) . . .
61970. . 0.045(5) . . .
61990. . 0.050(5) . . .
62010. . 0.047(5) . . .
62030. . 0.043(5) . . .
62050. . 0.050(5) . . .
62070. . 0.048(5) . . .
62090. . 0.040(4) . . .
62110. . 0.043(5) . . .
62130. . 0.050(5) . . .
62150. . 0.044(5) . . .
62170. . 0.053(5) . . .
62190. . 0.045(5) . . .
62210. . 0.046(5) . . .
62230. . 0.047(5) . . .
62250. . 0.047(5) . . .
62270. . 0.052(5) . . .
62290. . 0.044(5) . . .
62310. . 0.051(5) . . .
62330. . 0.044(5) . . .
62350. . 0.049(5) . . .
62370. . 0.043(5) . . .
62390. . 0.042(5) . . .
62410. . 0.053(5) . . .
62430. . 0.050(5) . . .
62450. . 0.044(5) . . .
62470. . 0.045(5) . . .
62490. . 0.052(5) . . .
62510. . 0.055(5) . . .
62530. . 0.046(5) . . .
62550. . 0.042(5) . . .
62570. . 0.045(5) . . .
62590. . 0.040(5) . . .
62610. . 0.042(5) . . .
62630. . 0.052(5) . . .
62650. . 0.047(5) . . .
62670. . 0.042(5) . . .
62690. . 0.051(5) . . .
62710. . 0.057(6) . . .
62730. . 0.043(5) . . .
62750. . 0.056(6) . . .
62770. . 0.045(5) . . .
62790. . 0.049(5) . . .
62810. . 0.049(5) . . .
62830. . 0.041(5) . . .
62850. . 0.052(5) . . .
62870. . 0.051(5) . . .
62890. . 0.045(5) . . .
62910. . 0.048(5) . . .
62930. . 0.039(5) . . .
62950. . 0.046(5) . . .
62970. . 0.054(6) . . .
62990. . 0.048(5) . . .
63010. . 0.046(5) . . .
63030. . 0.046(5) . . .
63050. . 0.047(5) . . .
63070. . 0.050(5) . . .
63090. . 0.049(5) . . .
63110. . 0.055(6) . . .
63130. . 0.054(6) . . .
63150. . 0.049(5) . . .
63170. . 0.052(6) . . .
63190. . 0.042(5) . . .
63210. . 0.045(5) . . .
63230. . 0.040(5) . . .
63250. . 0.054(6) . . .
63270. . 0.049(5) . . .
63290. . 0.048(5) . . .
63310. . 0.041(5) . . .
63330. . 0.045(5) . . .
63350. . 0.049(6) . . .
63370. . 0.045(5) . . .
63390. . 0.052(6) . . .
63410. . 0.046(5) . . .
63430. . 0.053(6) . . .
63450. . 0.050(6) . . .
63470. . 0.046(5) . . .
63490. . 0.042(5) . . .
63510. . 0.060(6) . . .
63530. . 0.044(5) . . .
63550. . 0.043(5) . . .
63570. . 0.042(5) . . .
63590. . 0.055(6) . . .
63610. . 0.042(5) . . .
63630. . 0.038(5) . . .
63650. . 0.057(6) . . .
63670. . 0.062(6) . . .
63690. . 0.044(5) . . .
63710. . 0.048(6) . . .
63730. . 0.046(5) . . .
63750. . 0.046(5) . . .
63770. . 0.055(6) . . .
63790. . 0.043(5) . . .
63810. . 0.048(6) . . .
63830. . 0.043(5) . . .
63850. . 0.050(6) . . .
63870. . 0.053(6) . . .
63890. . 0.051(6) . . .
63910. . 0.043(5) . . .
63930. . 0.041(5) . . .
63950. . 0.044(5) . . .
63970. . 0.050(6) . . .
63990. . 0.048(6) . . .
64010. . 0.046(6) . . .
64030. . 0.042(5) . . .
64050. . 0.042(5) . . .
64070. . 0.040(5) . . .
64090. . 0.049(6) . . .
64110. . 0.044(5) . . .
64130. . 0.041(5) . . .
64150. . 0.053(6) . . .
64170. . 0.045(5) . . .
64190. . 0.048(6) . . .
64210. . 0.046(6) . . .
64230. . 0.042(5) . . .
64250. . 0.046(5) . . .
64270. . 0.046(5) . . .
64290. . 0.052(6) . . .
64310. . 0.036(5) . . .
64330. . 0.044(5) . . .
64350. . 0.037(5) . . .
64370. . 0.048(6) . . .
64390. . 0.047(5) . . .
64410. . 0.037(5) . . .
64430. . 0.045(5) . . .
64450. . 0.040(5) . . .
64470. . 0.047(6) . . .
64490. . 0.047(6) . . .
64510. . 0.045(5) . . .
64530. . 0.041(5) . . .
64550. . 0.035(5) . . .
64570. . 0.045(5) . . .
64590. . 0.040(5) . . .
64610. . 0.049(6) . . .
64630. . 0.055(6) . . .
64650. . 0.036(5) . . .
64670. . 0.040(5) . . .
64690. . 0.041(5) . . .
64710. . 0.043(5) . . .
64730. . 0.038(5) . . .
64750. . 0.045(5) . . .
64770. . 0.041(5) . . .
64790. . 0.041(5) . . .
64810. . 0.049(5) . . .
64830. . 0.041(5) . . .
64850. . 0.045(5) . . .
64870. . 0.040(5) . . .
64890. . 0.039(5) . . .
64910. . 0.043(5) . . .
64930. . 0.036(5) . . .
64950. . 0.042(5) . . .
64970. . 0.043(5) . . .
64990. . 0.045(5) . . .
65010. . 0.041(5) . . .
65030. . 0.050(5) . . .
65050. . 0.037(5) . . .
65070. . 0.044(5) . . .
65090. . 0.042(5) . . .
65110. . 0.037(5) . . .
65130. . 0.038(5) . . .
65150. . 0.045(5) . . .
65170. . 0.047(5) . . .
65190. . 0.042(5) . . .
65210. . 0.045(5) . . .
65230. . 0.047(5) . . .
65250. . 0.043(5) . . .
65270. . 0.041(5) . . .
65290. . 0.039(5) . . .
65310. . 0.035(5) . . .
65330. . 0.040(5) . . .
65350. . 0.033(4) . . .
65370. . 0.042(5) . . .
65390. . 0.043(5) . . .
65410. . 0.040(5) . . .
65430. . 0.041(5) . . .
65450. . 0.061(6) . . .
65470. . 0.041(5) . . .
65490. . 0.044(5) . . .
65510. . 0.041(5) . . .
65530. . 0.054(6) . . .
65550. . 0.034(4) . . .
65570. . 0.042(5) . . .
65590. . 0.042(5) . . .
65610. . 0.040(5) . . .
65630. . 0.049(6) . . .
65650. . 0.035(5) . . .
65670. . 0.041(5) . . .
65690. . 0.041(5) . . .
65710. . 0.035(5) . . .
65730. . 0.045(5) . . .
65750. . 0.034(4) . . .
65770. . 0.034(4) . . .
65790. . 0.039(5) . . .
65810. . 0.041(5) . . .
65830. . 0.037(5) . . .
65850. . 0.040(5) . . .
65870. . 0.040(5) . . .
65890. . 0.046(5) . . .
65910. . 0.039(5) . . .
65930. . 0.039(5) . . .
65950. . 0.045(5) . . .
65970. . 0.041(5) . . .
65990. . 0.045(5) . . .
66010. . 0.044(5) . . .
66030. . 0.036(5) . . .
66050. . 0.037(5) . . .
66070. . 0.048(6) . . .
66090. . 0.036(5) . . .
66110. . 0.039(5) . . .
66130. . 0.045(5) . . .
66150. . 0.041(5) . . .
66170. . 0.039(5) . . .
66190. . 0.048(6) . . .
66210. . 0.042(5) . . .
66230. . 0.046(6) . . .
66250. . 0.038(5) . . .
66270. . 0.039(5) . . .
66290. . 0.043(5) . . .
66310. . 0.041(5) . . .
66330. . 0.035(5) . . .
66350. . 0.042(5) . . .
66370. . 0.042(5) . . .
66390. . 0.041(5) . . .
66410. . 0.039(5) . . .
66430. . 0.041(5) . . .
66450. . 0.041(5) . . .
66470. . 0.048(6) . . .
66490. . 0.046(6) . . .
66510. . 0.041(5) . . .
66530. . 0.037(5) . . .
66550. . 0.053(6) . . .
66570. . 0.036(5) . . .
66590. . 0.046(6) . . .
66610. . 0.039(5) . . .
66630. . 0.044(6) . . .
66650. . 0.041(6) . . .
66670. . 0.046(6) . . .
66690. . 0.047(6) . . .
66710. . 0.054(7) . . .
66730. . 0.031(5) . . .
66750. . 0.032(5) . . .
66770. . 0.041(6) . . .
66790. . 0.047(6) . . .
66810. . 0.039(6) . . .
66830. . 0.036(5) . . .
66850. . 0.043(6) . . .
66870. . 0.041(6) . . .
66890. . 0.036(5) . . .
66910. . 0.042(6) . . .
66930. . 0.037(5) . . .
66950. . 0.045(6) . . .
66970. . 0.049(6) . . .
66990. . 0.055(7) . . .
67010. . 0.045(6) . . .
67030. . 0.047(6) . . .
67050. . 0.048(6) . . .
67070. . 0.037(6) . . .
67090. . 0.048(6) . . .
67110. . 0.038(6) . . .
67130. . 0.043(6) . . .
67150. . 0.049(6) . . .
67170. . 0.037(5) . . .
67190. . 0.045(6) . . .
67210. . 0.043(6) . . .
67230. . 0.037(6) . . .
67250. . 0.048(6) . . .
67270. . 0.046(6) . . .
67290. . 0.048(6) . . .
67310. . 0.043(6) . . .
67330. . 0.052(7) . . .
67350. . 0.036(6) . . .
67370. . 0.043(6) . . .
67390. . 0.036(6) . . .
67410. . 0.043(6) . . .
67430. . 0.045(6) . . .
67450. . 0.031(5) . . .
67470. . 0.043(6) . . .
67490. . 0.031(5) . . .
67510. . 0.048(7) . . .
67530. . 0.041(6) . . .
67550. . 0.045(6) . . .
67570. . 0.040(6) . . .
67590. . 0.033(5) . . .
67610. . 0.037(6) . . .
67630. . 0.039(6) . . .
67650. . 0.033(5) . . .
67670. . 0.049(7) . . .
67690. . 0.046(6) . . .
67710. . 0.042(6) . . .
67730. . 0.041(6) . . .
67750. . 0.047(6) . . .
67770. . 0.037(6) . . .
67790. . 0.037(6) . . .
67810. . 0.042(6) . . .
67830. . 0.036(6) . . .
67850. . 0.042(6) . . .
67870. . 0.049(7) . . .
67890. . 0.047(6) . . .
67910. . 0.047(6) . . .
67930. . 0.051(7) . . .
67950. . 0.044(6) . . .
67970. . 0.029(5) . . .
67990. . 0.039(6) . . .
68010. . 0.038(6) . . .
68030. . 0.038(6) . . .
68050. . 0.047(7) . . .
68070. . 0.039(6) . . .
68090. . 0.036(6) . . .
68110. . 0.034(6) . . .
68130. . 0.048(7) . . .
68150. . 0.043(6) . . .
68170. . 0.039(6) . . .
68190. . 0.043(6) . . .
68210. . 0.049(7) . . .
68230. . 0.048(7) . . .
68250. . 0.034(5) . . .
68270. . 0.034(6) . . .
68290. . 0.036(6) . . .
68310. . 0.040(6) . . .
68330. . 0.037(6) . . .
68350. . 0.043(6) . . .
68370. . 0.056(7) . . .
68390. . 0.035(6) . . .
68410. . 0.039(6) . . .
68430. . 0.041(6) . . .
68450. . 0.034(6) . . .
68470. . 0.036(6) . . .
68490. . 0.032(6) . . .
68510. . 0.049(7) . . .
68530. . 0.046(7) . . .
68550. . 0.058(8) . . .
68570. . 0.035(6) . . .
68590. . 0.046(7) . . .
68610. . 0.041(7) . . .
68630. . 0.037(6) . . .
68650. . 0.039(6) . . .
68670. . 0.037(6) . . .
68690. . 0.035(6) . . .
68710. . 0.038(6) . . .
68730. . 0.042(7) . . .
68750. . 0.043(7) . . .
68770. . 0.046(7) . . .
68790. . 0.049(7) . . .
68810. . 0.046(7) . . .
68830. . 0.036(6) . . .
68850. . 0.049(7) . . .
68870. . 0.042(7) . . .
68890. . 0.038(6) . . .
68910. . 0.036(6) . . .
68930. . 0.042(6) . . .
68950. . 0.057(8) . . .
68970. . 0.038(6) . . .
68990. . 0.039(6) . . .
69010. . 0.038(6) . . .
69030. . 0.037(6) . . .
69050. . 0.033(6) . . .
69070. . 0.038(6) . . .
69090. . 0.040(6) . . .
69110. . 0.043(7) . . .
69130. . 0.038(6) . . .
69150. . 0.046(7) . . .
69170. . 0.043(7) . . .
69190. . 0.053(7) . . .
69210. . 0.027(5) . . .
69230. . 0.039(6) . . .
69250. . 0.053(8) . . .
69270. . 0.030(5) . . .
69290. . 0.042(7) . . .
69310. . 0.039(6) . . .
69330. . 0.046(7) . . .
69350. . 0.044(7) . . .
69370. . 0.042(7) . . .
69390. . 0.045(7) . . .
69410. . 0.043(7) . . .
69430. . 0.044(7) . . .
69450. . 0.041(7) . . .
69470. . 0.037(6) . . .
69490. . 0.043(7) . . .
69510. . 0.036(6) . . .
69530. . 0.031(6) . . .
69550. . 0.035(6) . . .
69570. . 0.034(6) . . .
69590. . 0.041(6) . . .
69610. . 0.043(7) . . .
69630. . 0.039(6) . . .
69650. . 0.037(6) . . .
69670. . 0.040(7) . . .
69690. . 0.039(7) . . .
69710. . 0.039(7) . . .
69730. . 0.042(7) . . .
69750. . 0.046(7) . . .
69770. . 0.039(7) . . .
69790. . 0.043(7) . . .
69810. . 0.037(7) . . .
69830. . 0.043(7) . . .
69850. . 0.036(6) . . .
69870. . 0.052(8) . . .
69890. . 0.044(7) . . .
69910. . 0.033(6) . . .
69930. . 0.032(6) . . .
69950. . 0.031(6) . . .
69970. . 0.036(7) . . .
69990. . 0.044(7) . . .
70010. . 0.044(7) . . .
70030. . 0.037(7) . . .
70050. . 0.043(7) . . .
70070. . 0.036(7) . . .
70090. . 0.044(7) . . .
70110. . 0.035(6) . . .
70130. . 0.034(6) . . .
70150. . 0.037(7) . . .
70170. . 0.042(7) . . .
70190. . 0.042(7) . . .
70210. . 0.045(7) . . .
70230. . 0.038(7) . . .
70250. . 0.039(7) . . .
70270. . 0.034(6) . . .
70290. . 0.037(7) . . .
70310. . 0.035(6) . . .
70330. . 0.042(7) . . .
70350. . 0.038(7) . . .
70370. . 0.038(7) . . .
70390. . 0.039(7) . . .
70410. . 0.034(6) . . .
70430. . 0.043(7) . . .
70450. . 0.040(7) . . .
70470. . 0.040(7) . . .
70490. . 0.028(6) . . .
70510. . 0.036(6) . . .
70530. . 0.038(7) . . .
70550. . 0.036(6) . . .
70570. . 0.040(7) . . .
70590. . 0.042(7) . . .
70610. . 0.041(7) . . .
70630. . 0.045(8) . . .
70650. . 0.045(8) . . .
70670. . 0.040(7) . . .
70690. . 0.044(8) . . .
70710. . 0.042(7) . . .
70730. . 0.045(8) . . .
70750. . 0.045(8) . . .
70770. . 0.038(7) . . .
70790. . 0.031(6) . . .
70810. . 0.042(7) . . .
70830. . 0.043(7) . . .
70850. . 0.043(7) . . .
70870. . 0.035(7) . . .
70890. . 0.043(8) . . .
70910. . 0.037(7) . . .
70930. . 0.033(7) . . .
70950. . 0.037(7) . . .
70970. . 0.043(8) . . .
70990. . 0.035(7) . . .
71010. . 0.032(6) . . .
71030. . 0.027(6) . . .
71050. . 0.023(6) . . .
71070. . 0.033(7) . . .
71090. . 0.037(7) . . .
71110. . 0.032(7) . . .
71130. . 0.032(7) . . .
71150. . 0.030(6) . . .
71170. . 0.038(7) . . .
71190. . 0.031(7) . . .
71210. . 0.044(8) . . .
71230. . 0.034(7) . . .
71250. . 0.037(7) . . .
71270. . 0.035(7) . . .
71290. . 0.039(7) . . .
71310. . 0.043(8) . . .
71330. . 0.043(8) . . .
71350. . 0.033(7) . . .
71370. . 0.035(7) . . .
71390. . 0.042(8) . . .
71410. . 0.045(8) . . .
71430. . 0.044(8) . . .
71450. . 0.033(7) . . .
71470. . 0.050(9) . . .
71490. . 0.034(7) . . .
71510. . 0.029(7) . . .
71530. . 0.037(7) . . .
71550. . 0.038(8) . . .
71570. . 0.033(7) . . .
71590. . 0.044(8) . . .
71610. . 0.046(8) . . .
71630. . 0.046(8) . . .
71650. . 0.021(6) . . .
71670. . 0.043(8) . . .
71690. . 0.044(8) . . .
71710. . 0.042(8) . . .
71730. . 0.038(8) . . .
71750. . 0.029(7) . . .
71770. . 0.033(7) . . .
71790. . 0.053(9) . . .
71810. . 0.045(8) . . .
71830. . 0.047(9) . . .
71850. . 0.037(7) . . .
71870. . 0.028(6) . . .
71890. . 0.027(6) . . .
71910. . 0.038(8) . . .
71930. . 0.032(7) . . .
71950. . 0.029(7) . . .
71970. . 0.040(8) . . .
71990. . 0.036(8) . . .
72010. . 0.034(8) . . .
72030. . 0.039(8) . . .
72050. . 0.038(8) . . .
72070. . 0.049(10) . . .
72090. . 0.036(8) . . .
72110. . 0.038(8) . . .
72130. . 0.033(8) . . .
72150. . 0.049(10) . . .
72170. . 0.041(9) . . .
72190. . 0.051(10) . . .
72210. . 0.054(11) . . .
72230. . 0.045(9) . . .
72250. . 0.043(9) . . .
72270. . 0.051(10) . . .
72290. . 0.038(9) . . .
72310. . 0.046(10) . . .
72330. . 0.030(8) . . .
72350. . 0.047(10) . . .
72370. . 0.035(8) . . .
72390. . 0.033(8) . . .
72410. . 0.035(9) . . .
72430. . 0.023(7) . . .
72450. . 0.044(10) . . .
72470. . 0.049(10) . . .
72490. . 0.034(9) . . .
72510. . 0.029(8) . . .
72530. . 0.049(11) . . .
72550. . 0.040(9) . . .
72570. . 0.043(10) . . .
72590. . 0.041(10) . . .
72610. . 0.039(10) . . .
72630. . 0.042(10) . . .
72650. . 0.030(8) . . .
72670. . 0.031(9) . . .
72690. . 0.038(10) . . .
72710. . 0.038(10) . . .
72730. . 0.035(9) . . .
72750. . 0.042(10) . . .
72770. . 0.044(11) . . .
72790. . 0.041(11) . . .
72810. . 0.049(12) . . .
72830. . 0.040(10) . . .
72850. . 0.041(11) . . .
72870. . 0.027(9) . . .
72890. . 0.032(9) . . .
72910. . 0.040(11) . . .
72930. . 0.042(11) . . .
72950. . 0.054(13) . . .
72970. . 0.051(13) . . .
72990. . 0.044(11) . . .
73010. . 0.043(11) . . .
73030. . 0.034(9) . . .
73050. . 0.038(10) . . .
73070. . 0.053(12) . . .
73090. . 0.030(9) . . .
73110. . 0.055(12) . . .
73130. . 0.034(9) . . .
73150. . 0.035(10) . . .
73170. . 0.044(11) . . .
73190. . 0.032(9) . . .
73210. . 0.036(10) . . .
73230. . 0.045(11) . . .
73250. . 0.052(12) . . .
73270. . 0.047(11) . . .
73290. . 0.033(9) . . .
73310. . 0.025(8) . . .
73330. . 0.034(9) . . .
73350. . 0.037(10) . . .
73370. . 0.031(9) . . .
73390. . 0.037(10) . . .
73410. . 0.051(12) . . .
73430. . 0.042(11) . . .
73450. . 0.043(11) . . .
73470. . 0.043(12) . . .
73490. . 0.042(12) . . .
73510. . 0.028(9) . . .
73530. . 0.053(13) . . .
73550. . 0.043(12) . . .
73570. . 0.056(14) . . .
73590. . 0.052(13) . . .
73610. . 0.033(11) . . .
73630. . 0.061(15) . . .
73650. . 0.032(10) . . .
73670. . 0.047(12) . . .
73690. . 0.046(12) . . .
73710. . 0.039(11) . . .
73730. . 0.038(11) . . .
73750. . 0.046(12) . . .
73770. . 0.042(11) . . .
73790. . 0.034(10) . . .
73810. . 0.022(8) . . .
73830. . 0.058(15) . . .
73850. . 0.038(11) . . .
73870. . 0.034(11) . . .
73890. . 0.034(11) . . .
73910. . 0.028(10) . . .
73930. . 0.037(11) . . .
73950. . 0.034(11) . . .
73970. . 0.062(15) . . .
73990. . 0.031(10) . . .
74010. . 0.028(9) . . .
74030. . 0.029(10) . . .
74050. . 0.039(11) . . .
74070. . 0.039(11) . . .
74090. . 0.038(11) . . .
74110. . 0.041(12) . . .
74130. . 0.039(11) . . .
74150. . 0.053(14) . . .
74170. . 0.037(12) . . .
74190. . 0.048(14) . . .
74210. . 0.037(12) . . .
74230. . 0.049(15) . . .
74250. . 0.028(11) . . .
74270. . 0.034(12) . . .
74290. . 0.053(15) . . .
74310. . 0.039(12) . . .
74330. . 0.039(13) . . .
74350. . 0.027(11) . . .
74370. . 0.038(13) . . .
74390. . 0.043(15) . . .
74410. . 0.06(2) . . .
74430. . 0.043(15) . . .
74450. . 0.040(15) . . .
74470. . 0.07(2) . . .
74490. . 0.058(19) . . .
74510. . 0.06(2) . . .
74530. . 0.053(18) . . .
74550. . 0.054(17) . . .
74570. . 0.048(16) . . .
74590. . 0.048(15) . . .
74610. . 0.046(15) . . .
74630. . 0.039(13) . . .
74650. . 0.040(13) . . .
74670. . 0.054(16) . . .
74690. . 0.040(13) . . .
74710. . 0.033(12) . . .
74730. . 0.031(11) . . .
74750. . 0.044(14) . . .
74770. . 0.035(12) . . .
74790. . 0.038(12) . . .
74810. . 0.037(13) . . .
74830. . 0.048(14) . . .
74850. . 0.029(11) . . .
74870. . 0.029(11) . . .
74890. . 0.034(12) . . .
74910. . 0.054(16) . . .
74930. . 0.041(13) . . .
74950. . 0.032(11) . . .
74970. . 0.046(14) . . .
74990. . 0.029(11) . . .
75010. . 0.027(10) . . .
75030. . 0.037(12) . . .
75050. . 0.044(13) . . .
75070. . 0.021(9) . . .
75090. . 0.053(15) . . .
75110. . 0.035(12) . . .
75130. . 0.044(14) . . .
75150. . 0.039(12) . . .
75170. . 0.041(12) . . .
75190. . 0.030(11) . . .
75210. . 0.055(15) . . .
75230. . 0.027(10) . . .
75250. . 0.036(11) . . .
75270. . 0.028(9) . . .
75290. . 0.042(11) . . .
75310. . 0.034(10) . . .
75330. . 0.029(10) . . .
75350. . 0.033(10) . . .
75370. . 0.037(11) . . .
75390. . 0.039(11) . . .
75410. . 0.043(12) . . .
75430. . 0.040(12) . . .
75450. . 0.033(11) . . .
75470. . 0.030(10) . . .
75490. . 0.030(10) . . .
75510. . 0.024(9) . . .
75530. . 0.032(11) . . .
75550. . 0.016(8) . . .
75570. . 0.038(11) . . .
75590. . 0.047(12) . . .
75610. . 0.048(13) . . .
75630. . 0.029(9) . . .
75650. . 0.034(10) . . .
75670. . 0.020(8) . . .
75690. . 0.035(10) . . .
75710. . 0.031(9) . . .
75730. . 0.037(10) . . .
75750. . 0.028(9) . . .
75770. . 0.032(9) . . .
75790. . 0.026(9) . . .
75810. . 0.021(8) . . .
75830. . 0.027(8) . . .
75850. . 0.041(10) . . .
75870. . 0.022(8) . . .
75890. . 0.018(7) . . .
75910. . 0.028(8) . . .
75930. . 0.028(8) . . .
75950. . 0.016(7) . . .
75970. . 0.027(8) . . .
75990. . 0.035(9) . . .
76010. . 0.029(8) . . .
76030. . 0.026(8) . . .
76050. . 0.021(7) . . .
76070. . 0.037(10) . . .
76090. . 0.030(9) . . .
76110. . 0.027(8) . . .
76130. . 0.016(7) . . .
76150. . 0.037(10) . . .
76170. . 0.024(8) . . .
76190. . 0.028(8) . . .
76210. . 0.023(8) . . .
76230. . 0.027(8) . . .
76250. . 0.023(8) . . .
76270. . 0.024(8) . . .
76290. . 0.036(10) . . .
76310. . 0.030(9) . . .
76330. . 0.035(10) . . .
76350. . 0.042(11) . . .
76370. . 0.040(10) . . .
76390. . 0.033(9) . . .
76410. . 0.032(9) . . .
76430. . 0.041(11) . . .
76450. . 0.023(8) . . .
76470. . 0.015(7) . . .
76490. . 0.021(7) . . .
76510. . 0.020(7) . . .
76530. . 0.033(9) . . .
76550. . 0.019(7) . . .
76570. . 0.023(8) . . .
76590. . 0.030(9) . . .
76610. . 0.025(8) . . .
76630. . 0.015(7) . . .
76650. . 0.018(7) . . .
76670. . 0.021(8) . . .
76690. . 0.023(8) . . .
76710. . 0.033(9) . . .
76730. . 0.023(8) . . .
76750. . 0.028(9) . . .
76770. . 0.025(9) . . .
76790. . 0.019(8) . . .
76810. . 0.014(7) . . .
76830. . 0.032(10) . . .
76850. . 0.032(9) . . .
76870. . 0.016(7) . . .
76890. . 0.014(7) . . .
76910. . 0.022(8) . . .
76930. . 0.028(8) . . .
76950. . 0.028(8) . . .
76970. . 0.019(7) . . .
76990. . 0.015(7) . . .
77010. . 0.028(9) . . .
77030. . 0.032(9) . . .
77050. . 0.014(7) . . .
77070. . 0.033(9) . . .
77090. . 0.034(10) . . .
77110. . 0.019(8) . . .
77130. . 0.026(9) . . .
77150. . 0.015(7) . . .
77170. . 0.018(8) . . .
77190. . 0.021(8) . . .
77210. . 0.028(9) . . .
77230. . 0.031(9) . . .
77250. . 0.015(7) . . .
77270. . 0.021(8) . . .
77290. . 0.029(9) . . .
77310. . 0.025(9) . . .
77330. . 0.010(7) . . .
77350. . 0.025(9) . . .
77370. . 0.037(11) . . .
77390. . 0.017(8) . . .
77410. . 0.022(9) . . .
77430. . 0.022(8) . . .
77450. . 0.025(9) . . .
77470. . 0.015(7) . . .
77490. . 0.013(7) . . .
77510. . 0.025(8) . . .
77530. . 0.017(7) . . .
77550. . 0.011(6) . . .
77570. . 0.004(6) . . .
77590. . 0.019(7) . . .
77610. . 0.024(8) . . .
77630. . 0.017(7) . . .
77650. . 0.010(6) . . .
77670. . 0.014(7) . . .
77690. . 0.032(10) . . .
77710. . 0.019(8) . . .
77730. . 0.013(7) . . .
77750. . 0.030(10) . . .
77770. . 0.016(8) . . .
77790. . 0.011(7) . . .
77810. . 0.034(11) . . .
77830. . 0.024(9) . . .
77850. . 0.022(9) . . .
77870. . 0.023(9) . . .
77890. . 0.020(9) . . .
77910. . 0.019(9) . . .
77930. . 0.029(10) . . .
77950. . 0.014(8) . . .
77970. . 0.031(11) . . .
77990. . 0.027(10) . . .
78010. . 0.013(8) . . .
78030. . 0.027(11) . . .
78050. . 0.006(7) . . .
78070. . 0.014(9) . . .
78090. . 0.017(9) . . .
78110. . 0.027(11) . . .
78130. . 0.026(11) . . .
78150. . 0.031(11) . . .
78170. . 0.027(11) . . .
78190. . 0.030(12) . . .
78210. . 0.028(12) . . .
78230. . 0.044(16) . . .
78250. . 0.025(12) . . .
78270. . 0.031(13) . . .
78290. . 0.018(11) . . .
78310. . 0.032(15) . . .
78330. . 0.016(11) . . .
78350. . 0.026(12) . . .
78370. . 0.022(12) . . .
78390. . 0.036(15) . . .
78410. . 0.045(17) . . .
78430. . 0.027(12) . . .
78450. . 0.006(8) . . .
78470. . 0.025(11) . . .
78490. . 0.018(10) . . .
78510. . 0.012(9) . . .
78530. . 0.013(9) . . .
78550. . 0.029(12) . . .
78570. . 0.015(10) . . .
78590. . 0.025(12) . . .
78610. . 0.016(10) . . .
78630. . 0.021(11) . . .
78650. . 0.032(15) . . .
78670. . 0.021(12) . . .
78690. . 0.028(14) . . .
78710. . 0.037(17) . . .
78730. . 0.013(10) . . .
78750. . 0.038(17) . . .
78770. . 0.017(11) . . .
78790. . 0.019(12) . . .
78810. . 0.022(13) . . .
78830. . 0.028(15) . . .
78850. . 0.027(15) . . .
78870. . 0.017(12) . . .
78890. . 0.028(16) . . .
78910. . 0.018(14) . . .
78930. . 0.028(17) . . .
78950. . -0.003(10) . . .
78970. . 0.04(2) . . .
78990. . 0.028(18) . . .
79010. . 0.021(17) . . .
79030. . 0.021(16) . . .
79050. . 0.04(2) . . .
79070. . 0.008(12) . . .
79090. . 0.04(2) . . .
79110. . 0.05(3) . . .
79130. . 0.03(2) . . .
79150. . 0.016(15) . . .
79170. . 0.021(18) . . .
79190. . 0.04(3) . . .
79210. . 0.020(19) . . .
79230. . 0.020(18) . . .
79250. . 0.03(2) . . .
79270. . 0.019(18) . . .
79290. . 0.03(2) . . .
79310. . 0.03(3) . . .
79330. . 0.008(14) . . .
79350. . 0.02(2) . . .
79370. . 0.015(16) . . .
79390. . 0.04(3) . . .
79410. . 0.03(2) . . .
79430. . 0.011(15) . . .
79450. . 0.013(16) . . .
79470. . 0.004(13) . . .
79490. . 0.04(4) . . .
79510. . 0.02(2) . . .
79530. . 0.03(2) . . .
79550. . 0.03(2) . . .
79570. . 0.03(3) . . .
79590. . 0.04(3) . . .
79610. . 0.015(18) . . .
79630. . 0.02(2) . . .
79650. . 0.02(2) . . .
79670. . 0.03(3) . . .
79690. . 0.017(19) . . .
79710. . 0.02(2) . . .
79730. . 0.010(15) . . .
79750. . 0.03(3) . . .
79770. . 0.017(18) . . .
loop_
_refln_index_h
_refln_index_k
_refln_index_l
_refln_observed_status
_refln_F_squared_meas
_refln_F_squared_calc
_refln_phase_calc
_refln_d_spacing
_gsas_i100_meas
0 1 0 o 0.532 0.497 0.00 5.68405 17.78
1 0 0 o 0.010 0.013 0.00 5.56933 0.32
1 1 0 o 0.317 0.385 0.00 4.84276 5.75
0 1 1 o 1.482 1.487 0.00 4.23156 16.00
1 0 1 o 1.597 1.768 0.00 4.14229 15.89
0 1 -1 o 1.146 1.070 0.00 4.02915 10.25
1 0 -1 o 0.374 0.361 0.00 4.02447 3.33
1 1 1 o 3.280 3.274 180.00 3.89830 25.82
1 1 -1 o 0.087 0.079 0.00 3.65104 0.53
1 -1 0 o 0.431 0.087 0.00 3.45561 2.13
1 -1 -1 o 3.017 3.026 0.00 3.01006 8.71
0 0 2 o 14.898 14.751 180.00 3.00036 42.48
1 -1 1 o 1.369 1.269 0.00 2.97931 3.80
1 2 0 o 0.067 0.026 0.00 2.94957 0.18
2 1 0 o 5.697 5.117 0.00 2.90120 14.25
0 2 0 o 36.265 35.969 180.00 2.84203 83.72
2 0 0 o 46.901 47.267 180.00 2.78466 100.00
1 2 1 o 10.539 10.604 180.00 2.71933 20.48
0 1 2 o 2.297 2.411 0.00 2.70880 4.40
1 0 2 o 18.926 18.797 0.00 2.67393 34.44
2 1 1 o 8.470 8.394 180.00 2.67032 15.33
1 1 2 o 11.524 11.730 180.00 2.63058 19.68
0 2 1 o 28.345 27.639 0.00 2.61868 47.55
1 0 -2 o 35.807 34.262 180.00 2.61009 59.30
0 1 -2 o 0.055 0.052 180.00 2.60124 0.09
1 2 -1 o 0.404 0.383 180.00 2.58029 0.64
2 0 1 o 2.851 2.899 0.00 2.55431 4.34
2 1 -1 o 9.631 9.738 0.00 2.55724 14.72
0 2 -1 o 25.361 25.149 180.00 2.52113 36.67
2 0 -1 o 0.275 0.350 180.00 2.49849 0.38
1 1 -2 o 9.908 9.547 180.00 2.47735 13.38
2 2 0 o 10.724 11.313 0.00 2.42138 13.24
2 2 1 o 0.378 0.882 180.00 2.29952 0.38
1 -1 -2 o 10.087 10.617 0.00 2.27898 9.82
1 -1 2 o 33.704 33.423 0.00 2.25236 31.35
1 -2 0 o 1.503 1.490 0.00 2.25217 1.40
2 -1 0 o 9.274 10.375 180.00 2.23041 8.30
2 2 -1 o 27.384 26.226 0.00 2.19505 23.02
1 2 2 o 1.318 1.145 0.00 2.17669 1.07
2 1 2 o 1.469 1.217 0.00 2.14563 1.13
1 -2 -1 o 18.716 18.224 0.00 2.12765 13.92
0 2 2 o 1.471 1.236 0.00 2.11578 1.07
2 -1 1 o 2.417 2.547 0.00 2.09335 1.69
1 -2 1 o 1.086 1.162 0.00 2.08995 0.75
2 -1 -1 o 1.510 1.584 180.00 2.08799 1.04
2 0 2 o 0.649 0.381 0.00 2.07115 0.43
1 2 -2 o 15.962 15.853 0.00 2.03703 10.01
2 1 -2 o 1.526 1.478 0.00 2.03040 0.95
0 2 -2 o 14.850 13.658 0.00 2.01458 8.92
2 0 -2 o 14.274 13.300 0.00 2.01223 8.53
1 3 0 o 3.726 3.686 0.00 2.00341 2.19
0 0 3 o 12.925 13.096 0.00 2.00024 7.54
3 1 0 o 2.094 2.689 0.00 1.96322 1.14
2 2 2 o 0.000 0.000 180.00 1.94915 0.00
1 3 1 o 0.280 0.259 0.00 1.93687 0.14
0 1 3 o 0.030 0.025 0.00 1.91648 0.01
1 0 3 o 4.673 4.477 180.00 1.90007 2.23
0 3 0 o 7.940 7.638 0.00 1.89468 3.75
1 1 3 o 6.814 6.558 0.00 1.89403 3.21
3 1 1 o 0.049 0.047 0.00 1.89267 0.02
2 3 0 o 0.758 0.672 180.00 1.87576 0.34
1 3 -1 o 1.217 1.140 0.00 1.86573 0.54
1 0 -3 o 2.987 2.813 0.00 1.86542 1.33
0 1 -3 o 1.274 1.388 0.00 1.85849 0.56
3 0 0 o 10.244 11.564 0.00 1.85644 4.46
3 2 0 o 1.333 1.536 180.00 1.85486 0.58
3 1 -1 o 11.916 13.390 0.00 1.84023 5.01
0 3 1 o 0.000 0.000 180.00 1.83276 0.00
2 3 1 o 8.216 8.692 0.00 1.82606 3.35
2 2 -2 o 2.009 2.130 180.00 1.82552 0.82
1 -2 -2 o 6.775 7.197 0.00 1.82515 2.76
1 1 -3 o 2.722 2.694 180.00 1.80657 1.06
3 2 1 o 8.853 8.810 0.00 1.80340 3.44
2 -1 2 o 2.112 2.084 0.00 1.79337 0.80
3 0 1 o 0.167 0.158 0.00 1.78818 0.06
2 -1 -2 o 0.172 0.161 0.00 1.78665 0.06
0 3 -1 o 9.746 9.060 180.00 1.78184 3.61
1 -2 2 o 6.640 6.250 180.00 1.77814 2.44
3 0 -1 o 4.957 4.017 180.00 1.75920 1.75
2 3 -1 o 0.487 0.383 0.00 1.75662 0.17
3 2 -1 o 3.107 1.839 0.00 1.74244 1.05
1 -1 -3 o 0.105 0.063 180.00 1.74012 0.04
2 -2 0 o 26.377 25.298 0.00 1.72780 8.66
1 -1 3 o 1.582 1.633 0.00 1.72230 0.51
1 3 2 o 4.756 5.028 0.00 1.71621 1.52
1 2 3 o 7.321 8.847 0.00 1.70888 2.30
2 1 3 o 4.055 4.576 0.00 1.69095 1.22
3 1 2 o 6.843 8.330 0.00 1.67978 2.01
0 2 3 o 0.235 0.294 180.00 1.67485 0.07
2 -2 -1 o 2.479 2.842 180.00 1.66561 0.70
2 -2 1 o 2.069 1.988 0.00 1.65513 0.57
2 0 3 o 0.206 0.227 0.00 1.64730 0.06
2 3 2 o 1.040 1.350 180.00 1.64151 0.28
0 3 2 o 0.946 1.278 180.00 1.63870 0.25
1 -3 0 o 1.172 1.585 180.00 1.63855 0.31
3 2 2 o 0.338 0.375 180.00 1.62254 0.09
1 3 -2 o 0.412 0.465 180.00 1.62019 0.10
3 -1 0 o 3.039 3.599 180.00 1.61634 0.77
3 3 0 o 1.856 2.218 0.00 1.61425 0.47
3 1 -2 o 0.455 0.500 180.00 1.60814 0.11
1 2 -3 o 3.688 3.942 0.00 1.60679 0.91
2 1 -3 o 0.648 0.681 180.00 1.60589 0.16
2 0 -3 o 7.718 7.751 180.00 1.60275 1.88
3 0 2 o 1.582 1.568 180.00 1.59953 0.38
0 2 -3 o 0.557 0.552 180.00 1.59923 0.13
2 2 3 o 0.989 1.019 180.00 1.59545 0.24
1 -3 -1 o 3.573 3.743 0.00 1.59448 0.85
3 3 1 o 0.983 1.331 0.00 1.58569 0.23
0 3 -2 o 0.080 0.098 0.00 1.56766 0.02
1 -3 1 o 0.757 0.925 0.00 1.56724 0.17
3 -1 1 o 0.134 0.161 0.00 1.56514 0.03
3 0 -2 o 14.282 18.322 0.00 1.55864 3.12
3 -1 -1 o 0.000 0.000 180.00 1.55633 0.00
2 3 -2 o 0.054 0.064 0.00 1.54399 0.01
3 2 -2 o 0.391 0.397 0.00 1.53641 0.08
3 3 -1 o 10.678 11.108 180.00 1.53330 2.19
1 -2 -3 o 7.342 9.726 180.00 1.51615 1.44
2 -2 -2 o 0.059 0.047 0.00 1.50503 0.01
0 0 4 o 1.754 1.215 0.00 1.50018 0.33
1 4 0 o 7.930 5.407 0.00 1.49863 1.49
2 2 -3 o 9.347 6.130 0.00 1.49380 1.73
2 -1 3 o 4.200 2.656 180.00 1.49205 0.77
2 -2 2 o 0.503 0.296 0.00 1.48966 0.09
2 -1 -3 o 3.336 1.788 0.00 1.48623 0.60
1 -2 3 o 5.841 4.438 0.00 1.47578 1.03
2 4 0 o 4.425 3.520 0.00 1.47479 0.78
1 4 1 o 10.366 8.260 0.00 1.47475 1.82
0 1 4 o 10.175 9.068 0.00 1.46839 1.76
4 1 0 o 0.654 0.578 180.00 1.46713 0.11
3 3 2 o 2.602 2.222 180.00 1.46302 0.44
1 3 3 o 1.280 1.088 180.00 1.46174 0.22
1 1 4 o 1.513 1.285 0.00 1.46091 0.26
1 0 4 o 1.021 0.872 0.00 1.45919 0.17
1 -3 -2 o 0.844 0.721 180.00 1.45903 0.14
2 4 1 o 0.144 0.127 0.00 1.45467 0.02
4 2 0 o 0.000 0.000 0.00 1.45060 0.00
4 1 1 o 14.673 13.137 0.00 1.43955 2.34
1 0 -4 o 3.727 3.321 0.00 1.43814 0.59
3 1 3 o 0.138 0.121 180.00 1.43564 0.02
1 4 -1 o 0.185 0.160 0.00 1.43405 0.03
0 1 -4 o 7.607 6.491 180.00 1.43327 1.19
3 -1 2 o 4.282 3.392 180.00 1.42972 0.67
4 2 1 o 1.572 1.188 180.00 1.42810 0.24
0 4 0 o 0.167 0.112 180.00 1.42101 0.03
1 -3 2 o 0.008 0.006 180.00 1.41799 0.00
2 3 3 o 0.145 0.106 180.00 1.41722 0.02
3 -1 -2 o 10.495 7.864 0.00 1.41636 1.57
4 1 -1 o 5.790 5.132 180.00 1.41118 0.86
2 4 -1 o 5.606 5.037 180.00 1.41068 0.83
0 3 3 o 3.568 3.219 0.00 1.41052 0.53
1 1 -4 o 8.053 7.740 0.00 1.40663 1.17
3 2 3 o 0.041 0.038 180.00 1.40337 0.01
4 2 -1 o 1.137 0.952 180.00 1.39255 0.16
0 4 1 o 2.933 2.460 180.00 1.39823 0.42
4 0 0 o 4.432 3.722 0.00 1.39233 0.62
3 3 -2 o 3.226 3.021 0.00 1.38345 0.44
1 -1 -4 o 1.004 0.951 180.00 1.38210 0.14
3 0 3 o 3.893 3.732 0.00 1.38076 0.53
1 2 4 o 0.699 0.718 180.00 1.37445 0.09
1 4 2 o 11.682 12.095 180.00 1.37377 1.55
1 3 -3 o 23.515 24.440 0.00 1.37339 3.12
2 -3 0 o 2.390 2.502 0.00 1.37252 0.32
1 -1 4 o 1.493 1.575 180.00 1.37017 0.20
3 1 -3 o 0.334 0.350 0.00 1.36896 0.04
0 4 -1 o 20.052 20.762 0.00 1.36781 2.62
4 0 1 o 0.795 0.776 0.00 1.36502 0.10
3 -2 0 o 0.753 0.718 180.00 1.36427 0.10
2 1 4 o 5.634 5.263 180.00 1.36362 0.73
3 4 0 o 0.066 0.059 180.00 1.36239 0.01
2 4 2 o 2.704 2.199 0.00 1.35967 0.34
0 2 4 o 0.329 0.244 180.00 1.35440 0.04
4 3 0 o 0.326 0.249 0.00 1.35113 0.04
3 4 1 o 1.405 1.136 180.00 1.34860 0.17
4 0 -1 o 1.943 1.606 0.00 1.34774 0.24
2 -3 -1 o 0.076 0.068 180.00 1.34420 0.01
0 3 -3 o 0.860 0.789 0.00 1.34305 0.10
3 0 -3 o 11.484 10.823 0.00 1.34149 1.39
4 1 2 o 1.081 1.026 180.00 1.34102 0.13
2 0 4 o 0.113 0.112 180.00 1.33697 0.01
4 3 1 o 2.982 2.965 180.00 1.33631 0.36
4 2 2 o 6.840 6.893 0.00 1.33516 0.81
2 -3 1 o 13.833 14.860 0.00 1.33183 1.63
3 -2 -1 o 0.701 0.769 0.00 1.33098 0.08
3 -2 1 o 1.066 1.209 180.00 1.32967 0.12
2 3 -3 o 0.044 0.053 180.00 1.32404 0.01
3 2 -3 o 10.442 11.788 180.00 1.32056 1.19
2 2 4 o 14.410 15.072 0.00 1.31529 1.61
2 -2 -3 o 1.075 1.124 0.00 1.31528 0.12
1 4 -2 o 0.060 0.067 180.00 1.30989 0.01
3 4 -1 o 3.836 4.314 0.00 1.30942 0.42
0 4 2 o 2.505 2.820 0.00 1.30934 0.28
2 0 -4 o 3.594 4.336 0.00 1.30505 0.39
2 1 -4 o 4.288 5.308 0.00 1.30355 0.46
1 2 -4 o 1.687 2.117 180.00 1.30276 0.18
4 3 -1 o 3.098 4.057 0.00 1.30067 0.33
0 2 -4 o 0.292 0.382 180.00 1.30062 0.03
2 -2 3 o 2.127 2.830 0.00 1.29993 0.23
3 3 3 o 2.144 2.883 0.00 1.29943 0.23
4 1 -2 o 0.176 0.248 180.00 1.29611 0.02
2 4 -2 o 0.031 0.039 180.00 1.29015 0.00
1 -3 -3 o 0.390 0.476 0.00 1.28916 0.04
1 -4 0 o 1.341 1.448 180.00 1.28071 0.14
4 2 -2 o 2.495 2.816 0.00 1.27862 0.25
4 0 2 o 2.640 3.078 0.00 1.27715 0.26
3 4 2 o 10.234 12.522 0.00 1.27365 1.01
1 -2 -4 o 3.827 4.789 0.00 1.26450 0.37
3 -1 3 o 0.328 0.411 0.00 1.26415 0.03
1 -4 -1 o 4.705 5.973 180.00 1.26221 0.45
4 3 2 o 6.139 7.797 0.00 1.26213 0.58
4 -1 0 o 9.349 11.933 0.00 1.26088 0.88
0 4 -2 o 0.407 0.520 0.00 1.26056 0.04
2 -3 -2 o 2.585 3.268 0.00 1.25829 0.24
3 -1 -3 o 0.048 0.054 180.00 1.25033 0.00
4 0 -2 o 1.453 1.611 180.00 1.24924 0.13
2 -1 4 o 10.188 11.251 0.00 1.24707 0.92
1 -3 3 o 11.257 12.433 180.00 1.24699 1.02
1 -4 1 o 0.041 0.046 0.00 1.24301 0.00
3 -2 -2 o 8.254 9.234 180.00 1.24298 0.74
2 -1 -4 o 3.162 3.535 180.00 1.24255 0.28
3 -2 2 o 3.996 4.410 0.00 1.24084 0.36
2 2 -4 o 1.121 1.185 0.00 1.23868 0.10
1 3 4 o 1.972 2.069 0.00 1.23840 0.17
2 -3 2 o 0.952 0.994 180.00 1.23820 0.08
4 -1 1 o 1.998 2.061 180.00 1.23776 0.18
1 4 3 o 0.004 0.004 0.00 1.23514 0.00
1 -2 4 o 1.282 1.200 0.00 1.23319 0.11
4 -1 -1 o 6.081 5.840 0.00 1.23015 0.52
2 4 3 o 0.430 0.438 0.00 1.22645 0.04
3 1 4 o 0.334 0.176 0.00 1.22032 0.03
3 3 -3 o 0.099 0.044 0.00 1.21701 0.01
2 3 4 o 5.173 3.170 0.00 1.21251 0.42
4 4 0 o 0.002 0.001 180.00 1.21069 0.00
3 4 -2 o 2.020 1.642 180.00 1.20980 0.16
4 1 3 o 0.004 0.004 0.00 1.20814 0.00
4 2 3 o 4.525 4.842 0.00 1.20636 0.36
0 3 4 o 0.262 0.303 180.00 1.20526 0.02
4 3 -2 o 0.072 0.092 0.00 1.20388 0.01
3 2 4 o 0.121 0.168 180.00 1.20280 0.01
4 4 1 o 1.042 1.473 0.00 1.20248 0.08
0 0 5 o 0.585 0.915 0.00 1.20014 0.05
2 5 0 o 1.399 2.220 0.00 1.19760 0.11
1 -4 -2 o 5.149 8.936 0.00 1.19419 0.39
1 5 0 o 0.265 0.527 0.00 1.19244 0.02
2 5 1 o 0.014 0.039 180.00 1.18916 0.00
0 4 3 o 0.013 0.042 180.00 1.18623 0.00
0 1 5 o 0.043 0.142 180.00 1.18607 0.00
3 0 4 o 0.000 0.001 0.00 1.18368 0.00
1 1 5 o 0.459 1.419 180.00 1.18355 0.03
1 5 1 o 0.066 0.194 0.00 1.18268 0.00
1 0 5 o 0.271 0.660 0.00 1.18026 0.02
5 2 0 o 0.006 0.007 0.00 1.17502 0.00
4 4 -1 o 1.209 1.026 0.00 1.17167 0.09
4 -1 2 o 1.554 1.085 0.00 1.16882 0.11
5 1 0 o 0.793 0.526 0.00 1.16707 0.06
1 4 -3 o 0.200 0.132 180.00 1.16650 0.01
1 3 -4 o 1.053 0.694 0.00 1.16648 0.07
1 0 -5 o 5.268 3.467 180.00 1.16628 0.37
3 1 -4 o 0.384 0.253 0.00 1.16557 0.03
5 2 1 o 0.271 0.183 180.00 1.16433 0.02
3 4 3 o 0.854 0.590 0.00 1.16357 0.06
0 1 -5 o 0.760 0.542 180.00 1.16278 0.05
1 -4 2 o 6.665 4.878 0.00 1.16224 0.46
2 5 -1 o 0.950 0.776 0.00 1.16025 0.06
4 1 -3 o 0.165 0.141 0.00 1.15940 0.01
4 0 3 o 3.841 3.431 180.00 1.15857 0.26
1 5 -1 o 2.885 2.746 180.00 1.15690 0.19
4 -1 -2 o 1.436 1.392 0.00 1.15610 0.10
5 1 1 o 0.003 0.003 180.00 1.15437 0.00
4 3 3 o 0.211 0.208 0.00 1.15388 0.01
1 1 -5 o 1.585 1.415 180.00 1.14711 0.10
3 -3 0 o 10.111 9.787 0.00 1.15187 0.67
2 4 -3 o 0.022 0.021 0.00 1.15117 0.00
3 0 -4 o 2.049 1.944 180.00 1.15066 0.14
3 5 0 o 2.313 2.182 180.00 1.15036 0.15
4 2 -3 o 3.101 2.718 180.00 1.14467 0.20
4 4 2 o 6.714 6.263 180.00 1.14976 0.44
3 5 1 o 3.252 2.847 0.00 1.14417 0.21
0 3 -4 o 0.191 0.175 0.00 1.14903 0.01
2 -3 -3 o 0.904 0.793 180.00 1.14311 0.06
5 2 -1 o 2.227 1.964 0.00 1.14223 0.14
2 -2 -4 o 1.829 1.671 180.00 1.13949 0.12
1 2 5 o 5.061 4.715 0.00 1.13827 0.32
1 -1 -5 o 7.736 7.251 0.00 1.13791 0.49
2 5 2 o 6.783 6.382 0.00 1.13766 0.43
3 3 4 o 0.076 0.071 0.00 1.13753 0.00
5 1 -1 o 6.014 5.718 180.00 1.13703 0.38
0 5 0 o 8.603 8.205 180.00 1.13681 0.54
5 3 0 o 1.693 1.644 180.00 1.13498 0.11
2 3 -4 o 3.534 3.435 0.00 1.13452 0.22
3 -3 -1 o 7.478 7.263 180.00 1.13371 0.46
3 2 -4 o 0.972 0.942 0.00 1.13317 0.06
0 4 -3 o 0.193 0.186 0.00 1.13251 0.01
2 1 5 o 3.550 3.384 0.00 1.13127 0.22
1 5 2 o 0.141 0.133 180.00 1.13073 0.01
1 -1 5 o 6.010 5.662 0.00 1.12957 0.37
3 -3 1 o 0.159 0.150 0.00 1.12874 0.01
3 -2 -3 o 2.074 1.960 0.00 1.12827 0.13
4 0 -3 o 11.871 11.317 0.00 1.12755 0.72
5 3 1 o 1.359 1.299 0.00 1.12739 0.08
0 5 1 o 4.653 4.471 0.00 1.12710 0.28
2 -2 4 o 0.009 0.008 180.00 1.12618 0.00
2 -4 0 o 0.084 0.083 180.00 1.12608 0.01
3 -2 3 o 1.853 1.835 180.00 1.12588 0.11
1 -3 -4 o 0.224 0.223 0.00 1.12565 0.01
0 2 5 o 0.036 0.036 180.00 1.12557 0.00
2 -3 3 o 2.288 2.679 0.00 1.12065 0.14
3 5 -1 o 4.638 5.573 0.00 1.11593 0.27
4 -2 0 o 0.304 0.362 180.00 1.11521 0.02
2 0 5 o 1.363 1.598 180.00 1.11392 0.08
5 0 0 o 2.775 3.250 180.00 1.11387 0.16
5 2 2 o 7.831 9.117 0.00 1.11348 0.45
2 -4 -1 o 2.493 2.848 0.00 1.11226 0.14
0 5 -1 o 3.368 3.489 0.00 1.10706 0.19
3 -1 4 o 0.021 0.022 180.00 1.10578 0.00
2 2 5 o 0.317 0.317 0.00 1.10515 0.02
5 3 -1 o 9.409 9.181 0.00 1.10341 0.53
5 1 2 o 0.018 0.018 180.00 1.10283 0.00
2 -4 1 o 0.024 0.023 180.00 1.10135 0.00
5 0 1 o 4.457 4.269 0.00 1.10089 0.25
3 5 2 o 0.169 0.163 0.00 1.09923 0.01
4 4 -2 o 0.293 0.284 0.00 1.09753 0.02
1 -4 -3 o 3.633 3.512 0.00 1.09745 0.20
4 -2 1 o 2.454 2.372 0.00 1.09721 0.13
4 -2 -1 o 0.717 0.683 0.00 1.09566 0.04
3 -1 -4 o 0.278 0.251 0.00 1.09345 0.01
1 4 4 o 1.629 1.464 0.00 1.09327 0.09
3 4 -3 o 2.832 2.450 0.00 1.09187 0.15
2 0 -5 o 1.291 1.092 0.00 1.09073 0.07
5 0 -1 o 0.899 0.752 0.00 1.08952 0.05
2 5 -2 o 1.877 1.568 180.00 1.08850 0.10
2 4 4 o 12.963 10.832 180.00 1.08834 0.69
4 3 -3 o 5.213 4.358 0.00 1.08826 0.28
1 -3 4 o 1.648 1.378 0.00 1.08825 0.09
2 1 -5 o 15.399 12.886 0.00 1.08800 0.81
1 5 -2 o 13.773 11.613 0.00 1.08684 0.72
1 2 -5 o 9.634 8.125 0.00 1.08680 0.51
0 2 -5 o 0.802 0.677 180.00 1.08667 0.04
5 3 2 o 0.005 0.004 0.00 1.08287 0.00
0 5 2 o 0.014 0.012 0.00 1.08077 0.00
3 -3 -2 o 0.330 0.303 180.00 1.07964 0.02
5 2 -2 o 0.352 0.336 180.00 1.07571 0.02
4 -1 3 o 2.195 2.096 0.00 1.07409 0.11
5 1 -2 o 4.155 3.968 0.00 1.07314 0.21
4 2 4 o 13.655 13.043 180.00 1.07281 0.68
4 1 4 o 1.836 1.753 0.00 1.07229 0.09
1 -2 -5 o 0.147 0.140 0.00 1.07130 0.01
3 -3 2 o 0.880 0.839 0.00 1.07110 0.04
4 4 3 o 3.754 3.502 0.00 1.06789 0.18
4 5 0 o 2.105 1.943 0.00 1.06686 0.10
3 3 -4 o 1.451 1.326 180.00 1.06396 0.07
2 -4 -2 o 0.358 0.328 180.00 1.06383 0.02
4 5 1 o 0.032 0.029 180.00 1.06295 0.00
1 -4 3 o 0.642 0.635 180.00 1.06063 0.03
5 4 0 o 3.918 3.999 0.00 1.05989 0.19
4 -1 -3 o 0.155 0.162 180.00 1.05935 0.01
1 3 5 o 1.337 1.418 0.00 1.05903 0.06
2 -1 5 o 0.148 0.160 0.00 1.05859 0.01
0 4 4 o 6.037 6.711 0.00 1.05789 0.29
2 5 3 o 0.696 0.775 180.00 1.05783 0.03
5 4 1 o 0.426 0.491 180.00 1.05538 0.02
2 -1 -5 o 0.131 0.150 180.00 1.05513 0.01
5 0 2 o 0.519 0.585 180.00 1.05423 0.02
1 5 3 o 0.645 0.658 0.00 1.05125 0.03
3 5 -2 o 0.000 0.000 180.00 1.05065 0.00
1 -5 0 o 0.451 0.444 0.00 1.04898 0.02
2 2 -5 o 0.545 0.536 180.00 1.04776 0.02
1 -2 5 o 2.270 2.237 180.00 1.04740 0.10
4 -2 2 o 3.211 3.187 180.00 1.04668 0.15
3 1 5 o 0.090 0.089 180.00 1.04634 0.00
0 5 -2 o 6.946 6.947 0.00 1.04620 0.31
2 -4 2 o 0.146 0.151 0.00 1.04498 0.01
3 4 4 o 3.138 3.271 0.00 1.04467 0.14
4 -2 -2 o 0.535 0.574 0.00 1.04400 0.02
2 3 5 o 2.273 2.471 180.00 1.04368 0.10
5 3 -2 o 0.212 0.262 0.00 1.04148 0.01
1 -5 -1 o 1.053 1.388 180.00 1.04036 0.05
4 5 -1 o 0.691 1.003 180.00 1.03825 0.03
5 4 -1 o 0.582 0.843 180.00 1.03246 0.02
0 3 5 o 1.580 2.377 0.00 1.03712 0.07
4 3 4 o 0.573 0.865 0.00 1.03700 0.03
3 2 5 o 0.836 1.267 180.00 1.03684 0.04
5 -1 0 o 0.954 1.324 0.00 1.03158 0.04
5 2 3 o 0.746 1.141 180.00 1.03639 0.03
4 0 4 o 3.099 4.795 0.00 1.03557 0.13
1 4 -4 o 2.746 3.553 0.00 1.03003 0.12
5 0 -2 o 0.006 0.009 0.00 1.03451 0.00
3 5 3 o 0.063 0.077 0.00 1.02766 0.00
4 5 2 o 1.473 1.787 180.00 1.02757 0.06
4 1 -4 o 0.989 1.194 0.00 1.02699 0.04
1 -5 1 o 2.565 3.088 0.00 1.02640 0.11
5 1 3 o 2.924 3.522 0.00 1.02623 0.12
2 -3 -4 o 2.349 2.890 0.00 1.02355 0.10
3 0 5 o 2.408 2.994 0.00 1.02144 0.10
5 4 2 o 1.415 1.725 180.00 1.02012 0.06
5 -1 1 o 0.577 0.695 0.00 1.01972 0.02
2 4 -4 o 0.163 0.187 180.00 1.01851 0.01
4 2 -4 o 0.436 0.432 180.00 1.01520 0.02
5 -1 -1 o 2.050 1.900 0.00 1.01364 0.08
5 3 3 o 0.528 0.476 180.00 1.01307 0.02
3 -2 -4 o 0.366 0.297 0.00 1.01047 0.01
0 5 3 o 0.006 0.005 180.00 1.00985 0.00
3 -2 4 o 1.124 0.880 0.00 1.00817 0.04
0 4 -4 o 0.080 0.063 0.00 1.00729 0.00
4 4 -3 o 0.313 0.252 0.00 1.00633 0.01
4 0 -4 o 2.573 2.085 180.00 1.00612 0.10
3 -3 -3 o 6.914 6.478 0.00 1.00335 0.26
3 1 -5 o 1.571 1.508 0.00 1.00297 0.06
1 -5 -2 o 5.689 5.556 0.00 1.00272 0.22
1 3 -5 o 0.045 0.045 180.00 1.00240 0.00
2 -3 4 o 0.002 0.002 180.00 1.00209 0.00
2 6 0 o 2.173 2.270 180.00 1.00171 0.08
0 0 6 o 0.906 1.036 180.00 1.00012 0.03
2 5 -3 o 4.468 5.220 0.00 0.99965 0.17
1 5 -3 o 0.532 0.633 180.00 0.99923 0.02
2 6 1 o 2.034 2.509 0.00 0.99818 0.08
3 3 5 o 0.345 0.447 0.00 0.99557 0.01
3 0 -5 o 3.212 4.186 0.00 0.99484 0.12
0 1 6 o 0.426 0.558 180.00 0.99334 0.02
3 -3 3 o 1.803 2.359 0.00 0.99310 0.07
2 -4 -3 o 2.516 3.287 0.00 0.99287 0.09
1 1 6 o 2.498 3.261 0.00 0.99270 0.09
1 -4 -4 o 3.232 4.214 180.00 0.99262 0.12
0 3 -5 o 6.710 8.699 0.00 0.99210 0.25
5 2 -3 o 6.431 8.217 0.00 0.99139 0.23
2 -2 -5 o 3.523 4.481 0.00 0.99121 0.13
5 1 -3 o 1.714 2.150 0.00 0.99077 0.06
1 0 6 o 0.006 0.007 0.00 0.98937 0.00
1 6 0 o 0.410 0.462 180.00 0.98860 0.01
5 0 3 o 0.007 0.006 0.00 0.98534 0.00
1 6 1 o 0.000 0.000 180.00 0.98439 0.00
3 -4 0 o 0.497 0.451 0.00 0.98437 0.02
1 -3 -5 o 1.154 1.043 180.00 0.98425 0.04
4 5 -2 o 2.325 2.101 0.00 0.98424 0.08
3 6 0 o 3.894 3.467 0.00 0.98319 0.14
6 2 0 o 0.814 0.723 180.00 0.98161 0.03
2 3 -5 o 8.165 7.268 180.00 0.98108 0.29
5 -1 2 o 3.451 3.074 0.00 0.98094 0.12
3 2 -5 o 0.624 0.557 180.00 0.98074 0.02
3 6 1 o 0.148 0.132 0.00 0.98067 0.01
2 -2 5 o 7.829 6.998 0.00 0.98025 0.27
4 -3 0 o 3.242 2.901 180.00 0.98010 0.11
5 4 -2 o 3.168 2.838 0.00 0.97983 0.11
1 0 -6 o 2.631 2.361 0.00 0.97946 0.09
2 6 -1 o 1.661 1.501 0.00 0.97819 0.06
1 -5 2 o 4.863 4.394 180.00 0.97815 0.17
0 1 -6 o 6.438 5.866 0.00 0.97685 0.22
6 2 1 o 4.692 4.306 0.00 0.97615 0.16
3 4 -4 o 1.045 0.961 0.00 0.97595 0.04
4 -2 3 o 0.616 0.569 0.00 0.97568 0.02
4 4 4 o 10.508 9.912 0.00 0.97457 0.36
3 -4 -1 o 1.285 1.221 0.00 0.97429 0.04
4 3 -4 o 1.092 1.049 180.00 0.97389 0.04
4 -1 4 o 2.795 2.798 180.00 0.97260 0.09
4 -2 -3 o 0.336 0.339 180.00 0.97242 0.01
5 -1 -2 o 5.074 5.479 180.00 0.97021 0.17
2 -4 3 o 0.755 0.818 180.00 0.97007 0.03
3 5 -3 o 0.719 0.788 180.00 0.96931 0.02
4 5 3 o 2.457 2.694 0.00 0.96918 0.08
3 -1 5 o 0.018 0.020 0.00 0.96880 0.00
5 5 0 o 1.799 1.975 0.00 0.96855 0.06
3 -4 1 o 2.385 2.618 0.00 0.96851 0.08
2 6 2 o 0.001 0.001 180.00 0.96844 0.00
0 5 -3 o 0.973 1.065 180.00 0.96815 0.03
4 -3 -1 o 0.695 0.759 0.00 0.96805 0.02
6 1 0 o 2.312 2.501 0.00 0.96751 0.08
6 3 0 o 1.024 1.092 0.00 0.96707 0.03
1 2 6 o 0.515 0.545 180.00 0.96682 0.02
1 6 -1 o 0.988 1.042 0.00 0.96676 0.03
1 1 -6 o 0.740 0.779 0.00 0.96672 0.02
2 5 4 o 1.247 1.309 0.00 0.96665 0.04
4 -3 1 o 0.176 0.184 180.00 0.96651 0.01
5 5 1 o 0.637 0.662 180.00 0.96641 0.02
1 4 5 o 0.670 0.655 180.00 0.96522 0.02
1 -1 -6 o 1.220 1.100 180.00 0.96375 0.04
6 3 1 o 6.224 5.446 0.00 0.96313 0.20
5 3 -3 o 1.928 1.685 180.00 0.96311 0.06
2 4 5 o 2.832 2.420 0.00 0.96260 0.09
5 4 3 o 2.634 2.233 0.00 0.96241 0.09
2 1 6 o 2.301 1.922 0.00 0.96201 0.07
6 2 -1 o 1.270 1.042 0.00 0.96148 0.04
5 0 -3 o 5.741 4.696 180.00 0.96140 0.19
6 1 1 o 3.563 2.881 180.00 0.96101 0.12
1 5 4 o 3.472 2.794 180.00 0.96084 0.11
3 6 -1 o 4.301 3.403 180.00 0.96016 0.14
3 -1 -5 o 0.234 0.180 180.00 0.95843 0.01
0 2 6 o 3.573 2.740 0.00 0.95824 0.11
4 -1 -4 o 0.120 0.092 0.00 0.95803 0.00
1 -1 6 o 1.976 1.509 180.00 0.95766 0.06
1 -4 4 o 1.739 1.321 180.00 0.95647 0.06
1 6 2 o 16.471 12.546 0.00 0.95507 0.52
3 6 2 o 6.433 4.933 180.00 0.95317 0.20
1 -3 5 o 0.205 0.157 180.00 0.95293 0.01
4 2 5 o 5.144 3.944 0.00 0.95082 0.16
2 0 6 o 7.325 5.592 0.00 0.95004 0.23
2 -5 0 o 8.530 6.506 0.00 0.94990 0.26
6 1 -1 o 7.750 5.891 0.00 0.94945 0.24
4 1 5 o 1.917 1.454 180.00 0.94922 0.06
5 2 4 o 2.772 2.092 0.00 0.94873 0.09
0 6 0 o 8.044 5.963 0.00 0.94734 0.25
2 2 6 o 1.300 0.960 180.00 0.94701 0.04
6 3 -1 o 7.036 5.161 180.00 0.94658 0.21
6 2 2 o 2.423 1.771 180.00 0.94634 0.07
5 5 -1 o 0.269 0.197 0.00 0.94626 0.01
1 -5 -3 o 0.000 0.000 0.00 0.94458 0.00
3 5 4 o 3.941 2.821 0.00 0.94419 0.12
0 6 1 o 0.003 0.002 180.00 0.94290 0.00
2 -5 -1 o 0.000 0.000 180.00 0.94276 0.00
3 -4 -2 o 1.657 1.260 0.00 0.94052 0.05
5 5 2 o 7.245 5.546 0.00 0.94030 0.21
0 4 5 o 0.485 0.376 0.00 0.93990 0.01
5 1 4 o 0.024 0.019 180.00 0.93972 0.00
5 -2 0 o 9.974 8.109 0.00 0.93851 0.29
4 6 0 o 2.350 1.951 0.00 0.93788 0.07
4 6 1 o 0.005 0.004 180.00 0.93640 0.00
6 3 2 o 0.425 0.378 180.00 0.93563 0.01
2 -5 1 o 6.552 6.254 180.00 0.93374 0.19
3 3 -5 o 1.004 0.961 0.00 0.93366 0.03
4 -3 -2 o 0.529 0.519 180.00 0.93303 0.02
2 6 -2 o 1.694 1.673 0.00 0.93286 0.05
2 0 -6 o 0.004 0.004 180.00 0.93271 0.00
3 4 5 o 0.015 0.015 180.00 0.93269 0.00
5 3 4 o 0.631 0.643 0.00 0.93190 0.02
6 1 2 o 0.636 0.655 0.00 0.93136 0.02
4 -3 2 o 1.500 1.563 0.00 0.93028 0.04
3 -4 2 o 0.517 0.539 180.00 0.93020 0.01
6 4 1 o 0.167 0.146 180.00 0.92509 0.00
2 1 -6 o 2.512 2.615 180.00 0.92984 0.07
0 2 -6 o 0.823 0.850 0.00 0.92925 0.02
0 6 -1 o 1.688 1.725 180.00 0.92876 0.05
1 2 -6 o 0.013 0.014 0.00 0.92864 0.00
5 -2 1 o 0.007 0.007 0.00 0.92840 0.00
1 6 -2 o 0.001 0.001 180.00 0.92361 0.00
5 -1 3 o 1.635 1.354 180.00 0.92359 0.05
0 5 4 o 0.991 0.995 0.00 0.92823 0.03
6 0 0 o 2.311 2.321 0.00 0.92822 0.07
1 -2 -6 o 0.256 0.211 180.00 0.92340 0.01
6 4 0 o 1.051 1.022 0.00 0.92743 0.03
4 0 5 o 1.569 1.282 0.00 0.92234 0.04
4 3 5 o 2.790 2.632 0.00 0.92676 0.08
6 0 1 o 0.001 0.001 180.00 0.92135 0.00
5 -2 -1 o 0.774 0.706 180.00 0.92608 0.02
6 2 -2 o 0.530 0.454 0.00 0.92011 0.01
3 -3 -4 o 0.085 0.076 180.00 0.91890 0.00
2 6 3 o 2.064 1.832 0.00 0.91887 0.06
1 3 6 o 0.002 0.002 0.00 0.91795 0.00
4 6 -1 o 0.491 0.438 0.00 0.91716 0.01
3 6 -2 o 2.666 2.353 0.00 0.91652 0.07
0 6 2 o 0.327 0.287 180.00 0.91638 0.01
4 5 -3 o 0.931 0.803 180.00 0.91576 0.02
1 -5 3 o 9.318 7.562 0.00 0.91414 0.25
2 -1 6 o 0.601 0.484 180.00 0.91392 0.02
2 -5 -2 o 0.004 0.003 180.00 0.91382 0.00
6 0 -1 o 2.017 1.589 180.00 0.91333 0.05
2 -3 -5 o 0.150 0.118 0.00 0.91314 0.00
4 6 2 o 2.366 1.846 0.00 0.91303 0.06
4 4 -4 o 8.493 6.567 0.00 0.91276 0.22
5 4 -3 o 0.000 0.000 180.00 0.91264 0.00
2 -4 -4 o 0.028 0.022 180.00 0.91258 0.00
2 -1 -6 o 7.394 5.481 0.00 0.91124 0.19
1 4 -5 o 2.184 1.600 180.00 0.91071 0.06
6 1 -2 o 0.550 0.403 180.00 0.91064 0.01
5 -1 -3 o 0.976 0.708 0.00 0.91022 0.03
4 1 -5 o 6.208 4.474 180.00 0.90989 0.16
3 1 6 o 0.258 0.183 0.00 0.90879 0.01
2 3 6 o 0.213 0.151 0.00 0.90855 0.01
3 -3 4 o 0.190 0.134 0.00 0.90843 0.00
1 5 -4 o 8.269 5.819 180.00 0.90832 0.21
6 4 -1 o 2.608 1.833 0.00 0.90824 0.07
2 5 -4 o 2.379 1.669 180.00 0.90799 0.06
5 0 4 o 2.527 1.761 0.00 0.90695 0.06
1 6 3 o 0.558 0.389 180.00 0.90678 0.01
3 6 3 o 0.536 0.373 0.00 0.90644 0.01
6 3 -2 o 4.824 3.360 0.00 0.90596 0.12
1 -2 6 o 2.118 1.482 0.00 0.90497 0.05
5 5 -2 o 0.743 0.524 180.00 0.90419 0.02
5 1 -4 o 0.169 0.120 180.00 0.90363 0.00
3 2 6 o 10.479 7.422 0.00 0.90360 0.27
2 2 -6 o 1.839 1.306 0.00 0.90328 0.05
5 2 -4 o 0.230 0.164 0.00 0.90304 0.01
0 3 6 o 0.006 0.004 0.00 0.90293 0.00
3 -2 -5 o 0.067 0.048 180.00 0.90212 0.00
2 4 -5 o 1.064 0.762 0.00 0.90208 0.03
6 4 2 o 9.018 6.476 0.00 0.90170 0.23
4 2 -5 o 16.962 12.241 0.00 0.90061 0.42
3 -2 5 o 0.388 0.280 0.00 0.90008 0.01
4 5 4 o 3.373 2.438 180.00 0.89886 0.08
6 2 3 o 0.079 0.057 0.00 0.89826 0.00
5 -2 2 o 0.019 0.014 0.00 0.89781 0.00
2 -5 2 o 0.106 0.076 0.00 0.89760 0.00
4 -2 4 o 0.947 0.681 0.00 0.89669 0.02
4 0 -5 o 4.194 3.014 180.00 0.89631 0.10
5 5 3 o 0.124 0.089 180.00 0.89557 0.00
0 4 -5 o 4.401 3.157 0.00 0.89549 0.11
2 -3 5 o 1.115 0.798 180.00 0.89409 0.03
6 0 2 o 0.122 0.087 180.00 0.89409 0.00
5 -2 -2 o 3.556 2.545 0.00 0.89363 0.09
4 -2 -4 o 13.976 9.997 0.00 0.89332 0.34
5 4 4 o 3.972 2.839 180.00 0.89304 0.10
1 -4 -5 o 6.277 4.481 0.00 0.89261 0.15
3 0 6 o 0.788 0.558 180.00 0.89131 0.02
0 6 -2 o 0.060 0.042 0.00 0.89092 0.00
6 3 3 o 0.076 0.053 180.00 0.89011 0.00
3 -4 -3 o 1.726 1.212 180.00 0.88981 0.04
2 -4 4 o 3.502 2.449 0.00 0.88907 0.08
1 -6 0 o 0.892 0.623 0.00 0.88742 0.02
0 5 -4 o 5.083 3.624 0.00 0.88539 0.12
3 5 -4 o 11.738 8.540 0.00 0.88447 0.27
6 1 3 o 0.004 0.003 0.00 0.88443 0.00
1 -6 -1 o 2.645 2.008 0.00 0.88317 0.06
4 4 5 o 4.013 3.139 180.00 0.88238 0.09
5 0 -4 o 3.407 2.685 0.00 0.88217 0.08
4 -3 -3 o 5.150 4.103 0.00 0.88187 0.12
5 3 -4 o 4.836 4.003 0.00 0.88053 0.11
6 0 -2 o 3.645 3.060 0.00 0.87960 0.08
4 -3 3 o 2.141 1.802 180.00 0.87838 0.05
4 6 -2 o 0.372 0.313 180.00 0.87831 0.01
3 3 6 o 1.601 1.328 180.00 0.87686 0.04
3 -4 3 o 5.662 4.692 0.00 0.87676 0.13
2 5 5 o 2.865 2.358 0.00 0.87628 0.06
1 -5 -4 o 3.054 2.510 0.00 0.87620 0.07
4 -1 5 o 4.808 3.941 0.00 0.87604 0.11
5 6 0 o 0.574 0.469 180.00 0.87581 0.01
5 6 1 o 4.838 3.919 0.00 0.87519 0.11
3 1 -6 o 0.109 0.088 0.00 0.87449 0.00
2 6 -3 o 0.074 0.059 180.00 0.87414 0.00
1 3 -6 o 2.755 2.216 0.00 0.87335 0.06
0 6 3 o 1.184 0.957 0.00 0.87289 0.03
1 -6 1 o 1.078 0.873 0.00 0.87267 0.02
4 6 3 o 4.128 3.367 180.00 0.87229 0.09
6 -1 0 o 3.121 2.556 180.00 0.87207 0.07
3 4 -5 o 1.676 1.389 0.00 0.87153 0.04
1 5 5 o 2.225 1.850 0.00 0.87138 0.05
6 4 -2 o 0.593 0.495 180.00 0.87122 0.01
6 5 0 o 3.479 2.913 180.00 0.87109 0.08
4 3 -5 o 2.807 2.388 0.00 0.87045 0.06
6 5 1 o 1.274 1.092 0.00 0.87010 0.03
2 -2 -6 o 0.029 0.025 180.00 0.87006 0.00
3 0 -6 o 0.508 0.436 180.00 0.87003 0.01
2 -5 -3 o 3.180 2.771 0.00 0.86859 0.07
1 6 -3 o 2.408 2.068 0.00 0.86708 0.05
0 3 -6 o 0.464 0.398 180.00 0.86708 0.01
1 -3 -6 o 3.311 2.829 0.00 0.86684 0.07
6 -1 1 o 3.511 2.900 0.00 0.86543 0.07
6 2 -3 o 0.014 0.011 0.00 0.86510 0.00
4 -4 0 o 1.839 1.473 0.00 0.86390 0.04
4 -1 -5 o 7.032 5.610 0.00 0.86274 0.15
5 2 5 o 2.485 2.004 0.00 0.86177 0.05
6 4 3 o 1.880 1.519 180.00 0.86166 0.04
2 -2 6 o 0.185 0.151 180.00 0.86115 0.00
1 -6 -2 o 4.676 3.846 180.00 0.86071 0.10
6 -1 -1 o 0.072 0.059 180.00 0.86060 0.00
3 6 -3 o 0.459 0.383 0.00 0.86010 0.01
3 5 5 o 0.101 0.084 180.00 0.86000 0.00
1 -4 5 o 7.052 5.924 0.00 0.85977 0.15
3 2 -6 o 0.140 0.121 0.00 0.85873 0.00
2 3 -6 o 0.000 0.000 180.00 0.85859 0.00
5 6 -1 o 4.088 3.568 0.00 0.85832 0.08
2 7 0 o 0.625 0.548 0.00 0.85817 0.01
6 1 -3 o 3.872 3.401 0.00 0.85812 0.08
2 6 4 o 5.844 5.135 0.00 0.85810 0.12
0 0 7 o 1.968 1.780 0.00 0.85725 0.04
5 -1 4 o 2.851 2.582 0.00 0.85720 0.06
2 7 1 o 0.163 0.149 180.00 0.85685 0.00
5 6 2 o 0.915 0.848 0.00 0.85656 0.02
4 -4 -1 o 0.016 0.015 180.00 0.85652 0.00
1 4 6 o 5.364 5.142 0.00 0.85573 0.11
3 -1 6 o 6.085 6.041 0.00 0.85479 0.12
2 4 6 o 0.002 0.002 180.00 0.85444 0.00
6 5 -1 o 5.254 5.303 0.00 0.85423 0.11
5 1 5 o 2.362 2.392 0.00 0.85411 0.05
1 1 7 o 1.167 1.185 180.00 0.85399 0.02
0 1 7 o 1.573 1.603 0.00 0.85386 0.03
3 -5 0 o 0.151 0.154 180.00 0.85366 0.00
4 -4 1 o 1.488 1.522 180.00 0.85366 0.03
3 7 0 o 0.402 0.417 0.00 0.85274 0.01
6 3 -3 o 0.105 0.110 180.00 0.85241 0.00
5 -2 3 o 4.152 4.316 0.00 0.85232 0.08
3 7 1 o 1.305 1.357 180.00 0.85198 0.03
6 0 3 o 2.360 2.447 0.00 0.85144 0.05
6 5 2 o 1.660 1.721 0.00 0.85143 0.03
1 0 7 o 1.806 1.862 0.00 0.85098 0.04
5 3 5 o 0.001 0.002 0.00 0.84998 0.00
5 5 -3 o 5.089 5.110 0.00 0.84971 0.10
3 6 4 o 0.009 0.009 0.00 0.84849 0.00
3 -5 -1 o 12.598 12.026 0.00 0.84794 0.25
2 -5 3 o 0.637 0.608 0.00 0.84790 0.01
1 6 4 o 0.045 0.043 0.00 0.84771 0.00
5 -3 0 o 0.848 0.796 180.00 0.84732 0.02
5 -2 -3 o 1.067 0.994 0.00 0.84698 0.02
0 5 5 o 0.214 0.196 180.00 0.84631 0.00
3 -1 -6 o 2.363 2.168 0.00 0.84623 0.05
4 2 6 o 1.132 1.029 0.00 0.84548 0.02
1 -5 4 o 1.820 1.663 0.00 0.84403 0.04
1 7 0 o 0.298 0.275 180.00 0.84365 0.01
1 0 -7 o 0.126 0.116 180.00 0.84361 0.00
4 1 6 o 0.401 0.370 0.00 0.84349 0.01
5 -1 -4 o 0.219 0.205 0.00 0.84300 0.00
4 5 -4 o 0.713 0.670 0.00 0.84270 0.01
3 -5 1 o 0.125 0.118 180.00 0.84239 0.00
2 7 -1 o 1.634 1.547 180.00 0.84238 0.03
1 7 1 o 3.447 3.300 0.00 0.84188 0.07
6 -1 2 o 0.136 0.130 180.00 0.84186 0.00
0 1 -7 o 0.803 0.774 180.00 0.84159 0.02
1 -6 2 o 0.049 0.047 180.00 0.84157 0.00
1 -3 6 o 0.389 0.377 0.00 0.84108 0.01
5 4 -4 o 0.375 0.366 180.00 0.84061 0.01
7 2 0 o 4.337 4.239 0.00 0.84041 0.08
0 6 -3 o 0.134 0.131 0.00 0.84038 0.00
6 2 4 o 3.643 3.565 0.00 0.83989 0.07
5 5 4 o 0.052 0.051 180.00 0.83972 0.00
5 -3 1 o 1.046 1.020 0.00 0.83901 0.02
5 -3 -1 o 2.794 2.723 0.00 0.83899 0.05
2 7 2 o 0.016 0.015 180.00 0.83866 0.00
1 2 7 o 0.063 0.061 0.00 0.83819 0.00
7 2 1 o 0.227 0.219 180.00 0.83749 0.00
0 4 6 o 0.019 0.018 0.00 0.83742 0.00
7 3 0 o 0.650 0.628 0.00 0.83720 0.01
3 7 -1 o 0.486 0.471 0.00 0.83674 0.01
3 -3 -5 o 1.216 1.191 0.00 0.83601 0.02
7 3 1 o 0.011 0.011 180.00 0.83515 0.00
2 1 7 o 0.638 0.648 0.00 0.83472 0.01
3 7 2 o 2.999 3.058 0.00 0.83460 0.06
1 1 -7 o 3.406 3.474 0.00 0.83459 0.06
1 -1 -7 o 0.270 0.278 0.00 0.83434 0.00
6 3 4 o 1.361 1.416 180.00 0.83404 0.03
3 4 6 o 0.910 0.955 180.00 0.83381 0.02
6 -1 -2 o 0.286 0.308 0.00 0.83304 0.01
6 0 -3 o 0.009 0.009 180.00 0.83283 0.00
4 -4 -2 o 0.699 0.759 0.00 0.83281 0.01
2 -4 -5 o 1.498 1.640 180.00 0.83256 0.03
0 2 7 o 3.569 3.970 180.00 0.83208 0.07
3 -4 -4 o 2.744 3.268 0.00 0.83014 0.05
1 -1 7 o 0.357 0.432 0.00 0.82973 0.01
4 3 6 o 0.077 0.095 0.00 0.82925 0.00
1 7 -1 o 2.030 2.520 0.00 0.82913 0.04
5 0 5 o 0.469 0.600 180.00 0.82846 0.01
4 7 0 o 0.291 0.372 180.00 0.82845 0.01
4 7 1 o 4.616 5.975 0.00 0.82825 0.08
4 6 -3 o 2.366 3.135 0.00 0.82779 0.04
6 1 4 o 2.300 3.058 0.00 0.82773 0.04
4 -4 2 o 1.136 1.524 0.00 0.82757 0.02
7 2 -1 o 0.458 0.628 180.00 0.82719 0.01
1 5 -5 o 1.853 3.014 0.00 0.82252 0.03
6 4 -3 o 0.849 1.381 0.00 0.82249 0.01
6 5 -2 o 0.058 0.094 0.00 0.82241 0.00
4 -3 -4 o 0.007 0.011 0.00 0.82240 0.00
7 1 1 o 1.929 3.138 0.00 0.82210 0.03
2 5 -5 o 0.221 0.359 0.00 0.82179 0.00
3 -5 -2 o 1.321 1.913 180.00 0.82621 0.02
3 -3 5 o 2.559 3.717 0.00 0.82615 0.05
2 0 7 o 0.324 0.475 180.00 0.82605 0.01
4 5 5 o 0.128 0.190 0.00 0.82581 0.00
3 3 -6 o 0.440 0.653 180.00 0.82578 0.01
5 6 -2 o 0.021 0.031 180.00 0.82574 0.00
2 2 7 o 4.486 6.705 0.00 0.82567 0.08
7 1 0 o 0.000 0.000 180.00 0.82567 0.00
5 4 5 o 0.837 1.363 0.00 0.82098 0.01
4 6 4 o 0.025 0.041 0.00 0.82076 0.00
4 4 -5 o 0.779 1.194 180.00 0.82516 0.01
5 1 -5 o 0.553 0.904 0.00 0.82030 0.01
1 7 2 o 0.002 0.003 180.00 0.82412 0.00
1 -6 -3 o 0.694 1.113 0.00 0.82390 0.01
0 6 4 o 1.485 2.474 180.00 0.81935 0.03
2 -6 0 o 0.031 0.052 0.00 0.81927 0.00
4 0 6 o 1.101 1.777 180.00 0.82365 0.02
5 2 -5 o 0.441 0.741 0.00 0.81907 0.01
7 2 2 o 0.561 0.947 180.00 0.81891 0.01
7 3 -1 o 0.040 0.065 180.00 0.82332 0.00
5 6 3 o 0.127 0.206 0.00 0.82313 0.00
4 -3 4 o 2.010 3.454 0.00 0.81863 0.03
4 -2 5 o 1.073 1.849 180.00 0.81855 0.02
6 5 3 o 0.369 0.644 0.00 0.81827 0.01
7 3 2 o 3.061 5.566 0.00 0.81750 0.05
7 4 0 o 0.548 1.045 180.00 0.81662 0.01
2 -3 -6 o 0.003 0.005 180.00 0.81660 0.00
3 -4 4 o 0.215 0.421 0.00 0.81606 0.00
3 -5 2 o 1.210 2.369 0.00 0.81604 0.02
7 4 1 o 3.528 7.051 0.00 0.81550 0.06
2 -6 -1 o 0.000 0.000 180.00 0.81546 0.00
5 -3 2 o 0.438 0.876 180.00 0.81544 0.01
5 -3 -2 o 2.403 4.813 0.00 0.81541 0.04
4 -2 -5 o 0.166 0.333 180.00 0.81535 0.00
2 -5 -4 o 0.637 1.277 180.00 0.81407 0.01
7 1 -1 o 1.053 2.104 0.00 0.81389 0.02
4 7 -1 o 1.001 1.971 0.00 0.81329 0.02
2 0 -7 o 0.244 0.473 0.00 0.81272 0.00
4 7 2 o 0.021 0.040 180.00 0.81272 0.00
2 7 -2 o 1.396 2.672 0.00 0.81214 0.02
0 7 0 o 0.832 1.589 0.00 0.81201 0.01
6 4 4 o 0.077 0.147 0.00 0.81127 0.00
2 -4 5 o 0.888 1.705 180.00 0.81028 0.01
4 1 -6 o 0.330 0.633 0.00 0.81027 0.01
2 6 -4 o 0.957 1.845 0.00 0.81009 0.02
2 1 -7 o 0.404 0.779 0.00 0.81005 0.01
0 7 1 o 0.310 0.599 180.00 0.80997 0.01
1 4 -6 o 0.063 0.122 0.00 0.80993 0.00
0 2 -7 o 1.028 1.999 0.00 0.80981 0.02
1 2 -7 o 0.222 0.448 0.00 0.80895 0.00
1 -2 -7 o 1.387 2.870 0.00 0.80851 0.02
6 -2 0 o 0.025 0.054 0.00 0.80817 0.00
2 -6 1 o 0.667 1.420 0.00 0.80808 0.01
3 -2 -6 o 1.623 3.621 0.00 0.80748 0.03
6 6 0 o 0.048 0.111 0.00 0.80713 0.00
6 6 1 o 0.101 0.232 0.00 0.80709 0.00
3 7 -2 o 0.064 0.154 180.00 0.80663 0.00
2 7 3 o 1.843 4.428 0.00 0.80660 0.03
1 3 7 o 1.955 4.739 0.00 0.80650 0.03
1 -5 -5 o 0.051 0.129 0.00 0.80587 0.00
0 5 -5 o 0.282 0.721 180.00 0.80583 0.00
3 -2 6 o 0.036 0.092 0.00 0.80572 0.00
6 -1 3 o 0.400 1.075 0.00 0.80522 0.01
1 6 -4 o 0.283 0.781 180.00 0.80492 0.00
5 0 -5 o 0.235 0.648 180.00 0.80489 0.00
6 2 -4 o 1.082 3.215 0.00 0.80407 0.02
3 5 -5 o 0.062 0.190 180.00 0.80378 0.00
7 1 2 o 0.361 1.109 180.00 0.80375 0.01
3 7 3 o 0.409 1.299 180.00 0.80344 0.01
2 4 -6 o 0.267 0.852 180.00 0.80339 0.00
1 -4 -6 o 0.043 0.143 180.00 0.80301 0.00
7 4 -1 o 0.159 0.536 0.00 0.80298 0.00
4 2 -6 o 0.097 0.327 180.00 0.80295 0.00
6 -2 1 o 0.165 0.615 180.00 0.80213 0.00
5 3 -5 o 0.041 0.167 180.00 0.80142 0.00
4 0 -6 o 1.125 4.583 0.00 0.80137 0.02
2 -1 7 o 0.207 0.856 0.00 0.80123 0.00
1 7 -2 o 0.023 0.101 180.00 0.80069 0.00
2 3 7 o 0.000 0.001 180.00 0.80055 0.00
2 -3 6 o 0.497 2.318 0.00 0.80023 0.01
7 2 -2 o 0.238 1.152 0.00 0.79996 0.00
7 4 2 o 0.001 0.004 180.00 0.79978 0.00
6 0 4 o 0.229 1.141 180.00 0.79976 0.00
6 -2 -1 o 0.363 1.811 0.00 0.79975 0.01
3 1 7 o 1.086 5.483 0.00 0.79968 0.02
0 4 -6 o 0.542 2.769 0.00 0.79961 0.01
0 7 -1 o 0.534 2.790 0.00 0.79948 0.01
6 1 -4 o 0.000 0.002 180.00 0.79919 0.00
2 -1 -7 o 0.161 0.902 180.00 0.79913 0.00
1 -6 3 o 0.009 0.052 180.00 0.79902 0.00
5 -2 4 o 0.089 0.581 180.00 0.79858 0.00
3 6 -4 o 0.001 0.009 180.00 0.79844 0.00
4 4 6 o 0.285 2.684 0.00 0.79773 0.00
2 -6 -2 o 0.148 1.947 0.00 0.79724 0.00
3 2 7 o 0.082 1.562 180.00 0.79686 0.00
4 -4 -3 o 0.000 0.014 180.00 0.79654 0.00
0 3 7 o 0.000 0.050 0.00 0.79582 0.00
7 3 -2 o 0.000 0.141 180.00 0.79573 0.00
7 0 0 o 0.000 0.408 0.00 0.79562 0.00
1 -2 7 o 0.007 0.543 180.00 0.79403 0.00
2 6 5 o 0.011 0.490 180.00 0.79373 0.00
6 -1 -3 o 0.008 0.334 180.00 0.79371 0.00
0 7 2 o 0.067 2.775 0.00 0.79369 0.00
1 7 3 o 0.048 1.100 0.00 0.79321 0.00
6 3 -4 o 0.002 0.039 180.00 0.79313 0.00
2 5 6 o 0.041 0.821 180.00 0.79307 0.00
6 6 -1 o 0.073 1.335 180.00 0.79294 0.00
6 6 2 o 0.001 0.018 180.00 0.79285 0.00
5 -2 -4 o 0.011 0.167 180.00 0.79273 0.00
3 -5 -3 o 0.009 0.081 180.00 0.79190 0.00
7 0 1 o 0.052 0.435 180.00 0.79171 0.00
2 2 -7 o 0.066 0.526 180.00 0.79160 0.00
2 -5 4 o 0.097 0.733 180.00 0.79149 0.00
5 7 1 o 0.052 0.218 0.00 0.79000 0.00
5 5 -4 o 0.246 1.024 180.00 0.78996 0.00
5 7 0 o 0.548 2.147 0.00 0.78975 0.01
4 -4 3 o 0.411 1.583 0.00 0.78969 0.01
4 -1 6 o 0.001 0.002 0.00 0.78947 0.00
5 -1 5 o 0.001 0.005 180.00 0.78932 0.00
1 5 6 o 0.025 0.080 180.00 0.78900 0.00
7 1 -2 o 0.012 0.035 180.00 0.78862 0.00
7 2 3 o 2.377 6.332 0.00 0.78758 0.03
7 3 3 o 0.011 0.029 180.00 0.78703 0.00
3 0 7 o 0.077 0.199 0.00 0.78699 0.00
3 6 5 o 1.395 3.549 0.00 0.78652 0.02
7 0 -1 o 0.715 1.795 0.00 0.78576 0.01
4 7 -2 o 0.044 0.110 0.00 0.78514 0.00
1 6 5 o 0.037 0.092 0.00 0.78506 0.00
4 7 3 o 0.024 0.057 180.00 0.78427 0.00
0 6 -4 o 0.080 0.181 0.00 0.78383 0.00
2 -6 2 o 0.247 0.549 180.00 0.78362 0.00
5 6 -3 o 0.199 0.415 180.00 0.78293 0.00
6 -2 2 o 1.853 3.724 0.00 0.78257 0.03
7 5 0 o 0.284 0.552 0.00 0.78225 0.00
7 5 1 o 0.000 0.001 0.00 0.78194 0.00
5 2 6 o 0.318 0.564 180.00 0.78144 0.00
3 5 6 o 2.815 4.950 0.00 0.78135 0.04
3 4 -6 o 0.520 0.898 0.00 0.78118 0.01
4 3 -6 o 2.728 4.467 0.00 0.78066 0.04
6 5 -3 o 0.077 0.122 180.00 0.78037 0.00
5 -3 3 o 0.863 1.352 0.00 0.78023 0.01
5 -3 -3 o 1.351 2.108 180.00 0.78019 0.02
5 6 4 o 0.892 1.341 0.00 0.77983 0.01
5 5 5 o 0.172 0.254 0.00 0.77966 0.00
6 0 -4 o 0.012 0.017 0.00 0.77932 0.00
3 3 7 o 0.171 0.241 180.00 0.77902 0.00
3 -5 3 o 0.690 0.944 180.00 0.77856 0.01
6 2 5 o 2.100 2.822 180.00 0.77817 0.03
6 -2 -2 o 1.215 1.632 180.00 0.77816 0.02
1 -6 -4 o 1.704 2.277 0.00 0.77802 0.02
4 -1 -6 o 0.805 1.064 180.00 0.77778 0.01
5 7 2 o 1.076 1.409 180.00 0.77689 0.01
7 4 -2 o 0.004 0.005 0.00 0.77665 0.00
5 7 -1 o 0.710 0.940 180.00 0.77618 0.01
5 -1 -5 o 0.012 0.016 0.00 0.77548 0.00
6 5 4 o 1.837 2.482 0.00 0.77542 0.03
5 1 6 o 0.183 0.251 180.00 0.77504 0.00
1 -5 5 o 0.000 0.000 180.00 0.77468 0.00
7 0 2 o 3.593 4.992 0.00 0.77461 0.05
0 7 -2 o 1.516 2.128 180.00 0.77429 0.02
1 -4 6 o 0.151 0.212 180.00 0.77427 0.00
6 3 5 o 1.206 1.700 0.00 0.77418 0.02
7 1 3 o 0.027 0.039 180.00 0.77341 0.00
5 3 6 o 3.048 4.413 0.00 0.77328 0.04
3 1 -7 o 2.323 3.483 180.00 0.77227 0.03
4 6 -4 o 0.775 1.174 180.00 0.77200 0.01
2 7 -3 o 0.064 0.098 180.00 0.77184 0.00
7 4 3 o 0.151 0.230 180.00 0.77184 0.00
4 5 -5 o 1.617 2.484 0.00 0.77166 0.02
2 -2 -7 o 0.789 1.216 0.00 0.77158 0.01
1 3 -7 o 1.029 1.623 180.00 0.77095 0.01
1 -3 -7 o 0.637 1.025 180.00 0.77038 0.01
5 4 -5 o 0.212 0.341 0.00 0.77031 0.00
0 5 6 o 2.066 3.368 0.00 0.76985 0.03
3 0 -7 o 0.224 0.365 0.00 0.76985 0.00
7 5 -1 o 0.166 0.272 180.00 0.76957 0.00
7 5 2 o 1.029 1.678 180.00 0.76870 0.01
1 -7 0 o 1.414 2.300 0.00 0.76861 0.02
6 4 -4 o 0.703 1.130 180.00 0.76820 0.01
3 -4 -5 o 0.128 0.205 180.00 0.76815 0.00
6 1 5 o 0.190 0.300 0.00 0.76781 0.00
2 -6 -3 o 0.455 0.699 180.00 0.76733 0.01
0 3 -7 o 0.627 0.942 0.00 0.76702 0.01
4 -5 0 o 0.002 0.003 0.00 0.76681 0.00
3 7 -3 o 3.217 4.721 0.00 0.76671 0.04
6 6 -2 o 1.588 2.319 0.00 0.76665 0.02
6 6 3 o 2.652 3.827 0.00 0.76651 0.03
1 -7 -1 o 0.037 0.053 180.00 0.76649 0.00
0 7 3 o 0.544 0.727 180.00 0.76558 0.01
2 7 4 o 1.674 2.174 180.00 0.76521 0.02
4 6 5 o 1.006 1.259 0.00 0.76467 0.01
2 -2 7 o 0.001 0.001 180.00 0.76432 0.00
5 -4 0 o 0.269 0.329 180.00 0.76421 0.00
1 4 7 o 0.260 0.315 180.00 0.76396 0.00
7 0 -2 o 0.261 0.314 180.00 0.76359 0.00
2 4 7 o 0.348 0.417 180.00 0.76343 0.00
3 7 4 o 0.040 0.048 0.00 0.76288 0.00
7 2 -3 o 0.219 0.265 180.00 0.76263 0.00
1 7 -3 o 0.767 0.932 180.00 0.76237 0.01
4 -5 -1 o 0.000 0.000 180.00 0.76227 0.00
0 6 5 o 0.731 0.903 0.00 0.76199 0.01
4 -3 -5 o 0.654 0.853 180.00 0.76099 0.01
3 -1 7 o 1.729 2.269 180.00 0.76087 0.02
3 2 -7 o 0.669 0.885 0.00 0.76071 0.01
6 -1 4 o 0.252 0.338 0.00 0.76046 0.00
2 3 -7 o 0.983 1.323 0.00 0.76037 0.01
3 -3 -6 o 0.266 0.364 180.00 0.75966 0.00
4 -5 1 o 3.620 4.921 0.00 0.75899 0.05
5 -4 -1 o 1.781 2.398 0.00 0.75871 0.02
1 -7 1 o 0.915 1.210 180.00 0.75834 0.01
7 3 -3 o 3.670 4.855 0.00 0.75833 0.05
2 -4 -6 o 1.904 2.483 0.00 0.75807 0.02
5 -4 1 o 0.044 0.055 180.00 0.75747 0.00
4 -3 5 o 0.002 0.003 180.00 0.75727 0.00
4 2 7 o 0.820 0.963 180.00 0.75652 0.01
6 4 5 o 1.840 2.155 0.00 0.75648 0.02
2 -5 -5 o 0.875 1.017 0.00 0.75637 0.01
4 5 6 o 0.487 0.545 0.00 0.75582 0.01
5 0 6 o 1.819 1.951 0.00 0.75510 0.02
7 -1 0 o 1.109 1.178 0.00 0.75494 0.01
4 1 7 o 0.750 0.775 180.00 0.75447 0.01
3 -4 5 o 0.292 0.298 180.00 0.75424 0.00
3 -1 -7 o 1.214 1.217 0.00 0.75383 0.01
7 1 -3 o 0.550 0.543 180.00 0.75340 0.01
1 7 4 o 2.092 2.061 0.00 0.75337 0.03
4 -4 -4 o 0.504 0.485 180.00 0.75251 0.01
5 7 3 o 6.156 5.889 0.00 0.75231 0.08
1 -7 -2 o 0.275 0.263 180.00 0.75228 0.00
6 -2 3 o 0.144 0.138 180.00 0.75226 0.00
5 4 6 o 0.170 0.161 0.00 0.75186 0.00
5 7 -2 o 1.838 1.739 0.00 0.75123 0.02
7 -1 1 o 1.048 0.991 180.00 0.75099 0.01
3 -3 6 o 1.934 1.830 180.00 0.75079 0.02
3 -6 0 o 1.595 1.509 0.00 0.75072 0.02
0 4 7 o 4.364 4.132 0.00 0.75048 0.05
1 -6 4 o 6.303 5.970 0.00 0.75032 0.08
0 0 8 o 1.932 1.832 0.00 0.75009 0.02
3 8 1 o 2.817 2.672 0.00 0.75008 0.03
3 8 0 o 1.539 1.461 180.00 0.74999 0.02
3 -5 -4 o 0.674 0.642 0.00 0.74957 0.01
2 8 0 o 1.367 1.304 0.00 0.74931 0.02
2 -6 3 o 2.261 2.158 0.00 0.74929 0.03
1 -3 7 o 1.720 1.642 0.00 0.74921 0.02
2 8 1 o 1.054 1.008 180.00 0.74904 0.01
3 4 7 o 6.329 6.052 0.00 0.74897 0.08
1 1 8 o 0.018 0.018 0.00 0.74887 0.00
0 1 8 o 0.656 0.629 180.00 0.74842 0.01
7 3 4 o 0.174 0.167 0.00 0.74784 0.00
4 7 -3 o 0.050 0.048 0.00 0.74783 0.00
7 2 4 o 1.169 1.120 180.00 0.74771 0.01
6 -1 -4 o 2.890 2.770 0.00 0.74758 0.03
3 -6 -1 o 0.221 0.211 180.00 0.74742 0.00
7 -1 -1 o 0.152 0.145 180.00 0.74710 0.00
4 4 -6 o 0.230 0.219 0.00 0.74690 0.00
4 7 4 o 5.435 5.159 0.00 0.74678 0.06
7 0 3 o 0.777 0.737 180.00 0.74674 0.01
2 6 -5 o 0.213 0.201 180.00 0.74650 0.00
6 -2 -3 o 1.972 1.857 0.00 0.74641 0.02
1 0 8 o 1.749 1.640 180.00 0.74624 0.02
4 -2 6 o 2.582 2.401 0.00 0.74602 0.03
4 -5 -2 o 1.403 1.305 0.00 0.74601 0.02
7 5 -2 o 3.003 2.766 0.00 0.74571 0.04
4 3 7 o 1.756 1.602 0.00 0.74542 0.02
1 5 -6 o 0.642 0.585 180.00 0.74542 0.01
4 -4 4 o 0.744 0.663 180.00 0.74483 0.01
6 0 5 o 2.902 2.580 0.00 0.74474 0.03
5 1 -6 o 0.104 0.092 180.00 0.74471 0.00
2 5 -6 o 5.994 5.278 0.00 0.74452 0.07
7 5 3 o 4.117 3.606 0.00 0.74439 0.05
6 -3 0 o 5.344 4.488 0.00 0.74347 0.06
5 2 -6 o 1.805 1.498 0.00 0.74319 0.02
4 -2 -6 o 0.119 0.098 180.00 0.74312 0.00
6 7 1 o 3.171 2.611 180.00 0.74302 0.04
1 6 -5 o 0.458 0.374 0.00 0.74280 0.01
6 2 -5 o 3.347 2.722 180.00 0.74272 0.04
6 7 0 o 2.956 2.379 0.00 0.74246 0.03
3 -6 1 o 0.659 0.530 180.00 0.74244 0.01
5 -2 5 o 0.898 0.717 0.00 0.74225 0.01
5 -4 -2 o 0.793 0.621 180.00 0.74173 0.01
7 4 -3 o 0.000 0.000 180.00 0.74118 0.00
1 0 -8 o 1.417 1.082 0.00 0.74055 0.02
4 -5 2 o 0.796 0.606 180.00 0.73990 0.01
0 7 -3 o 2.142 1.630 0.00 0.73983 0.02
4 0 7 o 2.329 1.774 0.00 0.73960 0.03
6 1 -5 o 0.428 0.327 0.00 0.73945 0.00
5 -4 2 o 2.152 1.641 0.00 0.73941 0.02
7 6 1 o 2.038 1.555 180.00 0.73938 0.02
7 6 0 o 0.327 0.251 0.00 0.73905 0.00
0 1 -8 o 2.564 1.969 0.00 0.73896 0.03
1 2 8 o 3.386 2.612 0.00 0.73873 0.04
3 8 2 o 1.358 1.048 0.00 0.73872 0.02
1 -5 -6 o 0.149 0.115 180.00 0.73868 0.00
3 8 -1 o 4.469 3.470 0.00 0.73846 0.05
6 -3 1 o 0.005 0.004 180.00 0.73818 0.00
2 8 -1 o 0.435 0.340 0.00 0.73816 0.00
2 -4 6 o 0.072 0.057 180.00 0.73789 0.00
4 8 1 o 0.950 0.752 0.00 0.73783 0.01
5 -3 4 o 0.029 0.023 0.00 0.73780 0.00
5 -3 -4 o 1.980 1.573 0.00 0.73775 0.02
6 -3 -1 o 0.336 0.269 180.00 0.73748 0.00
4 8 0 o 0.246 0.198 0.00 0.73739 0.00
2 8 2 o 1.561 1.258 0.00 0.73737 0.02
1 -7 2 o 3.738 3.048 0.00 0.73709 0.04
3 6 -5 o 0.478 0.391 0.00 0.73701 0.01
3 3 -7 o 5.012 4.111 0.00 0.73695 0.06
5 -2 -5 o 2.331 1.960 0.00 0.73638 0.03
2 1 8 o 0.431 0.366 0.00 0.73612 0.00
7 -1 2 o 0.099 0.086 0.00 0.73578 0.00
8 3 0 o 1.302 1.139 180.00 0.73548 0.01
1 8 0 o 1.956 1.712 0.00 0.73547 0.02
7 4 4 o 5.459 4.805 0.00 0.73534 0.06
7 1 4 o 1.699 1.516 0.00 0.73498 0.02
5 6 -4 o 2.982 2.671 0.00 0.73488 0.03
1 8 1 o 0.005 0.005 180.00 0.73486 0.00
1 -1 -8 o 3.087 2.770 0.00 0.73483 0.03
3 -5 4 o 0.992 0.898 0.00 0.73456 0.01
8 3 1 o 0.160 0.145 0.00 0.73443 0.00
0 2 8 o 0.718 0.656 0.00 0.73419 0.01
2 -3 -7 o 2.097 1.919 0.00 0.73413 0.02
1 1 -8 o 1.864 1.715 180.00 0.73386 0.02
2 -5 5 o 3.060 2.818 0.00 0.73380 0.03
5 0 -6 o 0.819 0.755 0.00 0.73369 0.01
8 2 0 o 1.246 1.150 0.00 0.73356 0.01
6 3 -5 o 1.127 1.042 0.00 0.73351 0.01
0 5 -6 o 0.011 0.010 0.00 0.73327 0.00
6 5 -4 o 2.074 1.920 0.00 0.73298 0.02
3 -6 -2 o 0.387 0.358 0.00 0.73298 0.00
6 7 2 o 1.204 1.111 0.00 0.73242 0.01
7 0 -3 o 3.882 3.562 0.00 0.73205 0.04
8 2 1 o 1.524 1.396 180.00 0.73196 0.02
6 6 -3 o 0.400 0.364 180.00 0.73168 0.00
5 6 5 o 1.473 1.339 180.00 0.73158 0.02
6 6 4 o 0.772 0.701 180.00 0.73151 0.01
1 -1 8 o 2.271 2.046 0.00 0.73122 0.02
2 6 6 o 2.100 1.873 0.00 0.73087 0.02
6 7 -1 o 0.136 0.121 0.00 0.73081 0.00
3 5 -6 o 1.345 1.194 0.00 0.73071 0.01
2 2 8 o 0.323 0.284 180.00 0.73045 0.00
5 5 -5 o 0.270 0.236 0.00 0.73021 0.00
1 4 -7 o 0.584 0.419 0.00 0.72573 0.01
8 3 -1 o 5.158 3.691 0.00 0.72568 0.05
3 6 6 o 0.022 0.016 180.00 0.72556 0.00
2 0 8 o 0.162 0.140 0.00 0.72959 0.00
8 4 0 o 1.307 0.916 0.00 0.72530 0.01
2 -6 -4 o 3.624 3.105 0.00 0.72952 0.04
1 8 -1 o 0.927 0.648 180.00 0.72524 0.01
5 3 -6 o 1.074 0.916 0.00 0.72937 0.01
3 -2 7 o 2.626 1.822 0.00 0.72510 0.03
1 -4 -7 o 0.240 0.167 180.00 0.72508 0.00
0 7 4 o 0.584 0.496 0.00 0.72924 0.01
8 4 1 o 0.635 0.435 0.00 0.72484 0.01
5 -1 6 o 0.610 0.412 180.00 0.72456 0.01
7 6 2 o 3.012 2.509 0.00 0.72871 0.03
8 2 -1 o 1.577 1.059 0.00 0.72439 0.02
7 -1 -2 o 3.621 2.994 0.00 0.72852 0.04
6 0 -5 o 8.391 5.584 0.00 0.72417 0.09
1 -6 -5 o 1.006 0.817 180.00 0.72807 0.01
1 6 6 o 0.693 0.454 180.00 0.72376 0.01
3 -6 2 o 2.065 1.350 0.00 0.72366 0.02
1 -7 -3 o 1.112 0.895 0.00 0.72788 0.01
7 6 -1 o 0.062 0.050 0.00 0.72778 0.00
1 8 2 o 1.131 0.736 180.00 0.72351 0.01
6 5 5 o 1.154 0.921 180.00 0.72772 0.01
4 8 2 o 0.007 0.005 0.00 0.72733 0.00
4 4 7 o 0.322 0.206 0.00 0.72281 0.00
8 3 2 o 0.084 0.053 0.00 0.72267 0.00
4 1 -7 o 1.406 1.060 0.00 0.72663 0.01
3 -2 -7 o 1.802 1.356 180.00 0.72659 0.02
6 -3 2 o 0.432 0.275 0.00 0.72231 0.00
0 6 -5 o 0.878 0.656 0.00 0.72647 0.01
2 7 -4 o 0.223 0.164 0.00 0.72613 0.00
4 8 -1 o 0.822 0.601 180.00 0.72609 0.01
3 7 -4 o 1.361 0.861 180.00 0.72153 0.01
6 -3 -2 o 1.866 1.182 0.00 0.72099 0.02
4 2 -7 o 0.712 0.451 0.00 0.72080 0.01
4 0 -7 o 0.394 0.250 180.00 0.72073 0.00
2 4 -7 o 3.377 2.138 0.00 0.72069 0.03
5 5 6 o 1.678 1.064 180.00 0.72028 0.02
2 -3 7 o 1.063 0.674 180.00 0.72023 0.01
4 -5 -3 o 2.896 1.837 180.00 0.72014 0.03
8 1 0 o 1.320 0.837 0.00 0.71984 0.01
8 2 2 o 5.654 3.585 0.00 0.71978 0.06
7 2 -4 o 0.000 0.000 0.00 0.71951 0.00
5 7 4 o 0.085 0.054 180.00 0.71935 0.00
2 5 7 o 1.732 1.095 0.00 0.71923 0.02
2 -7 0 o 2.116 1.337 180.00 0.71920 0.02
2 0 -8 o 1.465 0.925 180.00 0.71907 0.01
2 7 5 o 2.000 1.262 0.00 0.71904 0.02
0 4 -7 o 3.186 1.996 180.00 0.71860 0.03
1 7 -4 o 9.074 5.682 0.00 0.71855 0.09
5 7 -3 o 0.898 0.558 180.00 0.71803 0.01
6 2 6 o 2.718 1.684 0.00 0.71782 0.03
8 1 1 o 1.203 0.745 0.00 0.71778 0.01
1 -2 -8 o 0.633 0.391 180.00 0.71753 0.01
3 7 5 o 1.630 1.004 0.00 0.71743 0.02
3 8 3 o 0.172 0.106 180.00 0.71737 0.00
1 3 8 o 0.107 0.066 180.00 0.71729 0.00
2 -7 -1 o 4.316 2.648 0.00 0.71714 0.04
2 8 -2 o 1.102 0.675 180.00 0.71702 0.01
3 8 -2 o 0.149 0.091 0.00 0.71698 0.00
2 1 -8 o 0.570 0.348 0.00 0.71669 0.01
0 2 -8 o 1.994 1.218 180.00 0.71663 0.02
1 5 7 o 0.962 0.589 180.00 0.71588 0.01
2 8 3 o 1.432 0.877 180.00 0.71583 0.01
4 6 -5 o 0.327 0.200 0.00 0.71574 0.00
1 2 -8 o 0.517 0.317 0.00 0.71572 0.01
5 -4 -3 o 1.594 0.984 0.00 0.71544 0.02
8 4 -1 o 3.177 1.964 180.00 0.71537 0.03
7 3 -4 o 1.612 0.997 180.00 0.71537 0.02
6 3 6 o 0.009 0.005 180.00 0.71521 0.00
6 -2 4 o 1.943 1.224 0.00 0.71486 0.02
5 8 1 o 1.820 1.189 180.00 0.71412 0.02
8 4 2 o 1.844 1.209 180.00 0.71405 0.02
4 -1 7 o 0.312 0.205 0.00 0.71402 0.00
7 5 -3 o 1.370 0.920 180.00 0.71362 0.01
5 8 0 o 1.649 1.121 0.00 0.71341 0.02
2 3 8 o 2.163 1.471 0.00 0.71340 0.02
6 4 -5 o 1.069 0.738 0.00 0.71313 0.01
5 -4 3 o 2.752 1.987 180.00 0.71234 0.03
7 1 -4 o 3.329 2.413 0.00 0.71226 0.03
6 -1 5 o 1.876 1.365 180.00 0.71218 0.02
3 1 8 o 0.665 0.486 180.00 0.71206 0.01
6 7 3 o 0.155 0.114 180.00 0.71202 0.00
7 5 4 o 0.100 0.073 180.00 0.71201 0.00
4 -5 3 o 2.535 1.866 0.00 0.71193 0.02
2 -1 8 o 1.571 1.163 180.00 0.71181 0.02
5 -1 -6 o 0.723 0.537 0.00 0.71172 0.01
8 1 -1 o 2.345 1.744 180.00 0.71168 0.02
7 0 4 o 0.118 0.088 0.00 0.71146 0.00
7 -1 3 o 4.976 3.764 0.00 0.71125 0.05
2 -7 1 o 0.742 0.565 0.00 0.71107 0.01
3 5 7 o 0.004 0.003 0.00 0.71077 0.00
3 2 8 o 0.060 0.046 180.00 0.71059 0.00
0 8 0 o 1.460 1.131 180.00 0.71051 0.01
2 -1 -8 o 1.502 1.177 0.00 0.71012 0.01
5 2 7 o 5.509 4.342 0.00 0.70991 0.05
1 -5 6 o 2.032 1.603 0.00 0.70987 0.02
0 8 1 o 3.639 2.887 0.00 0.70965 0.04
6 7 -2 o 1.270 1.010 180.00 0.70956 0.01
0 3 8 o 0.806 0.643 0.00 0.70943 0.01
3 -6 -3 o 1.120 0.898 0.00 0.70922 0.01
6 1 6 o 0.318 0.255 180.00 0.70916 0.00
2 -6 4 o 0.130 0.105 180.00 0.70900 0.00
1 7 5 o 1.881 1.521 180.00 0.70889 0.02
7 -2 0 o 1.775 1.444 180.00 0.70865 0.02
4 6 6 o 1.005 0.818 180.00 0.70861 0.01
7 6 3 o 0.317 0.260 180.00 0.70841 0.00
3 -4 -6 o 0.005 0.004 0.00 0.70819 0.00
6 -2 -4 o 0.341 0.281 180.00 0.70818 0.00
1 -7 3 o 0.082 0.068 0.00 0.70748 0.00
4 8 3 o 4.255 3.581 0.00 0.70724 0.04
7 6 -2 o 0.013 0.011 0.00 0.70699 0.00
8 3 -2 o 0.043 0.036 180.00 0.70627 0.00
4 5 -6 o 4.456 3.797 180.00 0.70602 0.04
1 -2 8 o 1.450 1.242 0.00 0.70593 0.01
8 1 2 o 0.002 0.002 0.00 0.70578 0.00
8 2 -2 o 0.980 0.838 180.00 0.70559 0.01
1 8 -2 o 1.921 1.643 0.00 0.70547 0.02
4 7 -4 o 1.609 1.375 0.00 0.70542 0.02
4 8 -2 o 3.404 2.909 0.00 0.70534 0.03
0 6 6 o 0.001 0.001 180.00 0.70526 0.00
5 4 -6 o 1.119 0.955 180.00 0.70519 0.01
2 -7 -2 o 0.500 0.427 180.00 0.70516 0.00
4 -4 -5 o 5.771 4.923 0.00 0.70512 0.05
5 8 2 o 1.015 0.864 0.00 0.70489 0.01
7 -2 1 o 2.801 2.383 0.00 0.70487 0.03
5 1 7 o 0.097 0.082 180.00 0.70460 0.00
8 5 1 o 0.612 0.518 180.00 0.70454 0.01
8 5 0 o 3.636 3.075 0.00 0.70446 0.03
4 7 5 o 1.424 1.201 180.00 0.70429 0.01
5 3 7 o 0.077 0.065 180.00 0.70428 0.00
3 4 -7 o 0.565 0.476 180.00 0.70422 0.01
7 3 5 o 0.647 0.544 0.00 0.70407 0.01
4 3 -7 o 1.161 0.975 180.00 0.70404 0.01
4 -1 -7 o 0.689 0.577 0.00 0.70392 0.01
3 -5 -5 o 0.143 0.119 180.00 0.70350 0.00
7 2 5 o 0.157 0.130 0.00 0.70346 0.00
2 2 -8 o 2.364 1.959 0.00 0.70331 0.02
5 8 -1 o 0.121 0.099 180.00 0.70286 0.00
1 8 3 o 3.851 3.157 0.00 0.70282 0.04
7 -2 -1 o 0.580 0.474 0.00 0.70265 0.01
3 0 8 o 4.669 3.807 0.00 0.70256 0.04
4 -3 -6 o 2.922 2.343 0.00 0.70176 0.03
6 4 6 o 1.630 1.305 180.00 0.70168 0.02
8 3 3 o 0.734 0.587 0.00 0.70166 0.01
0 8 -1 o 1.903 1.520 0.00 0.70157 0.02
7 -1 -3 o 0.072 0.058 0.00 0.70148 0.00
0 5 7 o 0.237 0.188 180.00 0.70119 0.00
7 4 -4 o 2.841 2.219 0.00 0.70042 0.03
1 -4 7 o 1.209 0.943 0.00 0.70033 0.01
0 7 -4 o 0.298 0.231 180.00 0.69988 0.00
1 -6 5 o 0.648 0.502 180.00 0.69985 0.01
2 -5 -6 o 0.202 0.156 180.00 0.69971 0.00
0 8 2 o 0.007 0.006 0.00 0.69912 0.00
6 -1 -5 o 0.474 0.365 180.00 0.69899 0.00
8 2 3 o 0.076 0.059 180.00 0.69852 0.00
3 3 8 o 2.097 1.625 0.00 0.69834 0.02
4 -3 6 o 0.048 0.037 180.00 0.69826 0.00
6 -3 3 o 1.232 0.963 0.00 0.69778 0.01
4 -4 5 o 4.913 3.869 0.00 0.69723 0.04
3 -6 3 o 0.001 0.001 0.00 0.69665 0.00
8 4 -2 o 2.787 2.197 0.00 0.69627 0.03
8 0 0 o 1.794 1.412 180.00 0.69617 0.02
1 -7 -4 o 1.366 1.075 180.00 0.69615 0.01
6 -3 -3 o 0.020 0.016 0.00 0.69600 0.00
3 -4 6 o 2.025 1.537 0.00 0.69511 0.02
8 5 2 o 0.733 0.556 0.00 0.69510 0.01
8 5 -1 o 0.000 0.000 180.00 0.69487 0.00
7 0 -4 o 0.252 0.187 180.00 0.69462 0.00
8 1 -2 o 2.760 2.006 0.00 0.69431 0.02
8 4 3 o 3.206 2.321 0.00 0.69424 0.03
7 4 5 o 0.422 0.303 180.00 0.69409 0.00
8 0 1 o 3.304 2.333 0.00 0.69383 0.03
2 -7 2 o 1.975 1.388 0.00 0.69375 0.02
7 7 1 o 3.906 2.578 0.00 0.69257 0.03
7 1 5 o 1.213 0.794 180.00 0.69235 0.01
5 -3 5 o 0.921 0.601 180.00 0.69221 0.01
5 -3 -5 o 0.010 0.006 180.00 0.69217 0.00
7 7 0 o 1.536 0.991 180.00 0.69182 0.01
7 -2 2 o 0.731 0.471 180.00 0.69177 0.01
6 6 -4 o 0.767 0.494 0.00 0.69172 0.01
4 5 7 o 0.002 0.002 180.00 0.69167 0.00
3 -3 -7 o 1.231 0.792 0.00 0.69164 0.01
6 6 5 o 1.182 0.759 0.00 0.69153 0.01
2 -4 -7 o 1.428 0.912 180.00 0.69120 0.01
5 -5 0 o 3.403 2.174 0.00 0.69112 0.03
2 -2 -8 o 1.505 0.961 0.00 0.69105 0.01
1 -3 -8 o 0.110 0.070 0.00 0.69095 0.00
6 0 6 o 0.363 0.232 0.00 0.69038 0.00
3 1 -8 o 5.404 3.460 0.00 0.68984 0.05
8 0 -1 o 2.379 1.528 0.00 0.68925 0.02
5 0 7 o 1.130 0.726 180.00 0.68905 0.01
3 0 -8 o 0.848 0.544 0.00 0.68858 0.01
3 8 4 o 0.403 0.259 0.00 0.68853 0.00
1 3 -8 o 2.393 1.536 0.00 0.68853 0.02
5 4 7 o 1.143 0.734 180.00 0.68845 0.01
0 7 5 o 0.212 0.136 0.00 0.68839 0.00
2 8 -3 o 4.004 2.568 0.00 0.68837 0.03
3 8 -3 o 0.155 0.099 180.00 0.68804 0.00
3 -5 5 o 0.698 0.446 180.00 0.68803 0.01
7 -2 -2 o 0.833 0.528 0.00 0.68760 0.01
2 -6 -5 o 0.397 0.252 0.00 0.68759 0.00
4 -5 -4 o 4.609 2.925 0.00 0.68758 0.04
5 -5 -1 o 3.707 2.349 180.00 0.68751 0.03
1 4 8 o 0.496 0.313 0.00 0.68733 0.00
2 4 8 o 3.068 1.931 0.00 0.68723 0.03
5 -2 6 o 0.159 0.100 180.00 0.68718 0.00
2 8 4 o 0.051 0.032 0.00 0.68688 0.00
5 8 3 o 0.023 0.014 180.00 0.68684 0.00
2 6 -6 o 3.127 1.933 0.00 0.68669 0.03
4 -6 0 o 0.502 0.306 180.00 0.68626 0.00
0 3 -8 o 0.308 0.186 0.00 0.68600 0.00
5 -5 1 o 0.240 0.143 180.00 0.68566 0.00
5 6 -5 o 0.330 0.196 180.00 0.68558 0.00
8 1 3 o 2.054 1.203 0.00 0.68524 0.02
2 -2 8 o 1.178 0.686 0.00 0.68509 0.01
2 -7 -3 o 0.806 0.461 0.00 0.68467 0.01
6 2 -6 o 0.528 0.300 0.00 0.68448 0.00
7 7 2 o 0.580 0.327 0.00 0.68424 0.00
6 5 -5 o 1.320 0.745 180.00 0.68423 0.01
6 7 4 o 0.000 0.000 0.00 0.68417 0.00
1 6 -6 o 2.118 1.193 0.00 0.68409 0.02
0 8 -2 o 0.677 0.380 0.00 0.68390 0.01
3 -3 7 o 0.823 0.461 0.00 0.68382 0.01
5 8 -2 o 0.347 0.194 180.00 0.68371 0.00
4 -6 -1 o 2.444 1.364 0.00 0.68346 0.02
3 -1 8 o 0.468 0.261 0.00 0.68333 0.00
5 -4 -4 o 0.005 0.003 0.00 0.68275 0.00
8 0 2 o 0.004 0.002 0.00 0.68251 0.00
6 1 -6 o 1.517 0.857 0.00 0.68237 0.01
5 6 6 o 4.286 2.426 0.00 0.68231 0.04
6 -4 0 o 0.244 0.139 180.00 0.68214 0.00
7 7 -1 o 3.990 2.277 0.00 0.68209 0.03
6 8 1 o 0.694 0.396 0.00 0.68208 0.01
4 2 8 o 1.560 0.902 0.00 0.68181 0.01
5 -2 -6 o 2.320 1.359 180.00 0.68160 0.02
5 7 5 o 0.617 0.366 0.00 0.68142 0.01
6 8 0 o 0.496 0.299 180.00 0.68119 0.00
3 2 -8 o 0.898 0.545 180.00 0.68111 0.01
6 7 -3 o 3.426 2.078 0.00 0.68111 0.03
4 -2 7 o 0.005 0.003 180.00 0.68094 0.00
7 6 4 o 0.018 0.011 180.00 0.68078 0.00
2 3 -8 o 0.779 0.491 180.00 0.68068 0.01
4 -6 1 o 0.990 0.656 0.00 0.68019 0.01
0 8 3 o 0.232 0.155 0.00 0.68013 0.00
7 -1 4 o 2.137 1.428 180.00 0.68011 0.02
5 7 -4 o 0.272 0.184 0.00 0.67997 0.00
4 1 8 o 0.945 0.649 0.00 0.67986 0.01
4 8 4 o 0.673 0.463 180.00 0.67983 0.01
8 3 -3 o 0.015 0.011 180.00 0.67946 0.00
8 2 -3 o 2.646 1.931 0.00 0.67930 0.02
5 -4 4 o 1.279 0.948 0.00 0.67916 0.01
7 6 -3 o 3.587 2.700 0.00 0.67902 0.03
3 6 -6 o 0.780 0.587 180.00 0.67901 0.01
6 5 6 o 2.312 1.745 0.00 0.67900 0.02
2 7 -5 o 3.285 2.523 0.00 0.67883 0.03
3 -6 -4 o 1.197 0.924 180.00 0.67877 0.01
4 4 -7 o 0.297 0.235 0.00 0.67853 0.00
1 8 -3 o 0.332 0.266 180.00 0.67839 0.00
4 -2 -7 o 1.454 1.168 0.00 0.67837 0.01
2 -5 6 o 0.346 0.279 180.00 0.67829 0.00
4 -5 4 o 0.186 0.153 0.00 0.67809 0.00
5 1 -7 o 3.835 3.182 0.00 0.67795 0.03
6 -4 -1 o 0.207 0.172 0.00 0.67794 0.00
1 -6 -6 o 3.804 3.179 0.00 0.67784 0.03
1 5 -7 o 1.054 0.884 0.00 0.67778 0.01
1 -8 0 o 0.181 0.152 0.00 0.67766 0.00
6 -4 1 o 4.285 3.629 0.00 0.67760 0.03
3 -1 -8 o 2.535 2.156 180.00 0.67749 0.02
4 8 -3 o 0.756 0.643 180.00 0.67747 0.01
8 5 3 o 0.662 0.568 180.00 0.67724 0.01
0 4 8 o 1.493 1.281 180.00 0.67720 0.01
1 -5 -7 o 3.875 3.329 0.00 0.67712 0.03
3 4 8 o 0.764 0.658 180.00 0.67689 0.01
8 5 -2 o 0.281 0.242 180.00 0.67688 0.00
2 5 -7 o 0.586 0.505 180.00 0.67683 0.00
6 3 -6 o 1.414 1.217 180.00 0.67680 0.01
1 -8 -1 o 0.104 0.089 180.00 0.67666 0.00
7 5 -4 o 0.397 0.341 0.00 0.67658 0.00
5 2 -7 o 1.536 1.317 180.00 0.67637 0.01
8 6 1 o 1.429 1.215 0.00 0.67608 0.01
8 6 0 o 0.674 0.560 180.00 0.67556 0.01
5 -5 -2 o 0.588 0.480 0.00 0.67524 0.00
1 8 4 o 0.121 0.098 180.00 0.67510 0.00
7 5 5 o 0.795 0.634 0.00 0.67481 0.01
3 7 -5 o 0.157 0.125 0.00 0.67480 0.00
6 8 2 o 0.004 0.003 180.00 0.67430 0.00
7 2 -5 o 1.076 0.836 0.00 0.67428 0.01
4 3 8 o 1.683 1.294 180.00 0.67409 0.01
8 0 -2 o 0.121 0.092 0.00 0.67387 0.00
6 -2 5 o 0.102 0.078 0.00 0.67387 0.00
8 3 4 o 2.956 2.236 0.00 0.67372 0.02
5 5 -6 o 0.448 0.337 0.00 0.67359 0.00
1 -3 8 o 1.594 1.193 180.00 0.67344 0.01
2 -4 7 o 2.601 1.941 0.00 0.67333 0.02
1 7 -5 o 0.251 0.185 180.00 0.67289 0.00
1 -7 4 o 0.766 0.564 180.00 0.67257 0.01
2 6 7 o 0.123 0.090 180.00 0.67231 0.00
7 0 5 o 0.833 0.614 0.00 0.67215 0.01
4 -6 -2 o 0.476 0.351 180.00 0.67210 0.00
2 7 6 o 1.072 0.792 0.00 0.67175 0.01
5 -5 2 o 0.478 0.353 0.00 0.67174 0.00
6 8 -1 o 4.212 3.111 0.00 0.67173 0.03
0 6 -6 o 3.195 2.363 180.00 0.67153 0.02
7 -2 3 o 0.031 0.023 0.00 0.67083 0.00
6 0 -6 o 1.074 0.800 180.00 0.67074 0.01
3 7 6 o 1.914 1.425 180.00 0.67070 0.01
8 2 4 o 0.397 0.296 0.00 0.67051 0.00
7 3 -5 o 0.672 0.501 0.00 0.67044 0.01
1 -8 1 o 0.613 0.457 0.00 0.67016 0.00
8 4 -3 o 0.019 0.015 180.00 0.67011 0.00
5 0 -7 o 1.876 1.401 0.00 0.67004 0.01
8 1 -3 o 0.235 0.175 180.00 0.66965 0.00
2 -7 3 o 0.484 0.358 180.00 0.66916 0.00
0 5 -7 o 0.704 0.519 0.00 0.66886 0.01
7 -1 -4 o 0.003 0.002 180.00 0.66877 0.00
7 1 -5 o 1.274 0.936 180.00 0.66874 0.01
4 0 8 o 0.162 0.118 180.00 0.66848 0.00
3 6 7 o 0.472 0.344 180.00 0.66843 0.00
3 -7 0 o 0.109 0.080 180.00 0.66839 0.00
3 9 1 o 0.697 0.507 0.00 0.66830 0.01
8 6 2 o 0.181 0.131 0.00 0.66815 0.00
3 9 0 o 2.037 1.461 0.00 0.66780 0.02
7 7 3 o 1.564 1.120 180.00 0.66778 0.01
8 4 4 o 0.692 0.494 180.00 0.66758 0.01
1 -8 -2 o 3.743 2.664 0.00 0.66725 0.03
6 -3 4 o 1.276 0.908 180.00 0.66719 0.01
6 -2 -5 o 0.022 0.016 180.00 0.66689 0.00
0 0 9 o 1.305 0.929 180.00 0.66675 0.01
8 6 -1 o 4.362 3.110 0.00 0.66667 0.03
1 1 9 o 0.145 0.103 0.00 0.66657 0.00
1 6 7 o 2.746 1.963 0.00 0.66651 0.02
3 -7 -1 o 0.221 0.158 180.00 0.66649 0.00
2 -6 5 o 0.186 0.134 0.00 0.66621 0.00
3 5 -7 o 0.291 0.210 0.00 0.66615 0.00
0 1 9 o 3.162 2.293 0.00 0.66600 0.02
4 -6 2 o 1.760 1.281 0.00 0.66591 0.01
6 -4 -2 o 1.574 1.166 0.00 0.66549 0.01
5 3 -7 o 0.007 0.005 180.00 0.66548 0.00
8 -1 0 o 0.658 0.490 0.00 0.66538 0.00
5 -1 7 o 4.329 3.261 0.00 0.66518 0.03
7 -2 -3 o 0.688 0.519 180.00 0.66514 0.01
6 -3 -4 o 0.736 0.557 180.00 0.66511 0.01
6 -4 2 o 0.596 0.458 180.00 0.66483 0.00
2 9 1 o 2.271 1.784 0.00 0.66452 0.02
7 7 -2 o 0.023 0.018 180.00 0.66447 0.00
5 5 7 o 2.710 2.149 0.00 0.66438 0.02
2 9 0 o 0.643 0.513 180.00 0.66429 0.00
1 0 9 o 1.731 1.381 0.00 0.66429 0.01
2 -3 -8 o 0.635 0.510 180.00 0.66418 0.00
3 -6 4 o 0.982 0.790 180.00 0.66417 0.01
6 -1 6 o 3.754 3.099 0.00 0.66378 0.03
3 3 -8 o 0.195 0.165 0.00 0.66348 0.00
8 0 3 o 0.022 0.019 0.00 0.66347 0.00
1 7 6 o 3.644 3.123 0.00 0.66320 0.03
8 -1 1 o 0.407 0.354 180.00 0.66292 0.00
4 9 1 o 1.028 0.907 180.00 0.66255 0.01
3 -7 1 o 2.078 1.857 0.00 0.66211 0.02
4 6 -6 o 0.721 0.645 0.00 0.66202 0.01
5 8 4 o 0.387 0.347 0.00 0.66190 0.00
4 9 0 o 0.746 0.670 0.00 0.66182 0.01
6 2 7 o 0.089 0.080 0.00 0.66145 0.00
4 7 -5 o 2.011 1.814 180.00 0.66131 0.01
7 -3 0 o 0.001 0.000 180.00 0.66083 0.00
3 9 2 o 0.331 0.297 180.00 0.66064 0.00
6 4 -6 o 1.282 1.150 0.00 0.66028 0.01
4 7 6 o 0.553 0.496 0.00 0.66018 0.00
1 -7 -5 o 2.584 2.313 0.00 0.66010 0.02
6 3 7 o 0.421 0.376 180.00 0.65982 0.00
1 2 9 o 1.679 1.499 180.00 0.65980 0.01
1 0 -9 o 0.014 0.012 0.00 0.65977 0.00
8 -1 -1 o 1.788 1.595 0.00 0.65974 0.01
0 8 -3 o 0.250 0.223 180.00 0.65940 0.00
3 9 -1 o 0.466 0.415 180.00 0.65921 0.00
7 3 6 o 0.866 0.771 180.00 0.65909 0.01
6 8 3 o 0.112 0.100 180.00 0.65869 0.00
0 1 -9 o 0.096 0.086 0.00 0.65848 0.00
8 1 4 o 1.467 1.317 180.00 0.65833 0.01
7 2 6 o 0.069 0.062 0.00 0.65818 0.00
1 -4 -8 o 0.865 0.781 0.00 0.65812 0.01
5 8 -3 o 3.425 3.101 0.00 0.65799 0.02
3 -2 -8 o 0.609 0.552 0.00 0.65793 0.00
2 -7 -4 o 1.584 1.442 0.00 0.65781 0.01
2 1 9 o 1.361 1.240 180.00 0.65778 0.01
0 7 -5 o 0.079 0.072 0.00 0.65773 0.00
7 4 -5 o 0.420 0.384 180.00 0.65768 0.00
4 4 8 o 0.046 0.042 0.00 0.65764 0.00
4 -4 -6 o 0.355 0.325 180.00 0.65764 0.00
7 -3 1 o 0.029 0.027 0.00 0.65736 0.00
3 -5 -6 o 1.916 1.813 0.00 0.65697 0.01
2 9 2 o 0.131 0.126 180.00 0.65674 0.00
3 -2 8 o 1.277 1.228 180.00 0.65666 0.01
3 -7 -2 o 4.178 4.033 0.00 0.65659 0.03
4 1 -8 o 0.482 0.468 180.00 0.65648 0.00
7 -3 -1 o 0.467 0.457 0.00 0.65637 0.00
0 2 9 o 0.842 0.825 0.00 0.65632 0.01
1 -1 -9 o 0.157 0.156 180.00 0.65612 0.00
2 9 -1 o 2.315 2.299 0.00 0.65608 0.02
5 -5 -3 o 1.744 1.775 0.00 0.65563 0.01
4 6 7 o 1.906 1.969 0.00 0.65535 0.01
1 4 -8 o 0.848 0.876 180.00 0.65533 0.01
4 9 2 o 2.890 2.988 0.00 0.65533 0.02
3 8 5 o 0.653 0.688 180.00 0.65497 0.00
1 -8 2 o 0.280 0.295 180.00 0.65495 0.00
2 8 -4 o 0.331 0.349 180.00 0.65495 0.00
2 5 8 o 0.624 0.660 180.00 0.65486 0.00
6 8 -2 o 0.105 0.111 180.00 0.65471 0.00
0 8 4 o 1.663 1.769 0.00 0.65467 0.01
1 1 -9 o 1.070 1.141 0.00 0.65462 0.01
7 0 -5 o 0.266 0.284 0.00 0.65447 0.00
3 8 -4 o 1.528 1.636 0.00 0.65442 0.01
9 3 0 o 0.443 0.475 0.00 0.65441 0.00
6 1 7 o 3.414 3.665 0.00 0.65425 0.02
2 2 9 o 0.931 1.000 0.00 0.65413 0.01
9 3 1 o 0.027 0.029 0.00 0.65391 0.00
5 -1 -7 o 0.754 0.810 180.00 0.65359 0.01
4 -6 -3 o 1.071 1.147 0.00 0.65340 0.01
2 8 5 o 0.957 1.023 0.00 0.65331 0.01
1 -1 9 o 0.344 0.367 180.00 0.65323 0.00
4 9 -1 o 0.024 0.026 0.00 0.65321 0.00
8 5 4 o 0.023 0.025 0.00 0.65282 0.00
2 0 9 o 0.216 0.228 0.00 0.65271 0.00
8 6 3 o 0.173 0.182 180.00 0.65264 0.00
8 -1 2 o 1.810 1.905 0.00 0.65263 0.01
4 0 -8 o 1.104 1.159 0.00 0.65252 0.01
3 -4 -7 o 3.201 3.362 0.00 0.65252 0.02
2 -3 8 o 1.560 1.633 0.00 0.65240 0.01
8 5 -3 o 2.761 2.889 0.00 0.65237 0.02
1 5 8 o 1.918 1.996 0.00 0.65209 0.01
4 2 -8 o 0.100 0.104 0.00 0.65177 0.00
0 6 7 o 0.005 0.005 0.00 0.65174 0.00
1 9 0 o 0.281 0.291 0.00 0.65172 0.00
1 9 1 o 0.864 0.894 180.00 0.65170 0.01
8 0 -3 o 0.376 0.388 180.00 0.65166 0.00
6 7 5 o 1.778 1.836 0.00 0.65153 0.01
2 4 -8 o 0.020 0.020 0.00 0.65138 0.00
7 4 6 o 1.275 1.315 0.00 0.65128 0.01
4 -5 -5 o 0.146 0.151 0.00 0.65127 0.00
1 -5 7 o 0.616 0.636 180.00 0.65120 0.00
6 -1 -6 o 0.346 0.357 0.00 0.65098 0.00
5 -5 3 o 0.490 0.507 0.00 0.65085 0.00
1 -6 6 o 0.209 0.217 0.00 0.65057 0.00
1 -8 -3 o 0.929 0.968 180.00 0.65044 0.01
8 6 -2 o 0.001 0.001 180.00 0.65034 0.00
0 4 -8 o 1.574 1.644 0.00 0.65031 0.01
9 2 0 o 1.135 1.189 180.00 0.65021 0.01
9 4 0 o 1.378 1.454 0.00 0.65001 0.01
4 -4 6 o 0.034 0.036 180.00 0.64996 0.00
9 4 1 o 1.105 1.170 180.00 0.64992 0.01
6 6 -5 o 1.254 1.329 0.00 0.64991 0.01
6 6 6 o 0.671 0.717 0.00 0.64972 0.00
6 4 7 o 1.213 1.307 0.00 0.64955 0.01
9 2 1 o 1.612 1.756 0.00 0.64933 0.01
4 -1 8 o 1.522 1.689 0.00 0.64903 0.01
3 5 8 o 0.011 0.013 180.00 0.64869 0.00
7 1 6 o 1.567 1.785 0.00 0.64866 0.01
7 6 5 o 1.304 1.507 0.00 0.64844 0.01
3 -7 2 o 0.650 0.758 180.00 0.64829 0.00
6 7 -4 o 0.213 0.251 180.00 0.64813 0.00
8 2 -4 o 0.247 0.293 180.00 0.64806 0.00
5 9 1 o 1.357 1.615 0.00 0.64800 0.01
8 3 -4 o 2.281 2.750 0.00 0.64781 0.02
4 8 5 o 0.321 0.390 0.00 0.64770 0.00
5 2 8 o 0.115 0.143 180.00 0.64734 0.00
9 3 -1 o 0.080 0.101 180.00 0.64724 0.00
5 9 0 o 1.036 1.308 180.00 0.64708 0.01
4 5 -7 o 0.834 1.056 0.00 0.64705 0.01
4 -3 -7 o 0.364 0.467 180.00 0.64686 0.00
8 -1 -2 o 0.311 0.404 180.00 0.64661 0.00
1 8 -4 o 0.043 0.056 0.00 0.64657 0.00
5 4 -7 o 1.438 1.876 0.00 0.64656 0.01
5 -4 -5 o 0.003 0.004 0.00 0.64653 0.00
5 -3 6 o 2.586 3.382 0.00 0.64652 0.02
2 -5 -7 o 0.032 0.041 0.00 0.64649 0.00
7 6 -4 o 0.665 0.871 180.00 0.64648 0.00
5 -3 -6 o 0.054 0.071 0.00 0.64647 0.00
7 -3 2 o 1.848 2.444 0.00 0.64630 0.01
0 7 6 o 0.432 0.577 180.00 0.64609 0.00
6 -4 -3 o 0.309 0.413 180.00 0.64608 0.00
9 3 2 o 0.499 0.676 180.00 0.64580 0.00
3 9 3 o 2.087 2.851 0.00 0.64562 0.01
7 8 1 o 0.468 0.651 0.00 0.64517 0.00
6 -4 3 o 0.238 0.330 0.00 0.64517 0.00
7 -1 5 o 1.027 1.431 0.00 0.64514 0.01
4 8 -4 o 0.138 0.193 0.00 0.64507 0.00
4 -6 3 o 0.568 0.797 180.00 0.64492 0.00
7 7 4 o 1.172 1.648 0.00 0.64487 0.01
1 3 9 o 0.585 0.825 0.00 0.64478 0.00
2 -6 -6 o 0.130 0.184 180.00 0.64458 0.00
7 -3 -2 o 0.786 1.120 180.00 0.64443 0.01
3 -6 -5 o 1.492 2.129 0.00 0.64438 0.01
2 0 -9 o 1.581 2.265 0.00 0.64421 0.01
1 9 -1 o 0.144 0.206 0.00 0.64419 0.00
7 8 0 o 0.431 0.618 0.00 0.64419 0.00
7 -2 4 o 0.796 1.142 0.00 0.64413 0.01
1 9 2 o 1.233 1.769 0.00 0.64413 0.01
1 -2 -9 o 1.469 2.109 0.00 0.64410 0.01
4 -3 7 o 1.364 1.971 0.00 0.64366 0.01
9 2 -1 o 1.311 1.895 0.00 0.64357 0.01
5 3 8 o 0.020 0.030 0.00 0.64344 0.00
3 9 -2 o 1.415 2.048 0.00 0.64341 0.01
5 1 8 o 1.279 1.852 0.00 0.64292 0.01
1 8 5 o 0.764 1.106 0.00 0.64292 0.00
5 -4 5 o 0.028 0.041 0.00 0.64272 0.00
9 4 -1 o 0.102 0.148 0.00 0.64261 0.00
8 7 1 o 1.221 1.768 0.00 0.64244 0.01
9 4 2 o 1.433 2.073 0.00 0.64233 0.01
2 3 9 o 0.602 0.870 0.00 0.64218 0.00
0 2 -9 o 1.302 1.880 0.00 0.64216 0.01
2 1 -9 o 0.371 0.535 180.00 0.64212 0.00
3 -5 6 o 0.090 0.130 0.00 0.64188 0.00
2 9 3 o 0.018 0.026 180.00 0.64176 0.00
8 7 0 o 0.042 0.060 0.00 0.64162 0.00
5 9 2 o 0.061 0.088 0.00 0.64147 0.00
5 7 6 o 0.447 0.640 0.00 0.64145 0.00
8 3 5 o 0.783 1.123 180.00 0.64143 0.01
1 2 -9 o 0.190 0.272 180.00 0.64127 0.00
4 -5 5 o 0.093 0.133 180.00 0.64121 0.00
9 2 2 o 0.000 0.000 0.00 0.64101 0.00
4 9 3 o 0.114 0.163 180.00 0.64090 0.00
2 9 -2 o 0.042 0.060 0.00 0.64072 0.00
7 7 -3 o 0.081 0.116 0.00 0.64070 0.00
0 5 8 o 0.268 0.383 0.00 0.64070 0.00
3 1 9 o 0.831 1.189 0.00 0.64067 0.01
3 -4 7 o 0.624 0.893 180.00 0.64058 0.00
2 -8 0 o 0.960 1.380 0.00 0.64036 0.01
4 -1 -8 o 0.192 0.277 0.00 0.64035 0.00
8 1 -4 o 0.002 0.003 180.00 0.64004 0.00
5 7 -5 o 0.701 1.013 0.00 0.63998 0.00
3 2 9 o 1.410 2.037 0.00 0.63997 0.01
3 -7 -3 o 0.250 0.362 180.00 0.63972 0.00
2 -7 4 o 1.704 2.477 0.00 0.63962 0.01
2 -1 9 o 1.448 2.112 0.00 0.63950 0.01
8 4 -4 o 0.191 0.280 0.00 0.63931 0.00
2 -8 -1 o 0.003 0.004 180.00 0.63928 0.00
1 -7 5 o 0.956 1.440 0.00 0.63513 0.01
6 0 7 o 0.031 0.045 180.00 0.63904 0.00
4 3 -8 o 1.172 1.739 0.00 0.63893 0.01
3 4 -8 o 1.932 2.867 0.00 0.63892 0.01
0 3 9 o 0.882 1.313 180.00 0.63883 0.01
5 9 -1 o 0.964 1.436 0.00 0.63880 0.01
7 8 2 o 0.325 0.484 180.00 0.63880 0.00
1 -2 9 o 0.161 0.242 0.00 0.63464 0.00
8 0 4 o 0.542 0.814 0.00 0.63858 0.00
5 6 7 o 0.019 0.028 0.00 0.63460 0.00
8 2 5 o 0.919 1.396 0.00 0.63828 0.01
4 5 8 o 1.536 2.321 0.00 0.63430 0.01
2 -8 1 o 0.758 1.147 180.00 0.63423 0.00
2 -1 -9 o 0.031 0.048 0.00 0.63813 0.00
9 1 0 o 0.178 0.274 0.00 0.63791 0.00
9 5 1 o 1.156 1.777 0.00 0.63781 0.01
5 6 -6 o 0.944 1.455 0.00 0.63771 0.01
4 9 -2 o 0.202 0.312 180.00 0.63761 0.00
8 7 -1 o 0.341 0.520 180.00 0.63362 0.00
9 5 0 o 0.181 0.280 180.00 0.63753 0.00
1 -8 3 o 1.977 3.022 0.00 0.63355 0.01
7 5 -5 o 0.768 1.188 0.00 0.63745 0.00
7 -2 -4 o 1.323 2.047 0.00 0.63743 0.01
3 0 9 o 0.415 0.637 180.00 0.63336 0.00
9 3 -2 o 1.518 2.339 0.00 0.63314 0.01
6 -3 5 o 1.867 2.877 0.00 0.63314 0.01
7 -1 -5 o 1.397 2.154 0.00 0.63308 0.01
1 -4 8 o 0.342 0.530 0.00 0.63690 0.00
6 8 4 o 1.436 2.221 0.00 0.63683 0.01
6 5 -6 o 1.406 2.173 0.00 0.63677 0.01
9 1 1 o 0.253 0.391 180.00 0.63671 0.00
2 7 -6 o 0.901 1.401 180.00 0.63256 0.01
8 4 5 o 0.227 0.350 0.00 0.63649 0.00
5 8 5 o 0.770 1.202 0.00 0.63236 0.00
2 -4 -8 o 0.456 0.713 0.00 0.63225 0.00
8 7 2 o 0.120 0.183 180.00 0.63600 0.00
7 8 -1 o 0.000 0.000 180.00 0.63594 0.00
7 5 6 o 0.380 0.577 0.00 0.63564 0.00
8 -1 3 o 0.440 0.667 180.00 0.63555 0.00
5 -2 7 o 0.125 0.190 0.00 0.63554 0.00

_cod_database_fobs_code 2021821
